14
Frame=0 idx=010148 GeodesicLength=0.0 rxn_smarts="[O:1]([C@@:2]1([H:9])[C@@:3]2([H:10])[C@@:4]3([H:11])[C:5]([H:12])([H:13])[C@:6]1([H:14])[N:7]23)[H:8]>>[O:1]([C@@:2]1([H:9])[C@:3]([C:4](=[C:5]([H:12])[H:13])[H:11])([H:10])[N:7]=[C:6]1[H:14])[H:8]"
O        1.84196633      -0.58211277      -0.84110789
C        1.21953158      -0.25460424       0.35147243
C        0.37193512       1.02471644       0.56939633
C       -0.72282336       0.99273982      -0.41260435
C       -1.23361705      -0.30375108      -0.69000369
C       -0.09689417      -0.86421163       0.80433337
N       -0.49182400       0.26154873       1.48351252
H        1.16328073      -0.68097817      -1.51505836
H        1.96937990      -0.31477315       1.14095703
H        0.77172538       1.99057347       0.86651950
H       -0.99354889       1.86913692      -1.00074240
H       -1.42167938      -0.50670034      -1.75438053
H       -2.01443980      -0.75705924      -0.09975438
H       -0.36299244      -1.87452477       1.09746045
14
Frame=1 idx=010148 GeodesicLength=0.04624418032040137 rxn_smarts="[O:1]([C@@:2]1([H:9])[C@@:3]2([H:10])[C@@:4]3([H:11])[C:5]([H:12])([H:13])[C@:6]1([H:14])[N:7]23)[H:8]>>[O:1]([C@@:2]1([H:9])[C@:3]([C:4](=[C:5]([H:12])[H:13])[H:11])([H:10])[N:7]=[C:6]1[H:14])[H:8]"
O        1.84475958      -0.60387807      -0.83316326
C        1.22030869      -0.25877896       0.35320446
C        0.37489919       1.02214487       0.56195137
C       -0.72911645       0.98999748      -0.40985986
C       -1.24254303      -0.30378405      -0.69303964
C       -0.09583942      -0.86755016       0.80782141
N       -0.49389391       0.26512924       1.47803028
H        1.18373122      -0.65171748      -1.52908890
H        1.97054284      -0.31523741       1.14316978
H        0.77522439       1.98744083       0.85968166
H       -1.00046341       1.87044068      -0.99101430
H       -1.42307994      -0.50933205      -1.75739365
H       -2.03069540      -0.74898017      -0.10547556
H       -0.35383434      -1.87589474       1.11517621
14
Frame=2 idx=010148 GeodesicLength=0.09229095500289211 rxn_smarts="[O:1]([C@@:2]1([H:9])[C@@:3]2([H:10])[C@@:4]3([H:11])[C:5]([H:12])([H:13])[C@:6]1([H:14])[N:7]23)[H:8]>>[O:1]([C@@:2]1([H:9])[C@:3]([C:4](=[C:5]([H:12])[H:13])[H:11])([H:10])[N:7]=[C:6]1[H:14])[H:8]"
O        1.84567365      -0.62611357      -0.82599814
C        1.22083660      -0.26309782       0.35470714
C        0.37771631       1.01942607       0.55450576
C       -0.73560065       0.98725807      -0.40692975
C       -1.25147419      -0.30382498      -0.69607081
C       -0.09492078      -0.87095415       0.81160798
N       -0.49596681       0.26865419       1.47268294
H        1.20578927      -0.62132626      -1.54231978
H        1.97194115      -0.31589450       1.14462657
H        0.77874467       1.98411505       0.85276948
H       -1.00728734       1.87164702      -0.98127801
H       -1.42368887      -0.51226615      -1.76041277
H       -2.04719918      -0.74063466      -0.11153307
H       -0.34456384      -1.87698831       1.13364245
14
Frame=3 idx=010148 GeodesicLength=0.13815600765050512 rxn_smarts="[O:1]([C@@:2]1([H:9])[C@@:3]2([H:10])[C@@:4]3([H:11])[C:5]([H:12])([H:13])[C@:6]1([H:14])[N:7]23)[H:8]>>[O:1]([C@@:2]1([H:9])[C@:3]([C:4](=[C:5]([H:12])[H:13])[H:11])([H:10])[N:7]=[C:6]1[H:14])[H:8]"
O        1.84463970      -0.64858003      -0.81974773
C        1.22110229      -0.26755034       0.35595263
C        0.38036908       1.01657119       0.54708302
C       -0.74227215       0.98453430      -0.40381317
C       -1.26042282      -0.30385305      -0.69910050
C       -0.09413574      -0.87441908       0.81569247
N       -0.49805691       0.27211591       1.46747731
H        1.22954031      -0.59014437      -1.55455373
H        1.97360504      -0.31676705       1.14525438
H        0.78225578       1.98060551       0.84583259
H       -1.01402024       1.87277773      -0.97152745
H       -1.42350641      -0.51548869      -1.76342274
H       -2.06395543      -0.73200911      -0.11795116
H       -0.33514250      -1.87779291       1.15282410
14
Frame=4 idx=010148 GeodesicLength=0.18387431529687373 rxn_smarts="[O:1]([C@@:2]1([H:9])[C@@:3]2([H:10])[C@@:4]3([H:11])[C:5]([H:12])([H:13])[C@:6]1([H:14])[N:7]23)[H:8]>>[O:1]([C@@:2]1([H:9])[C@:3]([C:4](=[C:5]([H:12])[H:13])[H:11])([H:10])[N:7]=[C:6]1[H:14])[H:8]"
O        1.84166427      -0.67100984      -0.81452554
C        1.22110431      -0.27212048       0.35691918
C        0.38284373       1.01358651       0.53970048
C       -0.74912020       0.98183076      -0.40052214
C       -1.26941120      -0.30384466      -0.70213300
C       -0.09347993      -0.87793867       0.82006671
N       -0.50018287       0.27549781       1.46241887
H        1.25505989      -0.55855157      -1.56562162
H        1.97555828      -0.31786882       1.14500545
H        0.78572696       1.97691304       0.83891572
H       -1.02067679       1.87385000      -0.96174742
H       -1.42257687      -0.51896898      -1.76640882
H       -2.08098108      -0.72308144      -0.12474194
H       -0.32552850      -1.87829366       1.17267410
14
Frame=5 idx=010148 GeodesicLength=0.22940333324758846 rxn_smarts="[O:1]([C@@:2]1([H:9])[C@@:3]2([H:10])[C@@:4]3([H:11])[C:5]([H:12])([H:13])[C@:6]1([H:14])[N:7]23)[H:8]>>[O:1]([C@@:2]1([H:9])[C@:3]([C:4](=[C:5]([H:12])[H:13])[H:11])([H:10])[N:7]=[C:6]1[H:14])[H:8]"
O        1.83672743      -0.69318233      -0.81040191
C        1.22081496      -0.27680034       0.35758319
C        0.38512197       1.01048322       0.53236446
C       -0.75612542       0.97915706      -0.39705393
C       -1.27845168      -0.30378351      -0.70514798
C       -0.09294319      -0.88152130       0.82469821
N       -0.50234009       0.27877981       1.45747634
H        1.28234272      -0.52679654      -1.57533654
H        1.97777534      -0.31921760       1.14382210
H        0.78911653       1.97305487       0.83204452
H       -1.02719687       1.87487165      -0.95196244
H       -1.42091821      -0.52270959      -1.76929975
H       -2.09825796      -0.71383828      -0.13190734
H       -0.31566554      -1.87849712       1.19312108
14
Frame=6 idx=010148 GeodesicLength=0.2748381859746783 rxn_smarts="[O:1]([C@@:2]1([H:9])[C@@:3]2([H:10])[C@@:4]3([H:11])[C:5]([H:12])([H:13])[C@:6]1([H:14])[N:7]23)[H:8]>>[O:1]([C@@:2]1([H:9])[C@:3]([C:4](=[C:5]([H:12])[H:13])[H:11])([H:10])[N:7]=[C:6]1[H:14])[H:8]"
O        1.82995771      -0.71485395      -0.80744802
C        1.22025883      -0.28157297       0.35793831
C        0.38719348       1.00727375       0.52509394
C       -0.76328292       0.97651785      -0.39343255
C       -1.28758866      -0.30364601      -0.70815873
C       -0.09250758      -0.88516269       0.82956449
N       -0.50454716       0.28194996       1.45266307
H        1.31142958      -0.49528697      -1.58359778
H        1.98027995      -0.32081501       1.14171232
H        0.79238930       1.96904444       0.82527610
H       -1.03362403       1.87586534      -0.94215649
H       -1.41864447      -0.52667717      -1.77209755
H       -2.11582585      -0.70424045      -0.13945129
H       -0.30548817      -1.87839613       1.21409417
14
Frame=7 idx=010148 GeodesicLength=0.3204176542338816 rxn_smarts="[O:1]([C@@:2]1([H:9])[C@@:3]2([H:10])[C@@:4]3([H:11])[C:5]([H:12])([H:13])[C@:6]1([H:14])[N:7]23)[H:8]>>[O:1]([C@@:2]1([H:9])[C@:3]([C:4](=[C:5]([H:12])[H:13])[H:11])([H:10])[N:7]=[C:6]1[H:14])[H:8]"
O        1.82142642      -0.73587100      -0.80568752
C        1.21947623      -0.28643506       0.35800917
C        0.38909946       1.00398743       0.51788978
C       -0.77060233       0.97393568      -0.38971450
C       -1.29691836      -0.30344327      -0.71120106
C       -0.09216888      -0.88891707       0.83468681
N       -0.50678241       0.28496372       1.44800225
H        1.34239790      -0.46413081      -1.59033784
H        1.98315386      -0.32267266       1.13873312
H        0.79561939       1.96494480       0.81861951
H       -1.04000496       1.87690186      -0.93239065
H       -1.41592920      -0.53086798      -1.77484041
H       -2.13379127      -0.69432620      -0.14740309
H       -0.29497584      -1.87806944       1.23563443
14
Frame=8 idx=010148 GeodesicLength=0.3654998605696623 rxn_smarts="[O:1]([C@@:2]1([H:9])[C@@:3]2([H:10])[C@@:4]3([H:11])[C:5]([H:12])([H:13])[C@:6]1([H:14])[N:7]23)[H:8]>>[O:1]([C@@:2]1([H:9])[C@:3]([C:4](=[C:5]([H:12])[H:13])[H:11])([H:10])[N:7]=[C:6]1[H:14])[H:8]"
O        1.81171333      -0.75557098      -0.80507146
C        1.21845223      -0.29125894       0.35772080
C        0.39069240       1.00058094       0.51075589
C       -0.77798407       0.97135757      -0.38583923
C       -1.30633857      -0.30302939      -0.71417773
C       -0.09183281      -0.89265107       0.83976265
N       -0.50913337       0.28778640       1.44331456
H        1.37474427      -0.43477222      -1.59535673
H        1.98611815      -0.32466829       1.13483312
H        0.79842344       1.96060864       0.81224063
H       -1.04624134       1.87785461      -0.92243517
H       -1.41279190      -0.53509134      -1.77729459
H       -2.15195315      -0.68383741      -0.15566442
H       -0.28386861      -1.87730851       1.25721167
14
Frame=9 idx=010148 GeodesicLength=0.41071884937961783 rxn_smarts="[O:1]([C@@:2]1([H:9])[C@@:3]2([H:10])[C@@:4]3([H:11])[C:5]([H:12])([H:13])[C@:6]1([H:14])[N:7]23)[H:8]>>[O:1]([C@@:2]1([H:9])[C@:3]([C:4](=[C:5]([H:12])[H:13])[H:11])([H:10])[N:7]=[C:6]1[H:14])[H:8]"
O        1.80043473      -0.77444323      -0.80559892
C        1.21720073      -0.29616341       0.35714292
C        0.39208188       0.99709858       0.50366925
C       -0.78551514       0.96882150      -0.38187307
C       -1.31597724      -0.30252786      -0.71713623
C       -0.09153856      -0.89648661       0.84502840
N       -0.51151136       0.29044181       1.43872275
H        1.40902418      -0.40607292      -1.59873663
H        1.98937539      -0.32692283       1.13006339
H        0.80108431       1.95618572       0.80594712
H       -1.05244144       1.87882153      -0.91251188
H       -1.40940459      -0.53950428      -1.77955704
H       -2.17048514      -0.67294980      -0.16428675
H       -0.27232777      -1.87629819       1.27912668
14
Frame=10 idx=010148 GeodesicLength=0.4559549268598557 rxn_smarts="[O:1]([C@@:2]1([H:9])[C@@:3]2([H:10])[C@@:4]3([H:11])[C:5]([H:12])([H:13])[C@:6]1([H:14])[N:7]23)[H:8]>>[O:1]([C@@:2]1([H:9])[C@:3]([C:4](=[C:5]([H:12])[H:13])[H:11])([H:10])[N:7]=[C:6]1[H:14])[H:8]"
O        1.78805306      -0.79206736      -0.80724700
C        1.21578242      -0.30105797       0.35627164
C        0.39325145       0.99355450       0.49663797
C       -0.79315513       0.96632225      -0.37784186
C       -1.32588138      -0.30188581      -0.72008570
C       -0.09124230      -0.90041806       0.85033994
N       -0.51394296       0.29286039       1.43418713
H        1.44494263      -0.37884383      -1.60041722
H        1.99286489      -0.32933548       1.12452114
H        0.80350947       1.95167528       0.79986533
H       -1.05860123       1.87981467      -0.90255092
H       -1.40594619      -0.54401741      -1.78161563
H       -2.18941584      -0.66157475      -0.17325233
H       -0.26021889      -1.87502643       1.30118752
14
Frame=11 idx=010148 GeodesicLength=0.5012217901345667 rxn_smarts="[O:1]([C@@:2]1([H:9])[C@@:3]2([H:10])[C@@:4]3([H:11])[C:5]([H:12])([H:13])[C@:6]1([H:14])[N:7]23)[H:8]>>[O:1]([C@@:2]1([H:9])[C@:3]([C:4](=[C:5]([H:12])[H:13])[H:11])([H:10])[N:7]=[C:6]1[H:14])[H:8]"
O        1.77471371      -0.80838824      -0.80997433
C        1.21421576      -0.30593462       0.35510797
C        0.39418476       0.98994474       0.48964851
C       -0.80091515       0.96385523      -0.37374868
C       -1.33607512      -0.30108617      -0.72301483
C       -0.09091542      -0.90444776       0.85565423
N       -0.51643379       0.29502275       1.42968373
H        1.48248880      -0.35322378      -1.60037619
H        1.99656075      -0.33189477       1.11823035
H        0.80565351       1.94706731       0.79399363
H       -1.06474411       1.88082539      -0.89254847
H       -1.40251164      -0.54860328      -1.78343400
H       -2.20875148      -0.64966459      -0.18255094
H       -0.24747057      -1.87347222       1.32332904
14
Frame=12 idx=010148 GeodesicLength=0.5464966360945109 rxn_smarts="[O:1]([C@@:2]1([H:9])[C@@:3]2([H:10])[C@@:4]3([H:11])[C:5]([H:12])([H:13])[C@:6]1([H:14])[N:7]23)[H:8]>>[O:1]([C@@:2]1([H:9])[C@:3]([C:4](=[C:5]([H:12])[H:13])[H:11])([H:10])[N:7]=[C:6]1[H:14])[H:8]"
O        1.76058623      -0.82332327      -0.81373270
C        1.21251239      -0.31077993       0.35364919
C        0.39487376       0.98627801       0.48268155
C       -0.80878874       0.96142167      -0.36959863
C       -1.34657882      -0.30012566      -0.72590897
C       -0.09053640      -0.90859296       0.86090555
N       -0.51898107       0.29690507       1.42516846
H        1.52158218      -0.32938651      -1.59857076
H        2.00041516      -0.33457560       1.11122050
H        0.80748661       1.94237788       0.78832808
H       -1.07088907       1.88186979      -0.88246369
H       -1.39916451      -0.55327735      -1.78496100
H       -2.22851078      -0.63715522      -0.19218744
H       -0.23400693      -1.87163592       1.34546986
14
Frame=13 idx=010148 GeodesicLength=0.5917634905897721 rxn_smarts="[O:1]([C@@:2]1([H:9])[C@@:3]2([H:10])[C@@:4]3([H:11])[C:5]([H:12])([H:13])[C@:6]1([H:14])[N:7]23)[H:8]>>[O:1]([C@@:2]1([H:9])[C@:3]([C:4](=[C:5]([H:12])[H:13])[H:11])([H:10])[N:7]=[C:6]1[H:14])[H:8]"
O        1.74585316      -0.83680887      -0.81843217
C        1.21071330      -0.31553569       0.35191781
C        0.39532490       0.98255872       0.47572981
C       -0.81676376       0.95899176      -0.36540727
C       -1.35740316      -0.29899923      -0.72878582
C       -0.09004886      -0.91283193       0.86604961
N       -0.52155710       0.29848999       1.42063233
H        1.56216157      -0.30763299      -1.59503131
H        2.00440692      -0.33728639       1.10357573
H        0.80898556       1.93760475       0.78288853
H       -1.07712876       1.88292655      -0.87220293
H       -1.39607265      -0.55796947      -1.78622606
H       -2.24866889      -0.62402438      -0.20217460
H       -0.21980221      -1.86948280       1.36746636
14
Frame=14 idx=010148 GeodesicLength=0.6370685408534557 rxn_smarts="[O:1]([C@@:2]1([H:9])[C@@:3]2([H:10])[C@@:4]3([H:11])[C:5]([H:12])([H:13])[C@:6]1([H:14])[N:7]23)[H:8]>>[O:1]([C@@:2]1([H:9])[C@:3]([C:4](=[C:5]([H:12])[H:13])[H:11])([H:10])[N:7]=[C:6]1[H:14])[H:8]"
O        1.73060732      -0.84883188      -0.82404470
C        1.20883207      -0.32018879       0.34991566
C        0.39554566       0.97881625       0.46877810
C       -0.82484473       0.95658119      -0.36118205
C       -1.36857848      -0.29772060      -0.73164614
C       -0.08943937      -0.91719589       0.87105300
N       -0.52414625       0.29976333       1.41606300
H        1.60422367      -0.28804902      -1.58973954
H        2.00851828      -0.33999814       1.09533370
H        0.81015661       1.93280274       0.77767273
H       -1.08349530       1.88404117      -0.86173682
H       -1.39331747      -0.56271214      -1.78721994
H       -2.26924427      -0.61026457      -0.21252436
H       -0.20481773      -1.86704365       1.38927737
14
Frame=15 idx=010148 GeodesicLength=0.6824166717141456 rxn_smarts="[O:1]([C@@:2]1([H:9])[C@@:3]2([H:10])[C@@:4]3([H:11])[C:5]([H:12])([H:13])[C@:6]1([H:14])[N:7]23)[H:8]>>[O:1]([C@@:2]1([H:9])[C@:3]([C:4](=[C:5]([H:12])[H:13])[H:11])([H:10])[N:7]=[C:6]1[H:14])[H:8]"
O        1.71506423      -0.85932681      -0.83053834
C        1.20691694      -0.32473577       0.34762883
C        0.39549449       0.97501307       0.46180032
C       -0.83308526       0.95417422      -0.35690244
C       -1.38013723      -0.29624876      -0.73443212
C       -0.08867630      -0.92167802       0.87587123
N       -0.52680008       0.30068266       1.41142589
H        1.64776902      -0.27072047      -1.58263086
H        2.01275406      -0.34271633       1.08649140
H        0.81091429       1.92789935       0.77263870
H       -1.08999165       1.88514996      -0.85112302
H       -1.39094161      -0.56745536      -1.78784875
H       -2.29028700      -0.59576118      -0.22319491
H       -0.18899390      -1.86427657       1.41081407
14
Frame=16 idx=010148 GeodesicLength=0.7277962365635942 rxn_smarts="[O:1]([C@@:2]1([H:9])[C@@:3]2([H:10])[C@@:4]3([H:11])[C:5]([H:12])([H:13])[C@:6]1([H:14])[N:7]23)[H:8]>>[O:1]([C@@:2]1([H:9])[C@:3]([C:4](=[C:5]([H:12])[H:13])[H:11])([H:10])[N:7]=[C:6]1[H:14])[H:8]"
O        1.69938966      -0.86823131      -0.83782778
C        1.20501143      -0.32910886       0.34509616
C        0.39520053       0.97120388       0.45481185
C       -0.84146454       0.95177941      -0.35258119
C       -1.39210110      -0.29460571      -0.73717432
C       -0.08770491      -0.92630189       0.88046783
N       -0.52946275       0.30122455       1.40673686
H        1.69257175      -0.25591678      -1.57376374
H        2.01710308      -0.34532643       1.07717962
H        0.81127194       1.92298653       0.76785122
H       -1.09662294       1.88628719      -0.84034554
H       -1.38910149      -0.57219716      -1.78817556
H       -2.31177681      -0.58054522      -0.23421668
H       -0.17231383      -1.86124820       1.43194127
