13
Frame=0 idx=003132 GeodesicLength=0.0 rxn_smarts="[O:1]([C:2]([C:3]([C:4]([C:5]#[N:6])([H:12])[H:13])([H:10])[H:11])([H:8])[H:9])[H:7]>>[O:1]([C:2]([C:3]([C:4](=[C:5]=[N:6][H:12])[H:13])([H:10])[H:11])([H:8])[H:9])[H:7]"
O        0.88452360       0.26525776       1.18746139
C        1.05474143       0.20342808      -0.31275760
C        0.04993525      -0.79679788      -0.84255713
C       -1.31154913      -0.59353774      -0.23132643
C       -1.59606162       0.60726092       0.36055227
N       -1.58981282       1.63494380       0.94233008
H        1.21030583       1.11149149       1.52579900
H        2.09487490      -0.07165199      -0.46797501
H        0.84833831       1.21298081      -0.66662117
H        0.41057167      -1.81004554      -0.63789239
H        0.10100590      -0.67211015      -1.93687129
H       -0.13370554       0.31135782       1.29480596
H       -2.02316779      -1.40257733      -0.21494769
13
Frame=1 idx=003132 GeodesicLength=0.19125796658812777 rxn_smarts="[O:1]([C:2]([C:3]([C:4]([C:5]#[N:6])([H:12])[H:13])([H:10])[H:11])([H:8])[H:9])[H:7]>>[O:1]([C:2]([C:3]([C:4](=[C:5]=[N:6][H:12])[H:13])([H:10])[H:11])([H:8])[H:9])[H:7]"
O        0.90259056       0.27475009       1.17703877
C        1.06802291       0.20406710      -0.31810430
C        0.05775098      -0.80030862      -0.83096602
C       -1.30220483      -0.58762301      -0.21956203
C       -1.60559635       0.62086910       0.34666632
N       -1.62472186       1.60011364       1.00681442
H        1.22610287       1.12586545       1.50344498
H        2.10581920      -0.07570158      -0.48209970
H        0.85947018       1.20876835      -0.68591591
H        0.41506104      -1.81061049      -0.60716915
H        0.10355267      -0.69801518      -1.92706758
H       -0.16334587       0.30747471       1.30770026
H       -2.04250150      -1.36964955      -0.27078007
13
Frame=2 idx=003132 GeodesicLength=0.38231577095573377 rxn_smarts="[O:1]([C:2]([C:3]([C:4]([C:5]#[N:6])([H:12])[H:13])([H:10])[H:11])([H:8])[H:9])[H:7]>>[O:1]([C:2]([C:3]([C:4](=[C:5]=[N:6][H:12])[H:13])([H:10])[H:11])([H:8])[H:9])[H:7]"
O        0.92287148       0.28502343       1.16630574
C        1.08146703       0.20445392      -0.32370568
C        0.06498354      -0.80344881      -0.81855529
C       -1.29384062      -0.58034555      -0.20775734
C       -1.61380816       0.63553075       0.33442843
N       -1.66098340       1.55940269       1.06956313
H        1.24049747       1.14256171       1.47968585
H        2.11650377      -0.08078834      -0.49722383
H        0.87142973       1.20391217      -0.70624792
H        0.41834195      -1.81050882      -0.57507743
H        0.10553181      -0.72445062      -1.91604527
H       -0.19455383       0.30040369       1.32293026
H       -2.05844079      -1.33174622      -0.32830065
13
Frame=3 idx=003132 GeodesicLength=0.5731447234725533 rxn_smarts="[O:1]([C:2]([C:3]([C:4]([C:5]#[N:6])([H:12])[H:13])([H:10])[H:11])([H:8])[H:9])[H:7]>>[O:1]([C:2]([C:3]([C:4](=[C:5]=[N:6][H:12])[H:13])([H:10])[H:11])([H:8])[H:9])[H:7]"
O        0.94503121       0.29543118       1.15529554
C        1.09494375       0.20474052      -0.32950368
C        0.07159827      -0.80580612      -0.80585773
C       -1.28666413      -0.57128818      -0.19705457
C       -1.62110254       0.65098003       0.32438671
N       -1.69753475       1.51464635       1.12821466
H        1.25328738       1.16054162       1.45509793
H        2.12677676      -0.08677164      -0.51322873
H        0.88426262       1.19868829      -0.72723574
H        0.42028683      -1.80938732      -0.54241217
H        0.10712406      -0.75064145      -1.90425793
H       -0.22815876       0.28943547       1.34061795
H       -2.06985070      -1.29056876      -0.38406223
13
Frame=4 idx=003132 GeodesicLength=0.7637495239892192 rxn_smarts="[O:1]([C:2]([C:3]([C:4]([C:5]#[N:6])([H:12])[H:13])([H:10])[H:11])([H:8])[H:9])[H:7]>>[O:1]([C:2]([C:3]([C:4](=[C:5]=[N:6][H:12])[H:13])([H:10])[H:11])([H:8])[H:9])[H:7]"
O        0.96896362       0.30551986       1.14402724
C        1.10841857       0.20510335      -0.33548571
C        0.07770746      -0.80715070      -0.79323441
C       -1.28056903      -0.56032029      -0.18808554
C       -1.62783174       0.66692990       0.31682984
N       -1.73349472       1.46792456       1.18131982
H        1.26449006       1.17899240       1.43016082
H        2.13660159      -0.09335947      -0.53012380
H        0.89789476       1.19336891      -0.74856025
H        0.42103620      -1.80703233      -0.50972637
H        0.10849201      -0.77610104      -1.89202984
H       -0.26495708       0.27396539       1.36081907
H       -2.07675170      -1.24784054      -0.43591086
13
Frame=5 idx=003132 GeodesicLength=0.9541547789426881 rxn_smarts="[O:1]([C:2]([C:3]([C:4]([C:5]#[N:6])([H:12])[H:13])([H:10])[H:11])([H:8])[H:9])[H:7]>>[O:1]([C:2]([C:3]([C:4](=[C:5]=[N:6][H:12])[H:13])([H:10])[H:11])([H:8])[H:9])[H:7]"
O        0.99493500       0.31526318       1.13240714
C        1.12191274       0.20568068      -0.34174380
C        0.08349333      -0.80755971      -0.78058396
C       -1.27522093      -0.54775794      -0.18056915
C       -1.63405159       0.68305096       0.31198793
N       -1.76856032       1.42067345       1.22874067
H        1.27433585       1.19766662       1.40493118
H        2.14597409      -0.10020359      -0.54818154
H        0.91203580       1.18806487      -0.77019136
H        0.42095221      -1.80343284      -0.47691650
H        0.10965805      -0.80095163      -1.87924289
H       -0.30555522       0.25352538       1.38372560
H       -2.07990902      -1.20401944      -0.48436331
13
Frame=6 idx=003132 GeodesicLength=1.1443755087541432 rxn_smarts="[O:1]([C:2]([C:3]([C:4]([C:5]#[N:6])([H:12])[H:13])([H:10])[H:11])([H:8])[H:9])[H:7]>>[O:1]([C:2]([C:3]([C:4](=[C:5]=[N:6][H:12])[H:13])([H:10])[H:11])([H:8])[H:9])[H:7]"
O        1.02323867       0.32467639       1.12034083
C        1.13550723       0.20659744      -0.34837265
C        0.08914811      -0.80706432      -0.76789554
C       -1.27035755      -0.53373633      -0.17447314
C       -1.63984731       0.69923364       0.30972551
N       -1.80240915       1.37422055       1.27061554
H        1.28297003       1.21636979       1.37953156
H        2.15496084      -0.10703233      -0.56761908
H        0.92652854       1.18291298      -0.79208876
H        0.42036874      -1.79855324      -0.44395300
H        0.11074392      -0.82529694      -1.86587580
H       -0.35088893       0.22732299       1.40930091
H       -2.07996314      -1.15965063      -0.52923639
13
Frame=7 idx=003132 GeodesicLength=1.334415096475683 rxn_smarts="[O:1]([C:2]([C:3]([C:4]([C:5]#[N:6])([H:12])[H:13])([H:10])[H:11])([H:8])[H:9])[H:7]>>[O:1]([C:2]([C:3]([C:4](=[C:5]=[N:6][H:12])[H:13])([H:10])[H:11])([H:8])[H:9])[H:7]"
O        1.05437915       0.33401600       1.10760361
C        1.14933077       0.20793750      -0.35554715
C        0.09486036      -0.80577118      -0.75492880
C       -1.26570627      -0.51836247      -0.16953737
C       -1.64501710       0.71550543       0.30996571
N       -1.83519895       1.32913545       1.30769124
H        1.29058569       1.23518855       1.35379670
H        2.16361948      -0.11367627      -0.58879329
H        0.94121667       1.17793802      -0.81442635
H        0.41957795      -1.79236982      -0.41038913
H        0.11186244      -0.84955228      -1.85164917
H       -0.40203337       0.19446817       1.43752437
H       -2.07747684      -1.11445711      -0.57131037
13
Frame=8 idx=003132 GeodesicLength=1.5242758931369884 rxn_smarts="[O:1]([C:2]([C:3]([C:4]([C:5]#[N:6])([H:12])[H:13])([H:10])[H:11])([H:8])[H:9])[H:7]>>[O:1]([C:2]([C:3]([C:4](=[C:5]=[N:6][H:12])[H:13])([H:10])[H:11])([H:8])[H:9])[H:7]"
O        1.08900882       0.34364435       1.09388443
C        1.16354585       0.20977809      -0.36349187
C        0.10081539      -0.80377349      -0.74136896
C       -1.26103037      -0.50165412      -0.16550650
C       -1.64922974       0.73196985       0.31275848
N       -1.86723544       1.28571898       1.34078781
H        1.29741992       1.25427141       1.32748184
H        2.17200950      -0.12002348      -0.61214789
H        0.95597006       1.17313631      -0.83747354
H        0.41885081      -1.78480810      -0.37562377
H        0.11312472      -0.87422838      -1.83617716
H       -0.46047161       0.15381484       1.46831940
H       -2.07277792      -1.06784625      -0.61144226
13
Frame=9 idx=003132 GeodesicLength=1.7139660744083187 rxn_smarts="[O:1]([C:2]([C:3]([C:4]([C:5]#[N:6])([H:12])[H:13])([H:10])[H:11])([H:8])[H:9])[H:7]>>[O:1]([C:2]([C:3]([C:4](=[C:5]=[N:6][H:12])[H:13])([H:10])[H:11])([H:8])[H:9])[H:7]"
O        1.12795836       0.35416038       1.07870832
C        1.17833761       0.21220580      -0.37251925
C        0.10721662      -0.80118254      -0.72673493
C       -1.25611338      -0.48352414      -0.16212740
C       -1.65197600       0.74876388       0.31846601
N       -1.89889716       1.24388472       1.37093405
H        1.30377354       1.27393993       1.30014602
H        2.18015647      -0.12600945      -0.63825474
H        0.97062059       1.16844046      -0.86169084
H        0.41845027      -1.77571017      -0.33869022
H        0.11469216      -0.90009838      -1.81883921
H       -0.52827034       0.10371024       1.50149382
H       -2.06594875      -1.01858074      -0.65089164
13
Frame=10 idx=003132 GeodesicLength=1.9034235147933043 rxn_smarts="[O:1]([C:2]([C:3]([C:4]([C:5]#[N:6])([H:12])[H:13])([H:10])[H:11])([H:8])[H:9])[H:7]>>[O:1]([C:2]([C:3]([C:4](=[C:5]=[N:6][H:12])[H:13])([H:10])[H:11])([H:8])[H:9])[H:7]"
O        1.17223513       0.36628043       1.06145619
C        1.19394288       0.21534525      -0.38299540
C        0.11430460      -0.79800899      -0.71048959
C       -1.25072425      -0.46370326      -0.15928895
C       -1.65268892       0.76603076       0.32766441
N       -1.93033138       1.20356607       1.39908948
H        1.31009320       1.29447821       1.27132726
H        2.18808063      -0.13160586      -0.66776123
H        0.98504273       1.16379957      -0.88760005
H        0.41866094      -1.76472126      -0.29847039
H        0.11679188      -0.92794359      -1.79886680
H       -0.60854968       0.04188824       1.53632683
H       -2.05685776      -0.96540558      -0.69039176
13
Frame=11 idx=003132 GeodesicLength=2.092567024118581 rxn_smarts="[O:1]([C:2]([C:3]([C:4]([C:5]#[N:6])([H:12])[H:13])([H:10])[H:11])([H:8])[H:9])[H:7]>>[O:1]([C:2]([C:3]([C:4](=[C:5]=[N:6][H:12])[H:13])([H:10])[H:11])([H:8])[H:9])[H:7]"
O        1.22316549       0.38111747       1.04118305
C        1.21064761       0.21934683      -0.39544654
C        0.12239250      -0.79428045      -0.69177624
C       -1.24457189      -0.44180740      -0.15678002
C       -1.65052580       0.78384424       0.34155903
N       -1.96164536       1.16425946       1.42665589
H        1.31712695       1.31641194       1.24023755
H        2.19574408      -0.13685146      -0.70154722
H        0.99899934       1.15905267      -0.91602427
H        0.41985382      -1.75126934      -0.25320622
H        0.11971039      -0.95895478      -1.77500396
H       -0.70590534      -0.03476752       1.57135081
H       -2.04499179      -0.90610167      -0.73120185
13
Frame=12 idx=003132 GeodesicLength=2.281253351407126 rxn_smarts="[O:1]([C:2]([C:3]([C:4]([C:5]#[N:6])([H:12])[H:13])([H:10])[H:11])([H:8])[H:9])[H:7]>>[O:1]([C:2]([C:3]([C:4](=[C:5]=[N:6][H:12])[H:13])([H:10])[H:11])([H:8])[H:9])[H:7]"
O        1.28256175       0.40028689       1.01650208
C        1.22883312       0.22437380      -0.41063444
C        0.13193207      -0.79003907      -0.66932542
C       -1.23725761      -0.41726428      -0.15425684
C       -1.64434085       0.80215012       0.36232121
N       -1.99283303       1.12487365       1.45578932
H        1.32609131       1.34059745       1.20569710
H        2.20307198      -0.14194566      -0.74084019
H        1.01205937       1.15388785      -0.94819588
H        0.42261934      -1.73443520      -0.20025358
H        0.12380664      -0.99488708      -1.74533484
H       -0.82732488      -0.13038677       1.60345937
H       -2.02921922      -0.83721170      -0.77492790
13
Frame=13 idx=003132 GeodesicLength=2.469208848388143 rxn_smarts="[O:1]([C:2]([C:3]([C:4]([C:5]#[N:6])([H:12])[H:13])([H:10])[H:11])([H:8])[H:9])[H:7]>>[O:1]([C:2]([C:3]([C:4](=[C:5]=[N:6][H:12])[H:13])([H:10])[H:11])([H:8])[H:9])[H:7]"
O        1.35265540       0.42600626       0.98513547
C        1.24892255       0.23058050      -0.42951083
C        0.14348030      -0.78519262      -0.64108301
C       -1.22813702      -0.38966397      -0.15065581
C       -1.63238207       0.82008413       0.39348777
N       -2.02336012       1.08318492       1.48936825
H        1.33935645       1.36815555       1.16557148
H        2.20968462      -0.14725775      -0.78709521
H        1.02357064       1.14761080      -0.98556321
H        0.42784041      -1.71254441      -0.13602955
H        0.12925797      -1.03754630      -1.70659250
H       -0.98373663      -0.24968094       1.62585213
H       -2.00715249      -0.75373617      -0.82288497
13
Frame=14 idx=003132 GeodesicLength=2.655182277410937 rxn_smarts="[O:1]([C:2]([C:3]([C:4]([C:5]#[N:6])([H:12])[H:13])([H:10])[H:11])([H:8])[H:9])[H:7]>>[O:1]([C:2]([C:3]([C:4](=[C:5]=[N:6][H:12])[H:13])([H:10])[H:11])([H:8])[H:9])[H:7]"
O        1.43630239       0.46118686       0.94395517
C        1.27141838       0.23791423      -0.45342798
C        0.15796727      -0.77966034      -0.60426200
C       -1.21631014      -0.35851326      -0.14432329
C       -1.61301094       0.83573036       0.44093797
N       -2.05175024       1.03472217       1.53293833
H        1.36001107       1.40091835       1.11715761
H        2.21508859      -0.15398941      -0.84213908
H        1.03232796       1.13911945      -1.03022145
H        0.43711426      -1.68308706      -0.05537255
H        0.13628281      -1.08944438      -1.65426255
H       -1.19061452      -0.39591963       1.62420228
H       -1.97482689      -0.64897733      -0.87518245
13
Frame=15 idx=003132 GeodesicLength=2.835635917963379 rxn_smarts="[O:1]([C:2]([C:3]([C:4]([C:5]#[N:6])([H:12])[H:13])([H:10])[H:11])([H:8])[H:9])[H:7]>>[O:1]([C:2]([C:3]([C:4](=[C:5]=[N:6][H:12])[H:13])([H:10])[H:11])([H:8])[H:9])[H:7]"
O        1.53555743       0.50785830       0.88891460
C        1.29620491       0.24573478      -0.48324428
C        0.17634546      -0.77320563      -0.55542070
C       -1.20064651      -0.32543989      -0.13103947
C       -1.58494546       0.84403970       0.51199966
N       -2.07607618       0.97022270       1.59298136
H        1.39179166       1.43971462       1.05743196
H        2.21753847      -0.16388196      -0.90747830
H        1.03636310       1.12673463      -1.08280702
H        0.45257850      -1.64304638       0.04597069
H        0.14408957      -1.15076793      -1.58267597
H       -1.46290792      -0.56034311       1.57232538
H       -1.92589303      -0.51761982      -0.92695790
13
Frame=16 idx=003132 GeodesicLength=3.00440371125165 rxn_smarts="[O:1]([C:2]([C:3]([C:4]([C:5]#[N:6])([H:12])[H:13])([H:10])[H:11])([H:8])[H:9])[H:7]>>[O:1]([C:2]([C:3]([C:4](=[C:5]=[N:6][H:12])[H:13])([H:10])[H:11])([H:8])[H:9])[H:7]"
O        1.64833440       0.56297650       0.81772251
C        1.32152564       0.25267155      -0.51828559
C        0.19911942      -0.76570674      -0.49401761
C       -1.18118967      -0.29617034      -0.10493977
C       -1.55062492       0.83733696       0.60993137
N       -2.09805672       0.87635366       1.67098337
H        1.43369118       1.47983586       0.98887363
H        2.21424431      -0.17828794      -0.98243180
H        1.03250367       1.10976870      -1.13975428
H        0.47704123      -1.59136249       0.16531194
H        0.15051588      -1.21708441      -1.49047703
H       -1.79079017      -0.70489614       1.44148843
H       -1.85631426      -0.36543518      -0.96440518
