14
Frame=0 idx=001974 GeodesicLength=0.0 rxn_smarts="[C:1]([C:2]([C:3](=[O:4])[O:5][C:6]([H:12])([H:13])[H:14])([H:10])[H:11])([H:7])([H:8])[H:9]>>[C:1]([O:4][C:3](=[C:2]([H:10])[H:11])[O:5][C:6]([H:12])([H:13])[H:14])([H:7])([H:8])[H:9]"
C       -2.03769245      -0.44483295      -0.59134086
C       -0.85855845       0.91928879       0.96636696
C        0.16279094       0.15790207       0.39268265
O       -0.10731475      -0.88848532      -0.25699476
O        1.42904616       0.55228570       0.48987398
C        2.38783913      -0.15991867      -0.28749597
H       -2.84772750      -0.06533280       0.01150204
H       -1.81583652       0.14588048      -1.46637660
H       -2.06568575      -1.51511573      -0.73783351
H       -0.64898291       1.93234999       1.28970689
H       -1.50754039       0.35360394       1.62215007
H        3.30258266       0.42657316      -0.24287891
H        2.55876192      -1.15236041       0.12943911
H        2.04831787      -0.26183821      -1.31880109
14
Frame=1 idx=001974 GeodesicLength=0.047762196294360466 rxn_smarts="[C:1]([C:2]([C:3](=[O:4])[O:5][C:6]([H:12])([H:13])[H:14])([H:10])[H:11])([H:7])([H:8])[H:9]>>[C:1]([O:4][C:3](=[C:2]([H:10])[H:11])[O:5][C:6]([H:12])([H:13])[H:14])([H:7])([H:8])[H:9]"
C       -2.03181045      -0.43545021      -0.58120581
C       -0.86248078       0.90217019       0.96327521
C        0.16575046       0.14297656       0.39672183
O       -0.10282573      -0.88868886      -0.27773788
O        1.43012691       0.54253923       0.50126607
C        2.39223831      -0.15256465      -0.28726109
H       -2.85336272      -0.01732568      -0.01909254
H       -1.81576304       0.10791614      -1.48846563
H       -2.08915580      -1.51134063      -0.67200027
H       -0.65513369       1.91978920       1.27357700
H       -1.50377752       0.34232705       1.63158093
H        3.30908767       0.42834386      -0.21878824
H        2.55583079      -1.15739181       0.10215920
H        2.06127559      -0.22330038      -1.32402878
14
Frame=2 idx=001974 GeodesicLength=0.09540815947811387 rxn_smarts="[C:1]([C:2]([C:3](=[O:4])[O:5][C:6]([H:12])([H:13])[H:14])([H:10])[H:11])([H:7])([H:8])[H:9]>>[C:1]([O:4][C:3](=[C:2]([H:10])[H:11])[O:5][C:6]([H:12])([H:13])[H:14])([H:7])([H:8])[H:9]"
C       -2.02551963      -0.42600393      -0.57191042
C       -0.86625554       0.88542054       0.96032591
C        0.16839514       0.12765702       0.40128720
O       -0.09879857      -0.88885022      -0.29737371
O        1.43084207       0.53238553       0.51261163
C        2.39589780      -0.14538269      -0.28709840
H       -2.85590158       0.02790311      -0.05010967
H       -1.81687204       0.06865495      -1.50893917
H       -2.11058260      -1.50388328      -0.60772213
H       -0.66057554       1.90721036       1.25772822
H       -1.50085764       0.33224359       1.64046785
H        3.31459994       0.42936204      -0.19570908
H        2.55266048      -1.16161328       0.07457144
H        2.07296770      -0.18510375      -1.32812967
14
Frame=3 idx=001974 GeodesicLength=0.1430369616860539 rxn_smarts="[C:1]([C:2]([C:3](=[O:4])[O:5][C:6]([H:12])([H:13])[H:14])([H:10])[H:11])([H:7])([H:8])[H:9]>>[C:1]([O:4][C:3](=[C:2]([H:10])[H:11])[O:5][C:6]([H:12])([H:13])[H:14])([H:7])([H:8])[H:9]"
C       -2.01909959      -0.41663717      -0.56334010
C       -0.86994797       0.86918017       0.95728960
C        0.17075392       0.11208244       0.40604732
O       -0.09516637      -0.88888555      -0.31628797
O        1.43141508       0.52153513       0.52427222
C        2.39915672      -0.13835289      -0.28690411
H       -2.85599525       0.07042772      -0.08124375
H       -1.81963455       0.02800604      -1.52772779
H       -2.13033903      -1.49322042      -0.54484338
H       -0.66532548       1.89484796       1.24187597
H       -1.49870231       0.32338647       1.64879158
H        3.31964474       0.42950226      -0.17301991
H        2.54934838      -1.16533761       0.04617571
H        2.08389171      -0.14653455      -1.33108539
14
Frame=4 idx=001974 GeodesicLength=0.1908255754041903 rxn_smarts="[C:1]([C:2]([C:3](=[O:4])[O:5][C:6]([H:12])([H:13])[H:14])([H:10])[H:11])([H:7])([H:8])[H:9]>>[C:1]([O:4][C:3](=[C:2]([H:10])[H:11])[O:5][C:6]([H:12])([H:13])[H:14])([H:7])([H:8])[H:9]"
C       -2.01243230      -0.40751246      -0.55541263
C       -0.87342349       0.85352410       0.95393992
C        0.17284022       0.09616033       0.41099871
O       -0.09187420      -0.88876516      -0.33462055
O        1.43187145       0.50940168       0.53686528
C        2.40188437      -0.13139033      -0.28660833
H       -2.85371054       0.11042530      -0.11249077
H       -1.82408672      -0.01439515      -1.54476941
H       -2.14846752      -1.47961229      -0.48315288
H       -0.66916249       1.88278101       1.22551988
H       -1.49709829       0.31605682       1.65649079
H        3.32410702       0.42858588      -0.15013550
H        2.54566782      -1.16863962       0.01615177
H        2.09388467      -0.10662011      -1.33277626
14
Frame=5 idx=001974 GeodesicLength=0.23856246876629217 rxn_smarts="[C:1]([C:2]([C:3](=[O:4])[O:5][C:6]([H:12])([H:13])[H:14])([H:10])[H:11])([H:7])([H:8])[H:9]>>[C:1]([O:4][C:3](=[C:2]([H:10])[H:11])[O:5][C:6]([H:12])([H:13])[H:14])([H:7])([H:8])[H:9]"
C       -2.00532105      -0.39833935      -0.54832094
C       -0.87674284       0.83818901       0.95078559
C        0.17468522       0.07982306       0.41647459
O       -0.08892331      -0.88897676      -0.35154322
O        1.43208383       0.49694303       0.54931631
C        2.40403890      -0.12448608      -0.28641046
H       -2.84916866       0.14819006      -0.14389489
H       -1.82934838      -0.05786680      -1.55990601
H       -2.16528371      -1.46299790      -0.42398987
H       -0.67227706       1.87071226       1.20949471
H       -1.49620579       0.30970968       1.66380617
H        3.32780543       0.42722668      -0.12851403
H        2.54197360      -1.17091213      -0.01397717
H        2.10268382      -0.06721476      -1.33332078
14
Frame=6 idx=001974 GeodesicLength=0.28641189746609585 rxn_smarts="[C:1]([C:2]([C:3](=[O:4])[O:5][C:6]([H:12])([H:13])[H:14])([H:10])[H:11])([H:7])([H:8])[H:9]>>[C:1]([O:4][C:3](=[C:2]([H:10])[H:11])[O:5][C:6]([H:12])([H:13])[H:14])([H:7])([H:8])[H:9]"
C       -1.99798040      -0.38938231      -0.54187021
C       -0.87986270       0.82333604       0.94743647
C        0.17630691       0.06313029       0.42214176
O       -0.08623159      -0.88928083      -0.36768259
O        1.43222568       0.48348965       0.56230589
C        2.40579581      -0.11758953      -0.28614379
H       -2.84271653       0.18381675      -0.17531043
H       -1.83603890      -0.10275050      -1.57300073
H       -2.18097913      -1.44383930      -0.36675152
H       -0.67453276       1.85885839       1.19315723
H       -1.49582580       0.30461264       1.67060332
H        3.33107069       0.42506201      -0.10713293
H        2.53812902      -1.17245250      -0.04520532
H        2.11063969      -0.02701079      -1.33254715
14
Frame=7 idx=001974 GeodesicLength=0.334396881335401 rxn_smarts="[C:1]([C:2]([C:3](=[O:4])[O:5][C:6]([H:12])([H:13])[H:14])([H:10])[H:11])([H:7])([H:8])[H:9]>>[C:1]([O:4][C:3](=[C:2]([H:10])[H:11])[O:5][C:6]([H:12])([H:13])[H:14])([H:7])([H:8])[H:9]"
C       -1.99034921      -0.38073333      -0.53605784
C       -0.88269170       0.80899996       0.94381328
C        0.17771896       0.04574310       0.42831954
O       -0.08378517      -0.89002481      -0.38278218
O        1.43238229       0.46847177       0.57635614
C        2.40709244      -0.11056329      -0.28583763
H       -2.83437552       0.21765164      -0.20704386
H       -1.84389114      -0.14934151      -1.58396775
H       -2.19586874      -1.42231512      -0.31134474
H       -0.67565833       1.84729307       1.17616860
H       -1.49605377       0.30109256       1.67682767
H        3.33387007       0.42216540      -0.08589081
H        2.53419461      -1.17318856      -0.07828106
H        2.11741521       0.01474912      -1.33027935
14
Frame=8 idx=001974 GeodesicLength=0.3826532066970756 rxn_smarts="[C:1]([C:2]([C:3](=[O:4])[O:5][C:6]([H:12])([H:13])[H:14])([H:10])[H:11])([H:7])([H:8])[H:9]>>[C:1]([O:4][C:3](=[C:2]([H:10])[H:11])[O:5][C:6]([H:12])([H:13])[H:14])([H:7])([H:8])[H:9]"
C       -1.98225131      -0.37232131      -0.53085882
C       -0.88521501       0.79500562       0.94002845
C        0.17892400       0.02762273       0.43503700
O       -0.08150980      -0.89134145      -0.39663853
O        1.43244796       0.45210116       0.59110072
C        2.40781957      -0.10335724      -0.28555188
H       -2.82400399       0.24996253      -0.23916634
H       -1.85249519      -0.19738311      -1.59256225
H       -2.21016124      -1.39842727      -0.25813127
H       -0.67568546       1.83576073       1.15867285
H       -1.49689113       0.29890141       1.68252051
H        3.33600971       0.41872531      -0.06523490
H        2.53012578      -1.17274564      -0.11272209
H        2.12288609       0.05749653      -1.32649344
14
Frame=9 idx=001974 GeodesicLength=0.4310761264221161 rxn_smarts="[C:1]([C:2]([C:3](=[O:4])[O:5][C:6]([H:12])([H:13])[H:14])([H:10])[H:11])([H:7])([H:8])[H:9]>>[C:1]([O:4][C:3](=[C:2]([H:10])[H:11])[O:5][C:6]([H:12])([H:13])[H:14])([H:7])([H:8])[H:9]"
C       -1.97409884      -0.36439857      -0.52611352
C       -0.88739385       0.78153274       0.93574309
C        0.17988872       0.00922306       0.44146485
O       -0.07943266      -0.89250586      -0.41050744
O        1.43246545       0.43444335       0.60635344
C        2.40825800      -0.09609074      -0.28495941
H       -2.81217052       0.28020872      -0.27101701
H       -1.86308613      -0.24662452      -1.59851563
H       -2.22361939      -1.37270387      -0.20695962
H       -0.67462704       1.82445144       1.14043523
H       -1.49771537       0.29803712       1.68760474
H        3.33791582       0.41421018      -0.04424365
H        2.52573159      -1.17126206      -0.14839999
H        2.12788420       0.10147904      -1.32088507
14
Frame=10 idx=001974 GeodesicLength=0.479583169326862 rxn_smarts="[C:1]([C:2]([C:3](=[O:4])[O:5][C:6]([H:12])([H:13])[H:14])([H:10])[H:11])([H:7])([H:8])[H:9]>>[C:1]([O:4][C:3](=[C:2]([H:10])[H:11])[O:5][C:6]([H:12])([H:13])[H:14])([H:7])([H:8])[H:9]"
C       -1.96585356      -0.35685551      -0.52185358
C       -0.88930123       0.76841816       0.93117438
C        0.18065370      -0.00942315       0.44765004
O       -0.07748740      -0.89367761      -0.42412905
O        1.43240533       0.41601108       0.62156076
C        2.40844675      -0.08876763      -0.28415171
H       -2.79901665       0.30863435      -0.30266544
H       -1.87522998      -0.29649564      -1.60169466
H       -2.23648686      -1.34530511      -0.15825147
H       -0.67267783       1.81319618       1.12185652
H       -1.49860952       0.29809442       1.69218108
H        3.33956377       0.40895325      -0.02357414
H        2.52118245      -1.16851247      -0.18450069
H        2.13241102       0.14572969      -1.31360202
14
Frame=11 idx=001974 GeodesicLength=0.5281631618380611 rxn_smarts="[C:1]([C:2]([C:3](=[O:4])[O:5][C:6]([H:12])([H:13])[H:14])([H:10])[H:11])([H:7])([H:8])[H:9]>>[C:1]([O:4][C:3](=[C:2]([H:10])[H:11])[O:5][C:6]([H:12])([H:13])[H:14])([H:7])([H:8])[H:9]"
C       -1.95759095      -0.34978165      -0.51800018
C       -0.89094342       0.75565595       0.92625893
C        0.18120793      -0.02816098       0.45334365
O       -0.07566123      -0.89461976      -0.43785236
O        1.43222319       0.39697784       0.63650960
C        2.40843647      -0.08142987      -0.28305872
H       -2.78474252       0.33514648      -0.33393480
H       -1.88904603      -0.34661654      -1.60195255
H       -2.24870561      -1.31654586      -0.11199672
H       -0.66992719       1.80198020       1.10292064
H       -1.49937807       0.29896423       1.69624451
H        3.34100646       0.40286326      -0.00310485
H        2.51640659      -1.16447928      -0.22075441
H        2.13671436       0.19004598      -1.30462272
14
Frame=12 idx=001974 GeodesicLength=0.5767655935572759 rxn_smarts="[C:1]([C:2]([C:3](=[O:4])[O:5][C:6]([H:12])([H:13])[H:14])([H:10])[H:11])([H:7])([H:8])[H:9]>>[C:1]([O:4][C:3](=[C:2]([H:10])[H:11])[O:5][C:6]([H:12])([H:13])[H:14])([H:7])([H:8])[H:9]"
C       -1.94942143      -0.34318744      -0.51447876
C       -0.89242849       0.74320908       0.92103811
C        0.18156326      -0.04673058       0.45825603
O       -0.07390177      -0.89505875      -0.45199013
O        1.43188230       0.37781711       0.65076517
C        2.40836676      -0.07417305      -0.28165184
H       -2.76970436       0.35966080      -0.36455552
H       -1.90453144      -0.39639629      -1.59920829
H       -2.26022907      -1.28677708      -0.06829664
H       -0.66668594       1.79078907       1.08382265
H       -1.49991122       0.30033765       1.69986109
H        3.34235885       0.39595298       0.01707739
H        2.51144992      -1.15922938      -0.25653179
H        2.14119263       0.23378590      -1.29410746
14
Frame=13 idx=001974 GeodesicLength=0.6253086770143773 rxn_smarts="[C:1]([C:2]([C:3](=[O:4])[O:5][C:6]([H:12])([H:13])[H:14])([H:10])[H:11])([H:7])([H:8])[H:9]>>[C:1]([O:4][C:3](=[C:2]([H:10])[H:11])[O:5][C:6]([H:12])([H:13])[H:14])([H:7])([H:8])[H:9]"
C       -1.94151385      -0.33719360      -0.51117466
C       -0.89373836       0.73108780       0.91539587
C        0.18171801      -0.06482803       0.46201412
O       -0.07224426      -0.89445732      -0.46709929
O        1.43131452       0.35885085       0.66408608
C        2.40830989      -0.06710160      -0.27980327
H       -2.75431167       0.38184289      -0.39417009
H       -1.92195480      -0.44527001      -1.59341989
H       -2.27078443      -1.25642769      -0.02707283
H       -0.66310009       1.77961136       1.06447967
H       -1.49982459       0.30207548       1.70300206
H        3.34367155       0.38802980       0.03726974
H        2.50622682      -1.15287314      -0.29140097
H        2.14623126       0.27665321      -1.28210655
14
Frame=14 idx=001974 GeodesicLength=0.6737941666379659 rxn_smarts="[C:1]([C:2]([C:3](=[O:4])[O:5][C:6]([H:12])([H:13])[H:14])([H:10])[H:11])([H:7])([H:8])[H:9]>>[C:1]([O:4][C:3](=[C:2]([H:10])[H:11])[O:5][C:6]([H:12])([H:13])[H:14])([H:7])([H:8])[H:9]"
C       -1.93389598      -0.33180507      -0.50803778
C       -0.89500007       0.71932425       0.90940602
C        0.18166479      -0.08250198       0.46468992
O       -0.07063891      -0.89292426      -0.48309814
O        1.43054121       0.34009382       0.67647920
C        2.40835465      -0.06022656      -0.27760098
H       -2.73879114       0.40188250      -0.42282676
H       -1.94082711      -0.49306466      -1.58470991
H       -2.28055731      -1.22578750       0.01183863
H       -0.65931901       1.76857930       1.04496333
H       -1.49935998       0.30415521       1.70577158
H        3.34502571       0.37916325       0.05732901
H        2.50083818      -1.14552419      -0.32546248
H        2.15196496       0.31863589      -1.26874165
14
Frame=15 idx=001974 GeodesicLength=0.722234245819369 rxn_smarts="[C:1]([C:2]([C:3](=[O:4])[O:5][C:6]([H:12])([H:13])[H:14])([H:10])[H:11])([H:7])([H:8])[H:9]>>[C:1]([O:4][C:3](=[C:2]([H:10])[H:11])[O:5][C:6]([H:12])([H:13])[H:14])([H:7])([H:8])[H:9]"
C       -1.92656319      -0.32702549      -0.50501327
C       -0.89620618       0.70781658       0.90309376
C        0.18145000      -0.09959908       0.46619620
O       -0.06908694      -0.89024538      -0.50000247
O        1.42951573       0.32185595       0.68774343
C        2.40843690      -0.05359086      -0.27504192
H       -2.72324279       0.41979769      -0.45053789
H       -1.96092416      -0.53936292      -1.57317536
H       -2.28942856      -1.19501748       0.04850531
H       -0.65552268       1.75753551       1.02538394
H       -1.49830403       0.30633703       1.70814995
H        3.34629919       0.36940271       0.07716020
H        2.49525827      -1.13720850      -0.35826877
H        2.15831845       0.35930426      -1.25419310
14
Frame=16 idx=001974 GeodesicLength=0.7706206328031305 rxn_smarts="[C:1]([C:2]([C:3](=[O:4])[O:5][C:6]([H:12])([H:13])[H:14])([H:10])[H:11])([H:7])([H:8])[H:9]>>[C:1]([O:4][C:3](=[C:2]([H:10])[H:11])[O:5][C:6]([H:12])([H:13])[H:14])([H:7])([H:8])[H:9]"
C       -1.91957229      -0.32298268      -0.50201312
C       -0.89735546       0.69668343       0.89637965
C        0.18102262      -0.11637234       0.46673340
O       -0.06760619      -0.88659121      -0.51775206
O        1.42828350       0.30360575       0.69832835
C        2.40858558      -0.04713938      -0.27216183
H       -2.70779317       0.43564923      -0.47745525
H       -1.98193486      -0.58432073      -1.55894162
H       -2.29762308      -1.16431402       0.08329638
H       -0.65151390       1.74666313       1.00539213
H       -1.49685626       0.30902615       1.71014090
H        3.34755388       0.35863725       0.09693326
H        2.48955036      -1.12794534      -0.39062384
H        2.16525927       0.39940077      -1.23825636
