17
Frame=0 idx=007823 GeodesicLength=0.0 rxn_smarts="[C:1]([C@@:2]1([H:11])[C:3]([H:12])([H:13])[C:4]([H:14])=[C:5]([H:15])[C@:6]1([O:7][H:17])[H:16])([H:8])([H:9])[H:10]>>[C:1]([C@@:2]1([H:11])[C:3]([H:12])([H:13])[C:4][C:5]([H:14])([H:15])[C@:6]1([O:7][H:17])[H:16])([H:8])([H:9])[H:10]"
C        1.84995588      -0.55090813       0.18750197
C        0.51695598       0.12144359       0.46440328
C        0.15107184       1.29963057      -0.46134434
C       -1.35719073       1.38021331      -0.58381755
C       -1.80815121       0.18956303      -0.00490939
C       -0.71293961      -0.79874729       0.37684844
O       -0.64550623      -1.81388486      -0.60897940
H        1.88240927      -0.97073095      -0.81941979
H        2.66683712       0.16773543       0.27708753
H        2.03976916      -1.36576748       0.88861020
H        0.52830334       0.50988542       1.48973970
H        0.50002331       1.12548620      -1.48857067
H        0.60496539       2.24474343      -0.16015039
H       -1.90846524       1.30174558       0.61005992
H       -2.85581894      -0.10539700      -0.00419153
H       -0.90404452      -1.32744017       1.31115393
H       -0.54817482      -1.40757060      -1.47402198
17
Frame=1 idx=007823 GeodesicLength=0.03653671721417072 rxn_smarts="[C:1]([C@@:2]1([H:11])[C:3]([H:12])([H:13])[C:4]([H:14])=[C:5]([H:15])[C@:6]1([O:7][H:17])[H:16])([H:8])([H:9])[H:10]>>[C:1]([C@@:2]1([H:11])[C:3]([H:12])([H:13])[C:4][C:5]([H:14])([H:15])[C@:6]1([O:7][H:17])[H:16])([H:8])([H:9])[H:10]"
C        1.85094677      -0.55124476       0.18636520
C        0.51844280       0.12127224       0.46522943
C        0.15292190       1.29994867      -0.45961529
C       -1.35373029       1.37712144      -0.58150619
C       -1.80869808       0.18922990      -0.00063857
C       -0.71228506      -0.79834321       0.37819427
O       -0.64301886      -1.81445595      -0.60683703
H        1.88191576      -0.97017880      -0.82097531
H        2.66840446       0.16679792       0.27578403
H        2.04088161      -1.36713612       0.88622308
H        0.53090951       0.50927885       1.49066355
H        0.50057979       1.12582181      -1.48758802
H        0.60660662       2.24541578      -0.15902139
H       -1.92216710       1.31457922       0.60989344
H       -2.85416448      -0.11249207      -0.01596187
H       -0.90160390      -1.32716500       1.31286483
H       -0.55594145      -1.40844993      -1.47307417
17
Frame=2 idx=007823 GeodesicLength=0.07307048996950452 rxn_smarts="[C:1]([C@@:2]1([H:11])[C:3]([H:12])([H:13])[C:4]([H:14])=[C:5]([H:15])[C@:6]1([O:7][H:17])[H:16])([H:8])([H:9])[H:10]>>[C:1]([C@@:2]1([H:11])[C:3]([H:12])([H:13])[C:4][C:5]([H:14])([H:15])[C@:6]1([O:7][H:17])[H:16])([H:8])([H:9])[H:10]"
C        1.85194780      -0.55159173       0.18521895
C        0.51994160       0.12107515       0.46607104
C        0.15476671       1.30025313      -0.45785047
C       -1.35028237       1.37403211      -0.57905954
C       -1.80926540       0.18888242       0.00370768
C       -0.71161970      -0.79796326       0.37954252
O       -0.64052502      -1.81500045      -0.60474373
H        1.88142953      -0.96961441      -0.82254652
H        2.66997719       0.16585376       0.27447759
H        2.04201116      -1.36852591       0.88380821
H        0.53352787       0.50862669       1.49160887
H        0.50108033       1.12615040      -1.48658501
H        0.60825014       2.24607003      -0.15785641
H       -1.93610767       1.32759940       0.60933853
H       -2.85226644      -0.11955372      -0.02761437
H       -0.89913373      -1.32694976       1.31455798
H       -0.56373198      -1.40934385      -1.47207532
17
Frame=3 idx=007823 GeodesicLength=0.1095990177360176 rxn_smarts="[C:1]([C@@:2]1([H:11])[C:3]([H:12])([H:13])[C:4]([H:14])=[C:5]([H:15])[C@:6]1([O:7][H:17])[H:16])([H:8])([H:9])[H:10]>>[C:1]([C@@:2]1([H:11])[C:3]([H:12])([H:13])[C:4][C:5]([H:14])([H:15])[C@:6]1([O:7][H:17])[H:16])([H:8])([H:9])[H:10]"
C        1.85295922      -0.55194895       0.18406560
C        0.52145149       0.12085102       0.46692690
C        0.15660590       1.30054274      -0.45605126
C       -1.34684776       1.37094577      -0.57647682
C       -1.80985288       0.18851821       0.00812541
C       -0.71094335      -0.79761001       0.38088818
O       -0.63802496      -1.81551718      -0.60270853
H        1.88095368      -0.96903920      -0.82413018
H        2.67155409       0.16490460       0.27317191
H        2.04315763      -1.36993430       0.88137084
H        0.53615473       0.50792684       1.49257477
H        0.50152384       1.12647077      -1.48556289
H        0.60989578       2.24670489      -0.15665708
H       -1.95028412       1.34080416       0.60837694
H       -2.85013099      -0.12657057      -0.03910838
H       -0.89663471      -1.32680032       1.31622615
H       -0.57153756      -1.41024848      -1.47103158
17
Frame=4 idx=007823 GeodesicLength=0.14612292032926602 rxn_smarts="[C:1]([C@@:2]1([H:11])[C:3]([H:12])([H:13])[C:4]([H:14])=[C:5]([H:15])[C@:6]1([O:7][H:17])[H:16])([H:8])([H:9])[H:10]>>[C:1]([C@@:2]1([H:11])[C:3]([H:12])([H:13])[C:4][C:5]([H:14])([H:15])[C@:6]1([O:7][H:17])[H:16])([H:8])([H:9])[H:10]"
C        1.85398140      -0.55231625       0.18290747
C        0.52297162       0.12059859       0.46779590
C        0.15843919       1.30081637      -0.45421900
C       -1.34342726       1.36786378      -0.57375563
C       -1.81045983       0.18813441       0.01261001
C       -0.71025568      -0.79728615       0.38222645
O       -0.63551866      -1.81600525      -0.60074025
H        1.88049142      -0.96845453      -0.82572313
H        2.67313408       0.16395226       0.27187053
H        2.04432103      -1.37135860       0.87891625
H        0.53878651       0.50717733       1.49356047
H        0.50190857       1.12678151      -1.48452317
H        0.61154416       2.24731906      -0.15542553
H       -1.96469292       1.35419173       0.60699137
H       -2.84776669      -0.13353175      -0.05040499
H       -0.89410772      -1.32672245       1.31786244
H       -0.57934924      -1.41116006      -1.46994920
17
Frame=5 idx=007823 GeodesicLength=0.18264287682898814 rxn_smarts="[C:1]([C@@:2]1([H:11])[C:3]([H:12])([H:13])[C:4]([H:14])=[C:5]([H:15])[C@:6]1([O:7][H:17])[H:16])([H:8])([H:9])[H:10]>>[C:1]([C@@:2]1([H:11])[C:3]([H:12])([H:13])[C:4][C:5]([H:14])([H:15])[C@:6]1([O:7][H:17])[H:16])([H:8])([H:9])[H:10]"
C        1.85501472      -0.55269332       0.18174703
C        0.52450118       0.12031656       0.46867701
C        0.16026625       1.30107289      -0.45235498
C       -1.34002229       1.36478848      -0.57089139
C       -1.81108482       0.18772744       0.01715581
C       -0.70955602      -0.79699466       0.38355253
O       -0.63300530      -1.81646401      -0.59884760
H        1.88004603      -0.96786161      -0.82732203
H        2.67471585       0.16299880       0.27057702
H        2.04550155      -1.37279603       0.87644992
H        0.54141950       0.50637602       1.49456524
H        0.50223165       1.12708093      -1.48346774
H        0.61319663       2.24791114      -0.15416447
H       -1.97932751       1.36776110       0.60516449
H       -2.84518609      -0.14042688      -0.06146642
H       -0.89155349      -1.32672206       1.31945996
H       -0.58715784      -1.41207482      -1.46883438
17
Frame=6 idx=007823 GeodesicLength=0.2191321488330087 rxn_smarts="[C:1]([C@@:2]1([H:11])[C:3]([H:12])([H:13])[C:4]([H:14])=[C:5]([H:15])[C@:6]1([O:7][H:17])[H:16])([H:8])([H:9])[H:10]>>[C:1]([C@@:2]1([H:11])[C:3]([H:12])([H:13])[C:4][C:5]([H:14])([H:15])[C@:6]1([O:7][H:17])[H:16])([H:8])([H:9])[H:10]"
C        1.85606114      -0.55308107       0.18058716
C        0.52603927       0.12000390       0.46957052
C        0.16208522       1.30131306      -0.45046117
C       -1.33663672       1.36172803      -0.56787779
C       -1.81172783       0.18729356       0.02175763
C       -0.70884328      -0.79673949       0.38486299
O       -0.63048232      -1.81689576      -0.59704068
H        1.87962291      -0.96726408      -0.82892500
H        2.67629929       0.16204606       0.26929482
H        2.04670213      -1.37424583       0.87397976
H        0.54404940       0.50552182       1.49559158
H        0.50248750       1.12736801      -1.48240152
H        0.61485352       2.24848221      -0.15287821
H       -1.99417946       1.38150229       0.60287588
H       -2.84240483      -0.14723694      -0.07225613
H       -0.88897208      -1.32680699       1.32101519
H       -0.59495386      -1.41298876      -1.46769505
17
Frame=7 idx=007823 GeodesicLength=0.2556281275117156 rxn_smarts="[C:1]([C@@:2]1([H:11])[C:3]([H:12])([H:13])[C:4]([H:14])=[C:5]([H:15])[C@:6]1([O:7][H:17])[H:16])([H:8])([H:9])[H:10]>>[C:1]([C@@:2]1([H:11])[C:3]([H:12])([H:13])[C:4][C:5]([H:14])([H:15])[C@:6]1([O:7][H:17])[H:16])([H:8])([H:9])[H:10]"
C        1.85711725      -0.55347712       0.17942702
C        0.52758717       0.11966004       0.47047185
C        0.16390033       1.30153200      -0.44853512
C       -1.33326016       1.35866241      -0.56472989
C       -1.81238407       0.18684048       0.02642264
C       -0.70811894      -0.79651714       0.38615277
O       -0.62796286      -1.81728800      -0.59532036
H        1.87921573      -0.96666076      -0.83052592
H        2.67788241       0.16109428       0.26802217
H        2.04791679      -1.37569820       0.87150464
H        0.54668020       0.50461222       1.49662983
H        0.50268856       1.12764285      -1.48131262
H        0.61651449       2.24902636      -0.15156064
H       -2.00925733       1.39541749       0.60011968
H       -2.83941931      -0.15397984      -0.08274827
H       -0.88636484      -1.32697344       1.32251606
H       -0.60273542      -1.41389361      -1.46653386
17
Frame=8 idx=007823 GeodesicLength=0.29208618260123387 rxn_smarts="[C:1]([C@@:2]1([H:11])[C:3]([H:12])([H:13])[C:4]([H:14])=[C:5]([H:15])[C@:6]1([O:7][H:17])[H:16])([H:8])([H:9])[H:10]>>[C:1]([C@@:2]1([H:11])[C:3]([H:12])([H:13])[C:4][C:5]([H:14])([H:15])[C@:6]1([O:7][H:17])[H:16])([H:8])([H:9])[H:10]"
C        1.85818805      -0.55388437       0.17826771
C        0.52914520       0.11928435       0.47138504
C        0.16570870       1.30173463      -0.44657758
C       -1.32990040       1.35561212      -0.56143279
C       -1.81305449       0.18636157       0.03114516
C       -0.70738049      -0.79633273       0.38742452
O       -0.62543827      -1.81765034      -0.59369270
H        1.87883229      -0.96605527      -0.83212980
H        2.67946861       0.16014369       0.26676053
H        2.04915339      -1.37716027       0.86902922
H        0.54930970       0.50364702       1.49768985
H        0.50282416       1.12790729      -1.48021014
H        0.61818136       2.24954942      -0.15021572
H       -2.02455841       1.40949035       0.59686850
H       -2.83625213      -0.16062752      -0.09292679
H       -0.88373007      -1.32722988       1.32397007
H       -0.61049721      -1.41479005      -1.46535509
17
Frame=9 idx=007823 GeodesicLength=0.3283934000215291 rxn_smarts="[C:1]([C@@:2]1([H:11])[C:3]([H:12])([H:13])[C:4]([H:14])=[C:5]([H:15])[C@:6]1([O:7][H:17])[H:16])([H:8])([H:9])[H:10]>>[C:1]([C@@:2]1([H:11])[C:3]([H:12])([H:13])[C:4][C:5]([H:14])([H:15])[C@:6]1([O:7][H:17])[H:16])([H:8])([H:9])[H:10]"
C        1.85927022      -0.55430147       0.17710868
C        0.53071244       0.11887803       0.47230951
C        0.16750871       1.30192271      -0.44458409
C       -1.32655820       1.35256720      -0.55800632
C       -1.81373368       0.18586555       0.03593274
C       -0.70662796      -0.79618313       0.38867800
O       -0.62291203      -1.81797686      -0.59215616
H        1.87846736      -0.96544552      -0.83373438
H        2.68105400       0.15919427       0.26550942
H        2.05040867      -1.37862967       0.86655107
H        0.55193882       0.50262558       1.49876863
H        0.50290471       1.12816912      -1.47908549
H        0.61984404       2.25005386      -0.14883155
H       -2.04003973       1.42368742       0.59309476
H       -2.83292576      -0.16718092      -0.10277209
H       -0.88106548      -1.32757398       1.32537362
H       -0.61824611      -1.41567219      -1.46415634
17
Frame=10 idx=007823 GeodesicLength=0.36471311086352914 rxn_smarts="[C:1]([C@@:2]1([H:11])[C:3]([H:12])([H:13])[C:4]([H:14])=[C:5]([H:15])[C@:6]1([O:7][H:17])[H:16])([H:8])([H:9])[H:10]>>[C:1]([C@@:2]1([H:11])[C:3]([H:12])([H:13])[C:4][C:5]([H:14])([H:15])[C@:6]1([O:7][H:17])[H:16])([H:8])([H:9])[H:10]"
C        1.86036796      -0.55472988       0.17594453
C        0.53229351       0.11843774       0.47324948
C        0.16930421       1.30209456      -0.44254803
C       -1.32322988       1.34954274      -0.55440574
C       -1.81442351       0.18533779       0.04078091
C       -0.70585931      -0.79607166       0.38992103
O       -0.62038132      -1.81827367      -0.59070267
H        1.87812202      -0.96482529      -0.83534997
H        2.68264439       0.15824503       0.26426037
H        2.05168777      -1.38011396       0.86405787
H        0.55457652       0.50154165       1.49987298
H        0.50291154       1.12842281      -1.47793736
H        0.62152018       2.25053498      -0.14741141
H       -2.05576145       1.43805799       0.58877817
H       -2.82942535      -0.17364813      -0.11231604
H       -0.87837119      -1.32800603       1.32673717
H       -0.62597609      -1.41654667      -1.46293127
17
Frame=11 idx=007823 GeodesicLength=0.4010423555718539 rxn_smarts="[C:1]([C@@:2]1([H:11])[C:3]([H:12])([H:13])[C:4]([H:14])=[C:5]([H:15])[C@:6]1([O:7][H:17])[H:16])([H:8])([H:9])[H:10]>>[C:1]([C@@:2]1([H:11])[C:3]([H:12])([H:13])[C:4][C:5]([H:14])([H:15])[C@:6]1([O:7][H:17])[H:16])([H:8])([H:9])[H:10]"
C        1.86148380      -0.55517039       0.17477250
C        0.53389087       0.11796236       0.47420743
C        0.17109535       1.30225153      -0.44046217
C       -1.31991661       1.34653168      -0.55063927
C       -1.81511913       0.18478008       0.04569193
C       -0.70507242      -0.79599817       0.39115703
O       -0.61784376      -1.81853984      -0.58932915
H        1.87779504      -0.96418897      -0.83698181
H        2.68424243       0.15729433       0.26301394
H        2.05299581      -1.38161980       0.86153821
H        0.55722772       0.50039089       1.50100623
H        0.50285207       1.12867581      -1.47675809
H        0.62320382       2.25099459      -0.14594048
H       -2.07172255       1.45260836       0.58387865
H       -2.82577572      -0.18003100      -0.12154192
H       -0.87564281      -1.32852634       1.32806327
H       -0.63369389      -1.41741514      -1.46167630
17
Frame=12 idx=007823 GeodesicLength=0.4374145302336444 rxn_smarts="[C:1]([C@@:2]1([H:11])[C:3]([H:12])([H:13])[C:4]([H:14])=[C:5]([H:15])[C@:6]1([O:7][H:17])[H:16])([H:8])([H:9])[H:10]>>[C:1]([C@@:2]1([H:11])[C:3]([H:12])([H:13])[C:4][C:5]([H:14])([H:15])[C@:6]1([O:7][H:17])[H:16])([H:8])([H:9])[H:10]"
C        1.86261487      -0.55562539       0.17358409
C        0.53550737       0.11744995       0.47518673
C        0.17288460       1.30239660      -0.43831511
C       -1.31661102       1.34353570      -0.54669521
C       -1.81581774       0.18419048       0.05067519
C       -0.70426499      -0.79596295       0.39239546
O       -0.61530110      -1.81877718      -0.58802365
H        1.87747702      -0.96353574      -0.83863808
H        2.68584643       0.15633858       0.26175334
H        2.05433208      -1.38315202       0.85897951
H        0.55990219       0.49916885       1.50217061
H        0.50272688       1.12893852      -1.47553512
H        0.62489511       2.25143569      -0.14440508
H       -2.08795290       1.46734770       0.57835350
H       -2.82195980      -0.18633625      -0.13046838
H       -0.87287697      -1.32913344       1.32936226
H       -0.64140203      -1.41827910      -1.46038006
17
Frame=13 idx=007823 GeodesicLength=0.4736982303065638 rxn_smarts="[C:1]([C@@:2]1([H:11])[C:3]([H:12])([H:13])[C:4]([H:14])=[C:5]([H:15])[C@:6]1([O:7][H:17])[H:16])([H:8])([H:9])[H:10]>>[C:1]([C@@:2]1([H:11])[C:3]([H:12])([H:13])[C:4][C:5]([H:14])([H:15])[C@:6]1([O:7][H:17])[H:16])([H:8])([H:9])[H:10]"
C        1.86376290      -0.55609238       0.17238444
C        0.53714207       0.11690197       0.47618662
C        0.17466894       1.30253019      -0.43610890
C       -1.31331975       1.34055743      -0.54257938
C       -1.81651588       0.18357529       0.05573740
C       -0.70343730      -0.79596594       0.39362881
O       -0.61275769      -1.81897866      -0.58680286
H        1.87717391      -0.96287594      -0.84030874
H        2.68745893       0.15537995       0.26048440
H        2.05570145      -1.38469691       0.85639977
H        0.56259520       0.49787887       1.50336606
H        0.50253356       1.12920802      -1.47427148
H        0.62659548       2.25185785      -0.14280913
H       -2.10440909       1.48222497       0.57218046
H       -2.81801141      -0.19254837      -0.13905533
H       -0.87007123      -1.32983434       1.33062251
H       -0.64911008      -1.41912202      -1.45905464
17
Frame=14 idx=007823 GeodesicLength=0.509992656334396 rxn_smarts="[C:1]([C@@:2]1([H:11])[C:3]([H:12])([H:13])[C:4]([H:14])=[C:5]([H:15])[C@:6]1([O:7][H:17])[H:16])([H:8])([H:9])[H:10]>>[C:1]([C@@:2]1([H:11])[C:3]([H:12])([H:13])[C:4][C:5]([H:14])([H:15])[C@:6]1([O:7][H:17])[H:16])([H:8])([H:9])[H:10]"
C        1.86493127      -0.55657316       0.17116588
C        0.53879944       0.11631553       0.47721120
C        0.17644958       1.30265340      -0.43383364
C       -1.31004075       1.33759803      -0.53827634
C       -1.81721399       0.18293074       0.06088328
C       -0.70258643      -0.79600804       0.39486534
O       -0.61021237      -1.81914643      -0.58565755
H        1.87688363      -0.96220298      -0.84200590
H        2.68908441       0.15441477       0.25920393
H        2.05710961      -1.38626493       0.85378066
H        0.56531756       0.49651325       1.50459852
H        0.50226977       1.12948929      -1.47295866
H        0.62830694       2.25226065      -0.14113987
H       -2.12112969       1.49727642       0.56531538
H       -2.81392761      -0.19867796      -0.14731297
H       -0.86722073      -1.33062796       1.33185451
H       -0.65682064      -1.41995063      -1.45769377
17
Frame=15 idx=007823 GeodesicLength=0.5462856879012747 rxn_smarts="[C:1]([C@@:2]1([H:11])[C:3]([H:12])([H:13])[C:4]([H:14])=[C:5]([H:15])[C@:6]1([O:7][H:17])[H:16])([H:8])([H:9])[H:10]>>[C:1]([C@@:2]1([H:11])[C:3]([H:12])([H:13])[C:4][C:5]([H:14])([H:15])[C@:6]1([O:7][H:17])[H:16])([H:8])([H:9])[H:10]"
C        1.86612027      -0.55706896       0.16992132
C        0.54048336       0.11569037       0.47826335
C        0.17822783       1.30276944      -0.43147951
C       -1.30677127       1.33465644      -0.53378272
C       -1.81790854       0.18225805       0.06612301
C       -0.70171042      -0.79608752       0.39611424
O       -0.60766572      -1.81928148      -0.58457597
H        1.87660103      -0.96150496      -0.84374133
H        2.69072526       0.15343863       0.25791185
H        2.05855476      -1.38786939       0.85110017
H        0.56807926       0.49506768       1.50587163
H        0.50193815       1.12979382      -1.47158689
H        0.63002770       2.25264631      -0.13937919
H       -2.13812896       1.51249608       0.55769991
H       -2.80970964      -0.20472695      -0.15524391
H       -0.86431946      -1.33150998       1.33306906
H       -0.66454361      -1.42076756      -1.45628502
17
Frame=16 idx=007823 GeodesicLength=0.5825731512405906 rxn_smarts="[C:1]([C@@:2]1([H:11])[C:3]([H:12])([H:13])[C:4]([H:14])=[C:5]([H:15])[C@:6]1([O:7][H:17])[H:16])([H:8])([H:9])[H:10]>>[C:1]([C@@:2]1([H:11])[C:3]([H:12])([H:13])[C:4][C:5]([H:14])([H:15])[C@:6]1([O:7][H:17])[H:16])([H:8])([H:9])[H:10]"
C        1.86733084      -0.55758043       0.16864513
C        0.54219688       0.11502545       0.47934661
C        0.18000384       1.30288012      -0.42903758
C       -1.30351082       1.33173413      -0.52908842
C       -1.81859702       0.18155755       0.07146717
C       -0.70080746      -0.79620388       0.39738259
O       -0.60511781      -1.81938280      -0.58355166
H        1.87632230      -0.96077444      -0.84552363
H        2.69238452       0.15244798       0.25660497
H        2.06003837      -1.38951642       0.84834540
H        0.57088901       0.49353851       1.50718953
H        0.50153630       1.13012806      -1.47014841
H        0.63175964       2.25301474      -0.13751467
H       -2.15541635       1.52787899       0.54928086
H       -2.80536235      -0.21069527      -0.16285010
H       -0.86136317      -1.33248037       1.33427275
H       -0.67228675      -1.42157192      -1.45482055
