11
Frame=0 idx=005938 GeodesicLength=0.0 rxn_smarts="[N:1]([C@@:2]1([H:9])[C:3]([H:10])([H:11])[O:4][C:5]1=[O:6])([H:7])[H:8]>>[N:1]([C@@:2]1([H:9])[C@@:5]2([C:3]([H:10])([H:11])[O:4]2)[O:6]1)([H:7])[H:8]"
N        1.79777261      -0.05574238      -0.21176627
C        0.61977746       0.11940400      -0.70375983
C       -1.51535625      -0.54350656       0.53840389
O       -1.76983553       0.35734003      -0.53828834
C       -0.51771797       0.49355612       0.18615094
O       -0.14490554       1.54564923       0.81498195
H        1.90649913       0.08733653       0.78604738
H        2.61954506      -0.15170254      -0.78481920
H        0.51562486       0.09863360      -1.78679762
H       -1.41699139      -1.59352008       0.25962630
H       -2.09441247      -0.35744792       1.44022075
11
Frame=1 idx=005938 GeodesicLength=0.08146247366044869 rxn_smarts="[N:1]([C@@:2]1([H:9])[C:3]([H:10])([H:11])[O:4][C:5]1=[O:6])([H:7])[H:8]>>[N:1]([C@@:2]1([H:9])[C@@:5]2([C:3]([H:10])([H:11])[O:4]2)[O:6]1)([H:7])[H:8]"
N        1.78193533      -0.09300411      -0.19515902
C        0.60459931       0.11509157      -0.69439597
C       -1.49149479      -0.55106842       0.53483234
O       -1.78569021       0.36244674      -0.52325724
C       -0.53056805       0.53008696       0.17449306
O       -0.13003258       1.59279230       0.76131047
H        1.88936901       0.05733490       0.80142750
H        2.60878841      -0.13428202      -0.76761143
H        0.51056841       0.10447033      -1.77843523
H       -1.40778071      -1.59545490       0.23250255
H       -2.04969414      -0.38841334       1.45429296
11
Frame=2 idx=005938 GeodesicLength=0.1630022721323848 rxn_smarts="[N:1]([C@@:2]1([H:9])[C:3]([H:10])([H:11])[O:4][C:5]1=[O:6])([H:7])[H:8]>>[N:1]([C@@:2]1([H:9])[C@@:5]2([C:3]([H:10])([H:11])[O:4]2)[O:6]1)([H:7])[H:8]"
N        1.76667916      -0.12521025      -0.17947815
C        0.58943299       0.11149295      -0.68483165
C       -1.46760221      -0.55877593       0.53042033
O       -1.80069362       0.36866771      -0.50616417
C       -0.54256164       0.56419130       0.16397834
O       -0.11483374       1.63691846       0.70617806
H        1.87232247       0.02976959       0.81631590
H        2.59708075      -0.11945685      -0.74846466
H        0.50519866       0.10893418      -1.76966554
H       -1.40219031      -1.59698066       0.20436301
H       -2.00283250      -0.41955049       1.46734855
11
Frame=3 idx=005938 GeodesicLength=0.2445726677872317 rxn_smarts="[N:1]([C@@:2]1([H:9])[C:3]([H:10])([H:11])[O:4][C:5]1=[O:6])([H:7])[H:8]>>[N:1]([C@@:2]1([H:9])[C@@:5]2([C:3]([H:10])([H:11])[O:4]2)[O:6]1)([H:7])[H:8]"
N        1.75209126      -0.15351697      -0.16439986
C        0.57435836       0.10843771      -0.67499040
C       -1.44401373      -0.56658708       0.52514546
O       -1.81485176       0.37592633      -0.48712621
C       -0.55372613       0.59608735       0.15474739
O       -0.09948899       1.67801593       0.64975391
H        1.85568100       0.00458631       0.83086601
H        2.58486926      -0.10629100      -0.72822291
H        0.49952822       0.11208509      -1.76046889
H       -1.40000081      -1.59797065       0.17562095
H       -1.95444669      -0.45077302       1.47907456
11
Frame=4 idx=005938 GeodesicLength=0.3261691400480779 rxn_smarts="[N:1]([C@@:2]1([H:9])[C:3]([H:10])([H:11])[O:4][C:5]1=[O:6])([H:7])[H:8]>>[N:1]([C@@:2]1([H:9])[C@@:5]2([C:3]([H:10])([H:11])[O:4]2)[O:6]1)([H:7])[H:8]"
N        1.73818387      -0.17869962      -0.14971935
C        0.55943159       0.10588985      -0.66485073
C       -1.42092976      -0.57446332       0.51900321
O       -1.82815956       0.38413414      -0.46622482
C       -0.56408216       0.62603846       0.14686440
O       -0.08419975       1.71612002       0.59214110
H        1.83960823      -0.01834195       0.84516441
H        2.57237988      -0.09433388      -0.70736443
H        0.49356257       0.11404785      -1.75085539
H       -1.40083471      -1.59830107       0.14660024
H       -1.90496021      -0.48209048       1.48924135
11
Frame=5 idx=005938 GeodesicLength=0.4077938087724563 rxn_smarts="[N:1]([C@@:2]1([H:9])[C:3]([H:10])([H:11])[O:4][C:5]1=[O:6])([H:7])[H:8]>>[N:1]([C@@:2]1([H:9])[C@@:5]2([C:3]([H:10])([H:11])[O:4]2)[O:6]1)([H:7])[H:8]"
N        1.72495117      -0.20131399      -0.13531255
C        0.54469891       0.10383789      -0.65442919
C       -1.39848350      -0.58235375       0.51201784
O       -1.84060628       0.39319187      -0.44352755
C       -0.57364063       0.65430457       0.14033551
O       -0.06915944       1.75126231       0.53342835
H        1.82417248      -0.03924678       0.85927589
H        2.55976193      -0.08324382      -0.68617817
H        0.48730836       0.11492630      -1.74086802
H       -1.40429756      -1.59785929       0.11757157
H       -1.85470543      -0.51350532       1.49768632
11
Frame=6 idx=005938 GeodesicLength=0.4894561148907451 rxn_smarts="[N:1]([C@@:2]1([H:9])[C:3]([H:10])([H:11])[O:4][C:5]1=[O:6])([H:7])[H:8]>>[N:1]([C@@:2]1([H:9])[C@@:5]2([C:3]([H:10])([H:11])[O:4]2)[O:6]1)([H:7])[H:8]"
N        1.71237948      -0.22178077      -0.12111939
C        0.53019457       0.10226766      -0.64376812
C       -1.37675990      -0.59019027       0.50423325
O       -1.85217641       0.40300219      -0.41908630
C       -0.58240616       0.68113361       0.13511977
O       -0.05454341       1.78345751       0.47370438
H        1.80936819      -0.05845006       0.87324148
H        2.54712513      -0.07268956      -0.66481992
H        0.48076746       0.11478921      -1.73056579
H       -1.40998644      -1.59655091       0.08877549
H       -1.80396251      -0.54498861       1.50428517
11
Frame=7 idx=005938 GeodesicLength=0.5711732715960789 rxn_smarts="[N:1]([C@@:2]1([H:9])[C:3]([H:10])([H:11])[O:4][C:5]1=[O:6])([H:7])[H:8]>>[N:1]([C@@:2]1([H:9])[C@@:5]2([C:3]([H:10])([H:11])[O:4]2)[O:6]1)([H:7])[H:8]"
N        1.70044204      -0.24041463      -0.10710454
C        0.51594785       0.10118266      -0.63292380
C       -1.35579975      -0.59790531       0.49570584
O       -1.86284473       0.41346399      -0.39293941
C       -0.59037931       0.70675717       0.13113979
O       -0.04053188       1.81272248       0.41306363
H        1.79515004      -0.07624314       0.88709349
H        2.53454129      -0.06245585      -0.64336911
H        0.47395101       0.11370665      -1.72001783
H       -1.41753648      -1.59430222       0.06039358
H       -1.75294008      -0.57651182       1.50895836
11
Frame=8 idx=005938 GeodesicLength=0.6529183288381462 rxn_smarts="[N:1]([C@@:2]1([H:9])[C:3]([H:10])([H:11])[O:4][C:5]1=[O:6])([H:7])[H:8]>>[N:1]([C@@:2]1([H:9])[C@@:5]2([C:3]([H:10])([H:11])[O:4]2)[O:6]1)([H:7])[H:8]"
N        1.68915234      -0.25745299      -0.09326300
C        0.50200268       0.10058000      -0.62198783
C       -1.33567126      -0.60544483       0.48651674
O       -1.87262441       0.42446720      -0.36511323
C       -0.59755504       0.73138510       0.12829300
O       -0.02725154       1.83908803       0.35160814
H        1.78148131      -0.09290689       0.90088364
H        2.52214085      -0.05230137      -0.62185478
H        0.46689940       0.11171913      -1.70936237
H       -1.42672571      -1.59107813       0.03255828
H       -1.70184862      -0.60805526       1.51172141
11
Frame=9 idx=005938 GeodesicLength=0.7347784894023754 rxn_smarts="[N:1]([C@@:2]1([H:9])[C:3]([H:10])([H:11])[O:4][C:5]1=[O:6])([H:7])[H:8]>>[N:1]([C@@:2]1([H:9])[C@@:5]2([C:3]([H:10])([H:11])[O:4]2)[O:6]1)([H:7])[H:8]"
N        1.67840259      -0.27313442      -0.07960525
C        0.48834047       0.10044640      -0.61099425
C       -1.31624784      -0.61268892       0.47668876
O       -1.88140000       0.43590578      -0.33566558
C       -0.60396500       0.75518904       0.12637710
O       -0.01496813       1.86245901       0.28953684
H        1.76817053      -0.10882168       0.91454373
H        2.50980288      -0.04206639      -0.60021933
H        0.45960594       0.10890630      -1.69854380
H       -1.43707502      -1.58678935       0.00547265
H       -1.65066643      -0.63940577       1.51240914
11
Frame=10 idx=005938 GeodesicLength=0.8166522764727534 rxn_smarts="[N:1]([C@@:2]1([H:9])[C:3]([H:10])([H:11])[O:4][C:5]1=[O:6])([H:7])[H:8]>>[N:1]([C@@:2]1([H:9])[C@@:5]2([C:3]([H:10])([H:11])[O:4]2)[O:6]1)([H:7])[H:8]"
N        1.66824138      -0.28756665      -0.06612032
C        0.47502423       0.10082691      -0.60002851
C       -1.29759431      -0.61962895       0.46631734
O       -1.88920133       0.44764125      -0.30461625
C       -0.60962404       0.77833314       0.12529824
O       -0.00381971       1.88293093       0.22704362
H        1.75529590      -0.12396366       0.92811788
H        2.49769938      -0.03188041      -0.57855940
H        0.45215971       0.10535900      -1.68771263
H       -1.44848350      -1.58147272      -0.02082396
H       -1.59969769      -0.67057885       1.51108398
11
Frame=11 idx=005938 GeodesicLength=0.8985448164065828 rxn_smarts="[N:1]([C@@:2]1([H:9])[C:3]([H:10])([H:11])[O:4][C:5]1=[O:6])([H:7])[H:8]>>[N:1]([C@@:2]1([H:9])[C@@:5]2([C:3]([H:10])([H:11])[O:4]2)[O:6]1)([H:7])[H:8]"
N        1.65862756      -0.30092353      -0.05287311
C        0.46204925       0.10168311      -0.58918548
C       -1.27968446      -0.62618965       0.45548685
O       -1.89594179       0.45957087      -0.27206253
C       -0.61453383       0.80095776       0.12485868
O        0.00613734       1.90049319       0.16434989
H        1.74273493      -0.13868911       0.94158761
H        2.48580875      -0.02144933      -0.55680822
H        0.44458147       0.10112743      -1.67697113
H       -1.46063669      -1.57517231      -0.04614870
H       -1.54914254      -0.70140843       1.50776614
11
Frame=12 idx=005938 GeodesicLength=0.9804693682096921 rxn_smarts="[N:1]([C@@:2]1([H:9])[C:3]([H:10])([H:11])[O:4][C:5]1=[O:6])([H:7])[H:8]>>[N:1]([C@@:2]1([H:9])[C@@:5]2([C:3]([H:10])([H:11])[O:4]2)[O:6]1)([H:7])[H:8]"
N        1.64949198      -0.31327320      -0.03979535
C        0.44944842       0.10307555      -0.57849489
C       -1.26243924      -0.63235827       0.44422538
O       -1.90156764       0.47157910      -0.23793792
C       -0.61872787       0.82317050       0.12490481
O        0.01467303       1.91524469       0.10153545
H        1.73040847      -0.15292763       0.95496041
H        2.47415430      -0.01106087      -0.53497681
H        0.43696580       0.09630684      -1.66631045
H       -1.47348221      -1.56782555      -0.07056600
H       -1.49892504      -0.73193116       1.50245537
11
Frame=13 idx=005938 GeodesicLength=1.0624617281390116 rxn_smarts="[N:1]([C@@:2]1([H:9])[C:3]([H:10])([H:11])[O:4][C:5]1=[O:6])([H:7])[H:8]>>[N:1]([C@@:2]1([H:9])[C@@:5]2([C:3]([H:10])([H:11])[O:4]2)[O:6]1)([H:7])[H:8]"
N        1.64082969      -0.32477099      -0.02695602
C        0.43720883       0.10491977      -0.56806736
C       -1.24585613      -0.63807363       0.43257574
O       -1.90605516       0.48364357      -0.20222982
C       -0.62222829       0.84510734       0.12522949
O        0.02177336       1.92726768       0.03869676
H        1.71815215      -0.16710107       0.96824503
H        2.46274787      -0.00028796      -0.51285293
H        0.42932273       0.09082445      -1.65584900
H       -1.48689736      -1.55948989      -0.09400507
H       -1.44899769      -0.76203925       1.49521319
11
Frame=14 idx=005938 GeodesicLength=1.1446066006260238 rxn_smarts="[N:1]([C@@:2]1([H:9])[C:3]([H:10])([H:11])[O:4][C:5]1=[O:6])([H:7])[H:8]>>[N:1]([C@@:2]1([H:9])[C@@:5]2([C:3]([H:10])([H:11])[O:4]2)[O:6]1)([H:7])[H:8]"
N        1.63262173      -0.33544917      -0.01425421
C        0.42534334       0.10725686      -0.55795167
C       -1.22989692      -0.64337666       0.42057595
O       -1.90934010       0.49568571      -0.16487728
C       -0.62502546       0.86684492       0.12567801
O        0.02734517       1.93669023      -0.02420847
H        1.70597920      -0.18115432       0.98154814
H        2.45163154       0.01072869      -0.49040224
H        0.42167158       0.08477424      -1.64566362
H       -1.50102528      -1.55012618      -0.11654036
H       -1.39930480      -0.79187433       1.48609576
11
Frame=15 idx=005938 GeodesicLength=1.2269209697598409 rxn_smarts="[N:1]([C@@:2]1([H:9])[C:3]([H:10])([H:11])[O:4][C:5]1=[O:6])([H:7])[H:8]>>[N:1]([C@@:2]1([H:9])[C@@:5]2([C:3]([H:10])([H:11])[O:4]2)[O:6]1)([H:7])[H:8]"
N        1.62473064      -0.34543288      -0.00180697
C        0.41382485       0.10998212      -0.54811970
C       -1.21438747      -0.64808772       0.40821928
O       -1.91116939       0.50767897      -0.12575769
C       -0.62720720       0.88841835       0.12613627
O        0.03111246       1.94337935      -0.08697938
H        1.69358203      -0.19526212       0.99459944
H        2.44058314       0.02202834      -0.46751476
H        0.41412487       0.07804898      -1.63552174
H       -1.51530234      -1.53958226      -0.13810603
H       -1.34989159      -0.82117114       1.47485128
11
Frame=16 idx=005938 GeodesicLength=1.3093226005767162 rxn_smarts="[N:1]([C@@:2]1([H:9])[C:3]([H:10])([H:11])[O:4][C:5]1=[O:6])([H:7])[H:8]>>[N:1]([C@@:2]1([H:9])[C@@:5]2([C:3]([H:10])([H:11])[O:4]2)[O:6]1)([H:7])[H:8]"
N        1.61724549      -0.35471584       0.01050887
C        0.40268964       0.11317596      -0.53868903
C       -1.19945303      -0.65237598       0.39557605
O       -1.91155794       0.51947640      -0.08496288
C       -0.62876492       0.90992507       0.12642666
O        0.03320963       1.94763494      -0.14956932
H        1.68117210      -0.20928166       1.00764409
H        2.42982617       0.03350094      -0.44425563
H        0.40671826       0.07086159      -1.62571358
H       -1.53019117      -1.52806934      -0.15870276
H       -1.30089422      -0.85013207       1.46173752
