9
Frame=0 idx=005105 GeodesicLength=0.0 rxn_smarts="[O:1]([c:2]1[n:3][n:4]([H:8])[n:5][c:6]1[H:9])[H:7]>>[N:5]#[C:6][H:9].[O:1]([C:2]#[N+:3][N-:4][H:8])[H:7]"
O       -2.05228104      -0.37312083      -0.07113478
C       -0.76128275      -0.18041574       0.11818942
N        0.16797685      -0.97966310       0.26714165
N        1.38670915      -1.05133733       0.01983133
N        1.56182509       1.30661677      -0.20833236
C        0.42567710       1.57711763      -0.25778675
H       -2.24023020      -1.27637234      -0.35519524
H        1.88750252      -1.29928578       0.87823361
H       -0.37589669       2.27646072      -0.39094689
9
Frame=1 idx=005105 GeodesicLength=0.04071941929180964 rxn_smarts="[O:1]([c:2]1[n:3][n:4]([H:8])[n:5][c:6]1[H:9])[H:7]>>[N:5]#[C:6][H:9].[O:1]([C:2]#[N+:3][N-:4][H:8])[H:7]"
O       -2.05502403      -0.37217754      -0.07056665
C       -0.76184396      -0.17598131       0.10764804
N        0.16236972      -0.98381061       0.26186452
N        1.38573044      -1.03159667       0.02097467
N        1.56830752       1.29978049      -0.21273682
C        0.42895867       1.57796989      -0.21867815
H       -2.24212147      -1.27763760      -0.34777809
H        1.88855254      -1.29685596       0.87222044
H       -0.37492943       2.26030931      -0.41294796
9
Frame=2 idx=005105 GeodesicLength=0.08167174207917563 rxn_smarts="[O:1]([c:2]1[n:3][n:4]([H:8])[n:5][c:6]1[H:9])[H:7]>>[N:5]#[C:6][H:9].[O:1]([C:2]#[N+:3][N-:4][H:8])[H:7]"
O       -2.05765036      -0.37108853      -0.06868290
C       -0.76226198      -0.17152161       0.09760315
N        0.15705526      -0.98786434       0.25589215
N        1.38479902      -1.01181057       0.02277303
N        1.57345620       1.29398489      -0.21470615
C        0.43160066       1.57753075      -0.18655329
H       -2.24380341      -1.27803998      -0.34131178
H        1.88956660      -1.29438415       0.86648918
H       -0.37276199       2.24319354      -0.43150339
9
Frame=3 idx=005105 GeodesicLength=0.12270111863682269 rxn_smarts="[O:1]([c:2]1[n:3][n:4]([H:8])[n:5][c:6]1[H:9])[H:7]>>[N:5]#[C:6][H:9].[O:1]([C:2]#[N+:3][N-:4][H:8])[H:7]"
O       -2.06011765      -0.36970432      -0.06516844
C       -0.76249254      -0.16703072       0.08829943
N        0.15221239      -0.99188341       0.24845553
N        1.38406172      -0.99168121       0.02439106
N        1.57800599       1.29009384      -0.20932378
C        0.43321876       1.57619748      -0.16110046
H       -2.24556711      -1.27783664      -0.33400807
H        1.89068903      -1.29360784       0.85946563
H       -0.37001059       2.22545280      -0.45101089
9
Frame=4 idx=005105 GeodesicLength=0.1637800892100657 rxn_smarts="[O:1]([c:2]1[n:3][n:4]([H:8])[n:5][c:6]1[H:9])[H:7]>>[N:5]#[C:6][H:9].[O:1]([C:2]#[N+:3][N-:4][H:8])[H:7]"
O       -2.06248413      -0.36797535      -0.06021437
C       -0.76257831      -0.16252214       0.07919146
N        0.14787947      -0.99584742       0.23877626
N        1.38357713      -0.97096468       0.02544901
N        1.58232179       1.28840493      -0.19495108
C        0.43359853       1.57467549      -0.13990096
H       -2.24775051      -1.27744754      -0.32429307
H        1.89186885      -1.29505621       0.85036017
H       -0.36643284       2.20673292      -0.47441742
9
Frame=5 idx=005105 GeodesicLength=0.2049177631900786 rxn_smarts="[O:1]([c:2]1[n:3][n:4]([H:8])[n:5][c:6]1[H:9])[H:7]>>[N:5]#[C:6][H:9].[O:1]([C:2]#[N+:3][N-:4][H:8])[H:7]"
O       -2.06473068      -0.36600798      -0.05485872
C       -0.76257937      -0.15808067       0.06955569
N        0.14389948      -0.99973188       0.22726254
N        1.38316598      -0.95001311       0.02662276
N        1.58639939       1.28789048      -0.17566417
C        0.43305385       1.57305943      -0.12152669
H       -2.25025399      -1.27718363      -0.31247525
H        1.89295521      -1.29745709       0.84023177
H       -0.36190986       2.18752445      -0.49914793
9
Frame=6 idx=005105 GeodesicLength=0.246190911771736 rxn_smarts="[O:1]([c:2]1[n:3][n:4]([H:8])[n:5][c:6]1[H:9])[H:7]>>[N:5]#[C:6][H:9].[O:1]([C:2]#[N+:3][N-:4][H:8])[H:7]"
O       -2.06694752      -0.36371575      -0.04844688
C       -0.76257314      -0.15364892       0.05959976
N        0.14037311      -1.00351008       0.21292824
N        1.38291042      -0.92835892       0.02735386
N        1.58996143       1.28923435      -0.14814924
C        0.43118385       1.57179633      -0.10487458
H       -2.25324785      -1.27702177      -0.29748047
H        1.89402735      -1.30155416       0.82782287
H       -0.35568766       2.16677893      -0.52875356
9
Frame=7 idx=005105 GeodesicLength=0.28756654669114345 rxn_smarts="[O:1]([c:2]1[n:3][n:4]([H:8])[n:5][c:6]1[H:9])[H:7]>>[N:5]#[C:6][H:9].[O:1]([C:2]#[N+:3][N-:4][H:8])[H:7]"
O       -2.06901205      -0.36132342      -0.04204266
C       -0.76265506      -0.14925927       0.05013277
N        0.13705628      -1.00718603       0.19739354
N        1.38244578      -0.90678957       0.02882955
N        1.59279353       1.29068930      -0.11989592
C        0.42855880       1.57042691      -0.08963794
H       -2.25598299      -1.27679486      -0.28210973
H        1.89505499      -1.30547471       0.81512032
H       -0.34825927       2.14571165      -0.55778994
9
Frame=8 idx=005105 GeodesicLength=0.32898592371796576 rxn_smarts="[O:1]([c:2]1[n:3][n:4]([H:8])[n:5][c:6]1[H:9])[H:7]>>[N:5]#[C:6][H:9].[O:1]([C:2]#[N+:3][N-:4][H:8])[H:7]"
O       -2.07088015      -0.35908320      -0.03599231
C       -0.76286903      -0.14488304       0.04213562
N        0.13369215      -1.01070805       0.18319043
N        1.38133610      -0.88622017       0.03188626
N        1.59525066       1.29082013      -0.09735092
C        0.42595536       1.56852454      -0.07585149
H       -2.25783538      -1.27603717      -0.26996036
H        1.89638619      -1.30781131       0.80366228
H       -0.34103590       2.12539826      -0.58171951
9
Frame=9 idx=005105 GeodesicLength=0.37052778222489047 rxn_smarts="[O:1]([c:2]1[n:3][n:4]([H:8])[n:5][c:6]1[H:9])[H:7]>>[N:5]#[C:6][H:9].[O:1]([C:2]#[N+:3][N-:4][H:8])[H:7]"
O       -2.07264329      -0.35675933      -0.02990672
C       -0.76309398      -0.14055741       0.03353065
N        0.13062831      -1.01410383       0.16662686
N        1.38015072      -0.86555271       0.03545835
N        1.59714142       1.29145839      -0.07242315
C        0.42270981       1.56676079      -0.06291976
H       -2.25976380      -1.27561119      -0.25577601
H        1.89734336      -1.31032969       0.79178974
H       -0.33247256       2.10469496      -0.60637994
9
Frame=10 idx=005105 GeodesicLength=0.41214498695246776 rxn_smarts="[O:1]([c:2]1[n:3][n:4]([H:8])[n:5][c:6]1[H:9])[H:7]>>[N:5]#[C:6][H:9].[O:1]([C:2]#[N+:3][N-:4][H:8])[H:7]"
O       -2.07428048      -0.35454284      -0.02395203
C       -0.76346071      -0.13615094       0.02647081
N        0.12758362      -1.01726476       0.15066995
N        1.37838175      -0.84559635       0.04012668
N        1.59877788       1.29139506      -0.05059811
C        0.41941438       1.56475130      -0.05101394
H       -2.26101670      -1.27484938      -0.24373001
H        1.89855489      -1.31199277       0.78035288
H       -0.32395463       2.08425068      -0.62832621
9
Frame=11 idx=005105 GeodesicLength=0.45394768605677743 rxn_smarts="[O:1]([c:2]1[n:3][n:4]([H:8])[n:5][c:6]1[H:9])[H:7]>>[N:5]#[C:6][H:9].[O:1]([C:2]#[N+:3][N-:4][H:8])[H:7]"
O       -2.07584035      -0.35232094      -0.01729532
C       -0.76390101      -0.13166904       0.01979154
N        0.12488988      -1.02017453       0.13200592
N        1.37645025      -0.82544549       0.04533103
N        1.59974965       1.29190708      -0.02601337
C        0.41548373       1.56299881      -0.03991298
H       -2.26215530      -1.27419275      -0.23035342
H        1.89938089      -1.31399689       0.76823611
H       -0.31405775       2.06289376      -0.65178950
9
Frame=12 idx=005105 GeodesicLength=0.49596554017540095 rxn_smarts="[O:1]([c:2]1[n:3][n:4]([H:8])[n:5][c:6]1[H:9])[H:7]>>[N:5]#[C:6][H:9].[O:1]([C:2]#[N+:3][N-:4][H:8])[H:7]"
O       -2.07732947      -0.35006519      -0.01074291
C       -0.76444743      -0.12707701       0.01283318
N        0.12252553      -1.02262923       0.11021378
N        1.37422272      -0.80511970       0.05101244
N        1.59995736       1.29295055       0.00169472
C        0.41096382       1.56157430      -0.02944267
H       -2.26315117      -1.27408504      -0.21430176
H        1.89963538      -1.31621483       0.75539042
H       -0.30237675       2.04066615      -0.67665721
9
Frame=13 idx=005105 GeodesicLength=0.5383237025257074 rxn_smarts="[O:1]([c:2]1[n:3][n:4]([H:8])[n:5][c:6]1[H:9])[H:7]>>[N:5]#[C:6][H:9].[O:1]([C:2]#[N+:3][N-:4][H:8])[H:7]"
O       -2.07878772      -0.34782765      -0.00427496
C       -0.76517775      -0.12226311       0.00589217
N        0.12052045      -1.02438831       0.08472627
N        1.37155858      -0.78449875       0.05718776
N        1.59918181       1.29460067       0.03320717
C        0.40582315       1.56062357      -0.01961988
H       -2.26381813      -1.27460318      -0.19520279
H        1.89919640      -1.31875172       0.74152246
H       -0.28849679       2.01710847      -0.70343819
9
Frame=14 idx=005105 GeodesicLength=0.5810776571443672 rxn_smarts="[O:1]([c:2]1[n:3][n:4]([H:8])[n:5][c:6]1[H:9])[H:7]>>[N:5]#[C:6][H:9].[O:1]([C:2]#[N+:3][N-:4][H:8])[H:7]"
O       -2.08037073      -0.34559082       0.00071420
C       -0.76628113      -0.11701821      -0.00071299
N        0.11872968      -1.02496421       0.05625802
N        1.36810253      -0.76366011       0.06361580
N        1.59707585       1.29662755       0.06890780
C        0.40010424       1.56025573      -0.01032770
H       -2.26384732      -1.27609068      -0.17215709
H        1.89830104      -1.32145484       0.72586028
H       -0.27181416       1.99189559      -0.73215831
9
Frame=15 idx=005105 GeodesicLength=0.6242898394742814 rxn_smarts="[O:1]([c:2]1[n:3][n:4]([H:8])[n:5][c:6]1[H:9])[H:7]>>[N:5]#[C:6][H:9].[O:1]([C:2]#[N+:3][N-:4][H:8])[H:7]"
O       -2.08186649      -0.34368985       0.00423876
C       -0.76755047      -0.11150375      -0.00908773
N        0.11737215      -1.02427504       0.02286345
N        1.36389364      -0.74279512       0.07083116
N        1.59366748       1.29874876       0.10748430
C        0.39398665       1.56034178      -0.00154021
H       -2.26295122      -1.27884883      -0.14362327
H        1.89586092      -1.32412950       0.71002563
H       -0.25241266       1.96615155      -0.76119210
9
Frame=16 idx=005105 GeodesicLength=0.6679955506740278 rxn_smarts="[O:1]([c:2]1[n:3][n:4]([H:8])[n:5][c:6]1[H:9])[H:7]>>[N:5]#[C:6][H:9].[O:1]([C:2]#[N+:3][N-:4][H:8])[H:7]"
O       -2.08389622      -0.34207053       0.00574865
C       -0.76953442      -0.10522378      -0.01179596
N        0.11552053      -1.02197959      -0.00743975
N        1.35827118      -0.72249179       0.07871307
N        1.58964766       1.30024709       0.14433842
C        0.38806639       1.56075174       0.00629679
H       -2.26077335      -1.28138566      -0.11818885
H        1.89483568      -1.32628436       0.69165761
H       -0.23213745       1.93843687      -0.78933000
