13
Frame=0 idx=004532 GeodesicLength=0.0 rxn_smarts="[C:1]([C@@:2]1([H:10])[C:3]([H:11])([H:12])[N:4]=[C:5]([H:13])[O:6]1)([H:7])([H:8])[H:9]>>[C:1]([C@@:2]1([H:10])[C:3]([H:11])([H:12])[N:4]([H:13])[C-:5]=[O+:6]1)([H:7])([H:8])[H:9]"
C        1.56100184       0.49127398       0.15884847
C        0.31720727       0.01412503      -0.55255991
C       -0.53900430      -0.99573920       0.20582518
N       -1.90843452      -0.43807422       0.10942024
C       -1.82830128       0.78939823      -0.39033755
O       -0.59437565       1.14556606      -0.72910292
H        2.05395790       1.27993101      -0.40945202
H        1.30824800       0.88298903       1.14589726
H        2.26485318      -0.33399978       0.28335090
H        0.56001937      -0.34482150      -1.55525210
H       -0.53123134      -1.99005418      -0.23782577
H       -0.25953472      -1.08893517       1.25756045
H       -2.40440578       0.58834071       0.71362782
13
Frame=1 idx=004532 GeodesicLength=0.029104115746283882 rxn_smarts="[C:1]([C@@:2]1([H:10])[C:3]([H:11])([H:12])[N:4]=[C:5]([H:13])[O:6]1)([H:7])([H:8])[H:9]>>[C:1]([C@@:2]1([H:10])[C:3]([H:11])([H:12])[N:4]([H:13])[C-:5]=[O+:6]1)([H:7])([H:8])[H:9]"
C        1.55917036       0.49241152       0.15973371
C        0.31814283       0.01252607      -0.55480249
C       -0.53838056      -0.99701299       0.20500810
N       -1.90404603      -0.43297380       0.11766282
C       -1.82625642       0.78830518      -0.39071494
O       -0.59319493       1.14273653      -0.73572977
H        2.05312201       1.28049740      -0.40853236
H        1.30335437       0.88539109       1.14549142
H        2.26372284      -0.33181244       0.28746145
H        0.56484296      -0.34817362      -1.55585328
H       -0.53683277      -1.98954011      -0.24316308
H       -0.25188118      -1.09634799       1.25429448
H       -2.41176348       0.59399314       0.71914394
13
Frame=2 idx=004532 GeodesicLength=0.05822204562734489 rxn_smarts="[C:1]([C@@:2]1([H:10])[C:3]([H:11])([H:12])[N:4]=[C:5]([H:13])[O:6]1)([H:7])([H:8])[H:9]>>[C:1]([C@@:2]1([H:10])[C:3]([H:11])([H:12])[N:4]([H:13])[C-:5]=[O+:6]1)([H:7])([H:8])[H:9]"
C        1.55734479       0.49355429       0.16061145
C        0.31910511       0.01091075      -0.55704309
C       -0.53774179      -0.99828876       0.20420743
N       -1.89951373      -0.42776375       0.12604463
C       -1.82417967       0.78719610      -0.39108990
O       -0.59200599       1.13986201      -0.74235996
H        2.05226974       1.28109169      -0.40760594
H        1.29845038       0.88777441       1.14507137
H        2.26260437      -0.32960150       0.29156076
H        0.56969934      -0.35155079      -1.55642720
H       -0.54255434      -1.98896166      -0.24848910
H       -0.24416989      -1.10383885       1.25093702
H       -2.41930833       0.59961607       0.72458251
13
Frame=3 idx=004532 GeodesicLength=0.08735994028661037 rxn_smarts="[C:1]([C@@:2]1([H:10])[C:3]([H:11])([H:12])[N:4]=[C:5]([H:13])[O:6]1)([H:7])([H:8])[H:9]>>[C:1]([C@@:2]1([H:10])[C:3]([H:11])([H:12])[N:4]([H:13])[C-:5]=[O+:6]1)([H:7])([H:8])[H:9]"
C        1.55551517       0.49470829       0.16148624
C        0.32009787       0.00927045      -0.55928570
C       -0.53708786      -0.99957291       0.20341512
N       -1.89482397      -0.42242374       0.13459891
C       -1.82206619       0.78606791      -0.39145920
O       -0.59080976       1.13692254      -0.74902257
H        2.05138943       1.28171907      -0.40666840
H        1.29350584       0.89014901       1.14463355
H        2.26149440      -0.32734980       0.29566780
H        0.57460816      -0.35496801      -1.55697000
H       -0.54842350      -1.98831512      -0.25382631
H       -0.23638529      -1.11143852       1.24746877
H       -2.42701431       0.60523083       0.72996179
13
Frame=4 idx=004532 GeodesicLength=0.1165200304975833 rxn_smarts="[C:1]([C@@:2]1([H:10])[C:3]([H:11])([H:12])[N:4]=[C:5]([H:13])[O:6]1)([H:7])([H:8])[H:9]>>[C:1]([C@@:2]1([H:10])[C:3]([H:11])([H:12])[N:4]([H:13])[C-:5]=[O+:6]1)([H:7])([H:8])[H:9]"
C        1.55368063       0.49588074       0.16236162
C        0.32112469       0.00759874      -0.56153563
C       -0.53642021      -1.00087379       0.20262522
N       -1.88997350      -0.41693751       0.14334908
C       -1.81991490       0.78492459      -0.39181800
O       -0.58960653       1.13391042      -0.75574175
H        2.05047943       1.28239064      -0.40571645
H        1.28850836       0.89252796       1.14417662
H        2.26039550      -0.32504837       0.29980227
H        0.57957949      -0.35844101      -1.55748183
H       -0.55446671      -1.98760730      -0.25919149
H       -0.22851067      -1.11917089       1.24387683
H       -2.43487558       0.61084578       0.73529352
13
Frame=5 idx=004532 GeodesicLength=0.1457178100304346 rxn_smarts="[C:1]([C@@:2]1([H:10])[C:3]([H:11])([H:12])[N:4]=[C:5]([H:13])[O:6]1)([H:7])([H:8])[H:9]>>[C:1]([C@@:2]1([H:10])[C:3]([H:11])([H:12])[N:4]([H:13])[C-:5]=[O+:6]1)([H:7])([H:8])[H:9]"
C        1.55183078       0.49707186       0.16323806
C        0.32218633       0.00589107      -0.56379596
C       -0.53573908      -1.00218993       0.20183535
N       -1.88491919      -0.41129641       0.15232584
C       -1.81771483       0.78375694      -0.39216611
O       -0.58839667       1.13081324      -0.76252961
H        2.04952749       1.28310691      -0.40474905
H        1.28343403       0.89491482       1.14369670
H        2.25929761      -0.32269144       0.30397603
H        0.58462002      -0.36197769      -1.55796309
H       -0.56070056      -1.98680719      -0.26459006
H       -0.22054705      -1.12706007       1.24014285
H       -2.44287887       0.61646787       0.74057904
13
Frame=6 idx=004532 GeodesicLength=0.1749367738724109 rxn_smarts="[C:1]([C@@:2]1([H:10])[C:3]([H:11])([H:12])[N:4]=[C:5]([H:13])[O:6]1)([H:7])([H:8])[H:9]>>[C:1]([C@@:2]1([H:10])[C:3]([H:11])([H:12])[N:4]([H:13])[C-:5]=[O+:6]1)([H:7])([H:8])[H:9]"
C        1.54997997       0.49826993       0.16410996
C        0.32328098       0.00416152      -0.56605921
C       -0.53504017      -1.00350606       0.20105769
N       -1.87968666      -0.40549982       0.16148235
C       -1.81546990       0.78257258      -0.39250317
O       -0.58717451       1.12765372      -0.76934176
H        2.04854494       1.28385193      -0.40377267
H        1.27833029       0.89728342       1.14319900
H        2.25820456      -0.32029926       0.30815467
H        0.58970719      -0.36555280      -1.55841297
H       -0.56709476      -1.98592950      -0.26998488
H       -0.21249654      -1.13504618       1.23628911
H       -2.45108537       0.62204052       0.74578186
13
Frame=7 idx=004532 GeodesicLength=0.20419670087385505 rxn_smarts="[C:1]([C@@:2]1([H:10])[C:3]([H:11])([H:12])[N:4]=[C:5]([H:13])[O:6]1)([H:7])([H:8])[H:9]>>[C:1]([C@@:2]1([H:10])[C:3]([H:11])([H:12])[N:4]([H:13])[C-:5]=[O+:6]1)([H:7])([H:8])[H:9]"
C        1.54812597       0.49948628       0.16498135
C        0.32441371       0.00240025      -0.56833109
C       -0.53432949      -1.00483446       0.20028385
N       -1.87425414      -0.39953575       0.17085442
C       -1.81318155       0.78137225      -0.39282132
O       -0.58594539       1.12441820      -0.77620877
H        2.04753778       1.28463672      -0.40278782
H        1.27317009       0.89966260       1.14267695
H        2.25712051      -0.31785971       0.31236545
H        0.59486152      -0.36918806      -1.55883036
H       -0.57368138      -1.98496639      -0.27539945
H       -0.20435660      -1.14317720       1.23229276
H       -2.45948104       0.62758525       0.75092404
13
Frame=8 idx=004532 GeodesicLength=0.23350532402661364 rxn_smarts="[C:1]([C@@:2]1([H:10])[C:3]([H:11])([H:12])[N:4]=[C:5]([H:13])[O:6]1)([H:7])([H:8])[H:9]>>[C:1]([C@@:2]1([H:10])[C:3]([H:11])([H:12])[N:4]([H:13])[C-:5]=[O+:6]1)([H:7])([H:8])[H:9]"
C        1.54626168       0.50072434       0.16585531
C        0.32558826       0.00060211      -0.57061420
C       -0.53360484      -1.00617698       0.19951011
N       -1.86859978      -0.39338253       0.18047475
C       -1.81084045       0.78015148      -0.39311727
O       -0.58470734       1.12109272      -0.78314843
H        2.04649665       1.28546086      -0.40179407
H        1.26793566       0.90205984       1.14212674
H        2.25603729      -0.31536251       0.31662715
H        0.60009316      -0.37289210      -1.55921321
H       -0.58048918      -1.98390763      -0.28084816
H       -0.19610832      -1.15147240       1.22813312
H       -2.46806279       0.63310281       0.75600819
13
Frame=9 idx=004532 GeodesicLength=0.26287873798841543 rxn_smarts="[C:1]([C@@:2]1([H:10])[C:3]([H:11])([H:12])[N:4]=[C:5]([H:13])[O:6]1)([H:7])([H:8])[H:9]>>[C:1]([C@@:2]1([H:10])[C:3]([H:11])([H:12])[N:4]([H:13])[C-:5]=[O+:6]1)([H:7])([H:8])[H:9]"
C        1.54438142       0.50198915       0.16673299
C        0.32680748      -0.00123932      -0.57291211
C       -0.53286583      -1.00753709       0.19873195
N       -1.86270144      -0.38701905       0.19036349
C       -1.80844242       0.77890977      -0.39338533
O       -0.58346203       1.11766341      -0.79017726
H        2.04541706       1.28632780      -0.40079300
H        1.26260807       0.90448503       1.14154426
H        2.25494964      -0.31279814       0.32095876
H        0.60541216      -0.37667546      -1.55955977
H       -0.58753933      -1.98274472      -0.28634242
H       -0.18773974      -1.15996127       1.22379610
H       -2.47682504       0.63859987       0.76104234
13
Frame=10 idx=004532 GeodesicLength=0.29225227980432594 rxn_smarts="[C:1]([C@@:2]1([H:10])[C:3]([H:11])([H:12])[N:4]=[C:5]([H:13])[O:6]1)([H:7])([H:8])[H:9]>>[C:1]([C@@:2]1([H:10])[C:3]([H:11])([H:12])[N:4]([H:13])[C-:5]=[O+:6]1)([H:7])([H:8])[H:9]"
C        1.54248871       0.50328205       0.16761383
C        0.32807655      -0.00312535      -0.57522502
C       -0.53211536      -1.00891142       0.19795129
N       -1.85652896      -0.38040757       0.20057881
C       -1.80597728       0.77764621      -0.39361472
O       -0.58220535       1.11412758      -0.79730274
H        2.04430190       1.28723786      -0.39978428
H        1.25718438       0.90694285       1.14092278
H        2.25385941      -0.31016357       0.32536874
H        0.61082238      -0.38054731      -1.55986696
H       -0.59487445      -1.98145579      -0.29188957
H       -0.17923076      -1.16865559       1.21926263
H       -2.48580118       0.64403005       0.76598520
13
Frame=11 idx=004532 GeodesicLength=0.3216932597585635 rxn_smarts="[C:1]([C@@:2]1([H:10])[C:3]([H:11])([H:12])[N:4]=[C:5]([H:13])[O:6]1)([H:7])([H:8])[H:9]>>[C:1]([C@@:2]1([H:10])[C:3]([H:11])([H:12])[N:4]([H:13])[C-:5]=[O+:6]1)([H:7])([H:8])[H:9]"
C        1.54059437       0.50459484       0.16849120
C        0.32939387      -0.00504760      -0.57754839
C       -0.53135219      -1.01028962       0.19717846
N       -1.85008312      -0.37356315       0.21106479
C       -1.80345044       0.77636389      -0.39380939
O       -0.58093626       1.11049996      -0.80449135
H        2.04316078       1.28818580      -0.39877371
H        1.25169486       0.90941481       1.14026598
H        2.25277231      -0.30747476       0.32982847
H        0.61630937      -0.38449067      -1.56013610
H       -0.60246438      -1.98004093      -0.29745180
H       -0.17060970      -1.17752151       1.21454825
H       -2.49502947       0.64936895       0.77083360
13
Frame=12 idx=004532 GeodesicLength=0.3511902869430221 rxn_smarts="[C:1]([C@@:2]1([H:10])[C:3]([H:11])([H:12])[N:4]=[C:5]([H:13])[O:6]1)([H:7])([H:8])[H:9]>>[C:1]([C@@:2]1([H:10])[C:3]([H:11])([H:12])[N:4]([H:13])[C-:5]=[O+:6]1)([H:7])([H:8])[H:9]"
C        1.53871712       0.50591544       0.16935552
C        0.33075783      -0.00699288      -0.57987419
C       -0.53057705      -1.01165405       0.19642961
N       -1.84336223      -0.36648667       0.22178975
C       -1.80086329       0.77507024      -0.39396457
O       -0.57964926       1.10680724      -0.81169763
H        2.04201199       1.28915890      -0.39777203
H        1.24618681       0.91187987       1.13957539
H        2.25169805      -0.30475635       0.33430244
H        0.62184933      -0.38848397      -1.56036807
H       -0.61028678      -1.97848882      -0.30298781
H       -0.16189853      -1.18651325       1.20967372
H       -2.50458399       0.65454430       0.77553787
13
Frame=13 idx=004532 GeodesicLength=0.3807368147849601 rxn_smarts="[C:1]([C@@:2]1([H:10])[C:3]([H:11])([H:12])[N:4]=[C:5]([H:13])[O:6]1)([H:7])([H:8])[H:9]>>[C:1]([C@@:2]1([H:10])[C:3]([H:11])([H:12])[N:4]([H:13])[C-:5]=[O+:6]1)([H:7])([H:8])[H:9]"
C        1.53687632       0.50723177       0.17019705
C        0.33216675      -0.00894788      -0.58219489
C       -0.52979114      -1.01298623       0.19572086
N       -1.83636563      -0.35917725       0.23272056
C       -1.79821628       0.77377609      -0.39407254
O       -0.57833789       1.10307735      -0.81887811
H        2.04087592       1.29014274      -0.39679142
H        1.24070792       0.91431963       1.13885194
H        2.25064626      -0.30203365       0.33875694
H        0.62741830      -0.39250642      -1.56056453
H       -0.61831982      -1.97678827      -0.30845650
H       -0.15312015      -1.19558486       1.20466102
H       -2.51454055       0.65947696       0.78004961
13
Frame=14 idx=004532 GeodesicLength=0.410324517148314 rxn_smarts="[C:1]([C@@:2]1([H:10])[C:3]([H:11])([H:12])[N:4]=[C:5]([H:13])[O:6]1)([H:7])([H:8])[H:9]>>[C:1]([C@@:2]1([H:10])[C:3]([H:11])([H:12])[N:4]([H:13])[C-:5]=[O+:6]1)([H:7])([H:8])[H:9]"
C        1.53509269       0.50853114       0.17100547
C        0.33361870      -0.01089855      -0.58450274
C       -0.52899595      -1.01426613       0.19506914
N       -1.82909562      -0.35163337       0.24382379
C       -1.79550896       0.77249594      -0.39412295
O       -0.57699445       1.09934072      -0.82598904
H        2.03977547       1.29112095      -0.39584553
H        1.23530862       0.91671669       1.13809627
H        2.24962732      -0.29933373       0.34315780
H        0.63299071      -0.39653701      -1.56072768
H       -0.62654087      -1.97492788      -0.31381633
H       -0.14429793      -1.20468812       1.19953482
H       -2.52497974       0.66407935       0.78431699
13
Frame=15 idx=004532 GeodesicLength=0.4399468909660682 rxn_smarts="[C:1]([C@@:2]1([H:10])[C:3]([H:11])([H:12])[N:4]=[C:5]([H:13])[O:6]1)([H:7])([H:8])[H:9]>>[C:1]([C@@:2]1([H:10])[C:3]([H:11])([H:12])[N:4]([H:13])[C-:5]=[O+:6]1)([H:7])([H:8])[H:9]"
C        1.53338728       0.50980095       0.17177047
C        0.33511156      -0.01283100      -0.58679042
C       -0.52819355      -1.01547305       0.19449122
N       -1.82155624      -0.34385226       0.25506681
C       -1.79273968       0.77124799      -0.39410274
O       -0.57561048       1.09562858      -0.83298937
H        2.03873496       1.29207589      -0.39494882
H        1.23003910       0.91905602       1.13730847
H        2.24865163      -0.29668394       0.34747262
H        0.63854090      -0.40055599      -1.56086024
H       -0.63492825      -1.97289625      -0.31902696
H       -0.13545528      -1.21377513       1.19432065
H       -2.53598197       0.66825818       0.78828832
13
Frame=16 idx=004532 GeodesicLength=0.46959759378744026 rxn_smarts="[C:1]([C@@:2]1([H:10])[C:3]([H:11])([H:12])[N:4]=[C:5]([H:13])[O:6]1)([H:7])([H:8])[H:9]>>[C:1]([C@@:2]1([H:10])[C:3]([H:11])([H:12])[N:4]([H:13])[C-:5]=[O+:6]1)([H:7])([H:8])[H:9]"
C        1.53178204       0.51102829       0.17248138
C        0.33664294      -0.01473091      -0.58905053
C       -0.52738643      -1.01658510       0.19400438
N       -1.81375415      -0.33583013       0.26641816
C       -1.78990572       0.77005431      -0.39399640
O       -0.57417646       1.09197398      -0.83983894
H        2.03778071       1.29298835      -0.39411695
H        1.22495115       0.92132403       1.13648826
H        2.24773009      -0.29411278       0.35166921
H        0.64404210      -0.40454402      -1.56096528
H       -0.64346044      -1.97068167      -0.32404846
H       -0.12661571      -1.22279691       1.18904607
H       -2.54763012       0.67191255       0.79190910
