16
Frame=0 idx=008593 GeodesicLength=0.0 rxn_smarts="[C:1]([c:2]1[c:3]([H:11])[c:4]([C:5]([H:12])([H:13])[H:14])[c:6]([H:15])[n:7]1[H:16])([H:8])([H:9])[H:10]>>[C:1](/[C:2]([C@@:3]1([H:11])[C:4]([C:5]([H:12])([H:13])[H:14])=[C:6]1[H:15])=[N:7]\[H:16])([H:8])([H:9])[H:10]"
C        2.30094296      -0.53423312       0.04005500
C        1.15773862       0.45693093       0.10467984
C       -0.09433242      -0.09212141      -0.40151228
C       -1.40504480       0.19722468      -0.02111764
C       -2.52921372      -0.77214406      -0.21062195
C       -1.50807848       1.54497756       0.11258786
N        1.27984333       1.64161852       0.56720882
H        3.21300016      -0.10715493       0.45512340
H        2.05894097      -1.44898624       0.58418154
H        2.49438058      -0.81397225      -0.99818185
H        0.02025113      -0.85420505      -1.17100506
H       -3.47339208      -0.25036295      -0.35924337
H       -2.61401710      -1.40132728       0.67844902
H       -2.33821870      -1.43161146      -1.05991464
H       -0.76761316       2.09060595       0.70923715
H        2.20481273       1.77476118       0.97007410
16
Frame=1 idx=008593 GeodesicLength=0.10209845396729239 rxn_smarts="[C:1]([c:2]1[c:3]([H:11])[c:4]([C:5]([H:12])([H:13])[H:14])[c:6]([H:15])[n:7]1[H:16])([H:8])([H:9])[H:10]>>[C:1](/[C:2]([C@@:3]1([H:11])[C:4]([C:5]([H:12])([H:13])[H:14])=[C:6]1[H:15])=[N:7]\[H:16])([H:8])([H:9])[H:10]"
C        2.31882244      -0.53232196       0.03474769
C        1.15241639       0.42637219       0.12390472
C       -0.08708550      -0.11065185      -0.41844509
C       -1.39730970       0.19161214      -0.03421331
C       -2.53888734      -0.76028927      -0.19450232
C       -1.44870525       1.54417027       0.03525290
N        1.24629051       1.61952432       0.57736668
H        3.21245028      -0.10662904       0.48979302
H        2.08580177      -1.47648769       0.53043413
H        2.53902865      -0.75959081      -1.01099469
H        0.03036744      -0.88126744      -1.17825350
H       -3.47632750      -0.22436869      -0.33612296
H       -2.62015536      -1.37482819       0.70508758
H       -2.37311854      -1.43517990      -1.03699113
H       -0.80663167       2.10067821       0.72492408
H        2.16304340       1.77925772       0.98801221
16
Frame=2 idx=008593 GeodesicLength=0.2049611748321325 rxn_smarts="[C:1]([c:2]1[c:3]([H:11])[c:4]([C:5]([H:12])([H:13])[H:14])[c:6]([H:15])[n:7]1[H:16])([H:8])([H:9])[H:10]>>[C:1](/[C:2]([C@@:3]1([H:11])[C:4]([C:5]([H:12])([H:13])[H:14])=[C:6]1[H:15])=[N:7]\[H:16])([H:8])([H:9])[H:10]"
C        2.33726758      -0.52940128       0.02878025
C        1.14697661       0.39362056       0.14527186
C       -0.07945143      -0.13150632      -0.43220366
C       -1.38957564       0.18532650      -0.04689425
C       -2.54862907      -0.74749579      -0.17804899
C       -1.38900676       1.53772799      -0.03267371
N        1.21131592       1.59264883       0.59538408
H        3.21228402      -0.10727036       0.52212405
H        2.11732710      -1.50181189       0.47328981
H        2.58145813      -0.70069714      -1.02234632
H        0.04064423      -0.90848020      -1.18444643
H       -3.47856059      -0.19622988      -0.31089519
H       -2.62557841      -1.34919001       0.73059282
H       -2.40952466      -1.43556231      -1.01474674
H       -0.84816802       2.11762215       0.71884647
H        2.12122100       1.78069915       1.00796594
16
Frame=3 idx=008593 GeodesicLength=0.30846530403645034 rxn_smarts="[C:1]([c:2]1[c:3]([H:11])[c:4]([C:5]([H:12])([H:13])[H:14])[c:6]([H:15])[n:7]1[H:16])([H:8])([H:9])[H:10]>>[C:1](/[C:2]([C@@:3]1([H:11])[C:4]([C:5]([H:12])([H:13])[H:14])=[C:6]1[H:15])=[N:7]\[H:16])([H:8])([H:9])[H:10]"
C        2.35559060      -0.52546082       0.02254233
C        1.14173481       0.35971615       0.16609959
C       -0.07144011      -0.15357626      -0.44459422
C       -1.38159674       0.17842907      -0.05941239
C       -2.55787863      -0.73390207      -0.16119682
C       -1.32947920       1.52661666      -0.09227684
N        1.17528057       1.56188146       0.61823159
H        3.21186813      -0.10922738       0.55264551
H        2.15129957      -1.52352797       0.41446104
H        2.62159977      -0.63927134      -1.03111282
H        0.05107639      -0.93556751      -1.19055224
H       -3.47963534      -0.16647973      -0.28319264
H       -2.62936219      -1.32460492       0.75503154
H       -2.44692992      -1.43279292      -0.99310868
H       -0.89057574       2.13874916       0.69654185
H        2.07844803       1.77901843       1.02989322
16
Frame=4 idx=008593 GeodesicLength=0.41235514986717214 rxn_smarts="[C:1]([c:2]1[c:3]([H:11])[c:4]([C:5]([H:12])([H:13])[H:14])[c:6]([H:15])[n:7]1[H:16])([H:8])([H:9])[H:10]>>[C:1](/[C:2]([C@@:3]1([H:11])[C:4]([C:5]([H:12])([H:13])[H:14])=[C:6]1[H:15])=[N:7]\[H:16])([H:8])([H:9])[H:10]"
C        2.37361841      -0.52045863       0.01615145
C        1.13679352       0.32508710       0.18544982
C       -0.06320922      -0.17643804      -0.45641543
C       -1.37341023       0.17095580      -0.07189120
C       -2.56654259      -0.71969517      -0.14375877
C       -1.27054294       1.51178416      -0.14466104
N        1.13842021       1.52777849       0.64443184
H        3.21101465      -0.11258725       0.58192178
H        2.18691148      -1.54135906       0.35417272
H        2.65963266      -0.57561676      -1.03698182
H        0.06149010      -0.96245882      -1.19710279
H       -3.47947941      -0.13548335      -0.25285144
H       -2.63124095      -1.30120194       0.77877073
H       -2.48531054      -1.42722393      -0.97175326
H       -0.93226313       2.16290536       0.65993140
H        2.03411797       1.77401204       1.05458601
16
Frame=5 idx=008593 GeodesicLength=0.5164625632674136 rxn_smarts="[C:1]([c:2]1[c:3]([H:11])[c:4]([C:5]([H:12])([H:13])[H:14])[c:6]([H:15])[n:7]1[H:16])([H:8])([H:9])[H:10]>>[C:1](/[C:2]([C@@:3]1([H:11])[C:4]([C:5]([H:12])([H:13])[H:14])=[C:6]1[H:15])=[N:7]\[H:16])([H:8])([H:9])[H:10]"
C        2.39114688      -0.51442649       0.00990843
C        1.13213238       0.28998407       0.20304411
C       -0.05491790      -0.19977481      -0.46804087
C       -1.36512440       0.16288668      -0.08430168
C       -2.57457542      -0.70501969      -0.12578247
C       -1.21257260       1.49393759      -0.19007179
N        1.10092246       1.49080210       0.67279510
H        3.20953534      -0.11741908       0.61038892
H        2.22353622      -1.55513509       0.29291010
H        2.69551731      -0.51012038      -1.03951896
H        0.07179388      -0.98889837      -1.20446075
H       -3.47799343      -0.10350041      -0.21990182
H       -2.63119466      -1.27929623       0.80173679
H       -2.52456774      -1.41890898      -0.95075559
H       -0.97191343       2.18869822       0.61090739
H        1.98827510       1.76619088       1.08114308
16
Frame=6 idx=008593 GeodesicLength=0.6206859634419044 rxn_smarts="[C:1]([c:2]1[c:3]([H:11])[c:4]([C:5]([H:12])([H:13])[H:14])[c:6]([H:15])[n:7]1[H:16])([H:8])([H:9])[H:10]>>[C:1](/[C:2]([C@@:3]1([H:11])[C:4]([C:5]([H:12])([H:13])[H:14])=[C:6]1[H:15])=[N:7]\[H:16])([H:8])([H:9])[H:10]"
C        2.40792734      -0.50747699       0.00411453
C        1.12768458       0.25466562       0.21872175
C       -0.04668320      -0.22316924      -0.47986899
C       -1.35684858       0.15426638      -0.09664682
C       -2.58186202      -0.69003648      -0.10725929
C       -1.15598652       1.47375404      -0.22862672
N        1.06305323       1.45156961       0.70196334
H        3.20717055      -0.12390180       0.63842829
H        2.26050460      -1.56479232       0.23116191
H        2.72921737      -0.44327271      -1.03830703
H        0.08196608      -1.01441947      -1.21310611
H       -3.47504596      -0.07087923      -0.18425682
H       -2.62908446      -1.25921040       0.82389091
H       -2.56448861      -1.40790226      -0.93011499
H       -1.00842991       2.21485661       0.55099663
H        1.94090552       1.75594865       1.10890942
16
Frame=7 idx=008593 GeodesicLength=0.7249714864074368 rxn_smarts="[C:1]([c:2]1[c:3]([H:11])[c:4]([C:5]([H:12])([H:13])[H:14])[c:6]([H:15])[n:7]1[H:16])([H:8])([H:9])[H:10]>>[C:1](/[C:2]([C@@:3]1([H:11])[C:4]([C:5]([H:12])([H:13])[H:14])=[C:6]1[H:15])=[N:7]\[H:16])([H:8])([H:9])[H:10]"
C        2.42365527      -0.49983330      -0.00087149
C        1.12334815       0.21944821       0.23238119
C       -0.03858479      -0.24602268      -0.49234630
C       -1.34869808       0.14521886      -0.10899073
C       -2.58822206      -0.67494619      -0.08817378
C       -1.10123841       1.45191504      -0.26039077
N        1.02513786       1.41070299       0.73080186
H        3.20358973      -0.13235455       0.66641801
H        2.29702351      -1.57037501       0.16956030
H        2.76071430      -0.37577818      -1.03288049
H        0.09204731      -1.03825779      -1.22364975
H       -3.47049675      -0.03811012      -0.14571630
H       -2.62462628      -1.24133003       0.84513878
H       -2.60476477      -1.39424483      -0.90981767
H       -1.04112503       2.24015968       0.48170058
H        1.89224006       1.74380790       1.13683656
16
Frame=8 idx=008593 GeodesicLength=0.8292270457612138 rxn_smarts="[C:1]([c:2]1[c:3]([H:11])[c:4]([C:5]([H:12])([H:13])[H:14])[c:6]([H:15])[n:7]1[H:16])([H:8])([H:9])[H:10]>>[C:1](/[C:2]([C@@:3]1([H:11])[C:4]([C:5]([H:12])([H:13])[H:14])=[C:6]1[H:15])=[N:7]\[H:16])([H:8])([H:9])[H:10]"
C        2.43797970      -0.49199807      -0.00452270
C        1.11908296       0.18503094       0.24350407
C       -0.03061460      -0.26725350      -0.50638818
C       -1.34077745       0.13604712      -0.12157622
C       -2.59334241      -0.66011983      -0.06844698
C       -1.04897551       1.42939022      -0.28535932
N        0.98763295       1.36924288       0.75780172
H        3.19840333      -0.14325679       0.69483420
H        2.33183583      -1.57222019       0.10944672
H        2.79027769      -0.30925966      -1.02267953
H        0.10215654      -1.05917462      -1.23722817
H       -3.46421984      -0.00596326      -0.10355151
H       -2.61703483      -1.22649154       0.86533691
H       -2.64507276      -1.37799684      -0.88997109
H       -1.07007991       2.26364261       0.40494257
H        1.84274832       1.73038052       1.16385752
16
Frame=9 idx=008593 GeodesicLength=0.9333718205147464 rxn_smarts="[C:1]([c:2]1[c:3]([H:11])[c:4]([C:5]([H:12])([H:13])[H:14])[c:6]([H:15])[n:7]1[H:16])([H:8])([H:9])[H:10]>>[C:1](/[C:2]([C@@:3]1([H:11])[C:4]([C:5]([H:12])([H:13])[H:14])=[C:6]1[H:15])=[N:7]\[H:16])([H:8])([H:9])[H:10]"
C        2.45078914      -0.48406760      -0.00691076
C        1.11472025       0.15157741       0.25221608
C       -0.02294292      -0.28644994      -0.52206145
C       -1.33326025       0.12688500      -0.13423069
C       -2.59712405      -0.64574935      -0.04779498
C       -0.99963022       1.40660120      -0.30417893
N        0.95068936       1.32773087       0.78260532
H        3.19133755      -0.15723409       0.72391717
H        2.36466276      -1.57054403       0.05008221
H        2.81814625      -0.24333601      -1.00757361
H        0.11212489      -1.07632376      -1.25423044
H       -3.45614075       0.02489635      -0.05835919
H       -2.60645511      -1.21415114       0.88499298
H       -2.68491882      -1.35995835      -0.86949439
H       -1.09445347       2.28489905       0.32012372
H        1.79245538       1.71522440       1.19089694
16
Frame=10 idx=008593 GeodesicLength=1.0372889334860198 rxn_smarts="[C:1]([c:2]1[c:3]([H:11])[c:4]([C:5]([H:12])([H:13])[H:14])[c:6]([H:15])[n:7]1[H:16])([H:8])([H:9])[H:10]>>[C:1](/[C:2]([C@@:3]1([H:11])[C:4]([C:5]([H:12])([H:13])[H:14])=[C:6]1[H:15])=[N:7]\[H:16])([H:8])([H:9])[H:10]"
C        2.46194304      -0.47639081      -0.00782070
C        1.11015604       0.11951401       0.25834236
C       -0.01557696      -0.30283981      -0.53984539
C       -1.32628227       0.11808133      -0.14721800
C       -2.59936350      -0.63203521      -0.02609399
C       -0.95357757       1.38433006      -0.31729178
N        0.91446834       1.28657284       0.80499665
H        3.18219642      -0.17456867       0.75366945
H        2.39500032      -1.56568920      -0.00775562
H        2.84451262      -0.17902965      -0.98736909
H        0.12205606      -1.08882586      -1.27526084
H       -3.44619410       0.05396422      -0.00964070
H       -2.59235852      -1.20465172       0.90410925
H       -2.72407454      -1.34030709      -0.84819556
H       -1.11462194       2.30328151       0.22776969
H        1.74171656       1.69859406       1.21760428
16
Frame=11 idx=008593 GeodesicLength=1.1408913373929734 rxn_smarts="[C:1]([c:2]1[c:3]([H:11])[c:4]([C:5]([H:12])([H:13])[H:14])[c:6]([H:15])[n:7]1[H:16])([H:8])([H:9])[H:10]>>[C:1](/[C:2]([C@@:3]1([H:11])[C:4]([C:5]([H:12])([H:13])[H:14])=[C:6]1[H:15])=[N:7]\[H:16])([H:8])([H:9])[H:10]"
C        2.47135374      -0.46921639      -0.00720289
C        1.10526234       0.08912675       0.26189167
C       -0.00856995      -0.31579234      -0.55993174
C       -1.31998779       0.10993691      -0.16055712
C       -2.59992822      -0.61914176      -0.00319698
C       -0.91110629       1.36318412      -0.32502829
N        0.87900383       1.24604972       0.82511136
H        3.17080456      -0.19552824       0.78398334
H        2.42258786      -1.55798921      -0.06379831
H        2.86954025      -0.11690388      -0.96202567
H        0.13196699      -1.09581096      -1.30071074
H       -3.43433714       0.08076444       0.04266866
H       -2.57456891      -1.19801576       0.92278381
H       -2.76222498      -1.31942499      -0.82562671
H       -1.13057621       2.31819178       0.12760505
H        1.69077991       1.68056981       1.24403456
16
Frame=12 idx=008593 GeodesicLength=1.2440867778983038 rxn_smarts="[C:1]([c:2]1[c:3]([H:11])[c:4]([C:5]([H:12])([H:13])[H:14])[c:6]([H:15])[n:7]1[H:16])([H:8])([H:9])[H:10]>>[C:1](/[C:2]([C@@:3]1([H:11])[C:4]([C:5]([H:12])([H:13])[H:14])=[C:6]1[H:15])=[N:7]\[H:16])([H:8])([H:9])[H:10]"
C        2.47888260      -0.46283719      -0.00499426
C        1.09990812       0.06078759       0.26284399
C       -0.00199985      -0.32451059      -0.58247838
C       -1.31450897       0.10279632      -0.17409603
C       -2.59865378      -0.60727618       0.02102381
C       -0.87254964       1.34378289      -0.32744043
N        0.84435201       1.20649816       0.84312811
H        3.15691784      -0.22037479       0.81473640
H        2.44703614      -1.54785124      -0.11764478
H        2.89339097      -0.05770089      -0.93154088
H        0.14182681      -1.09613628      -1.33099633
H       -3.42052862       0.10472794       0.09862596
H       -2.55290461      -1.19436962       0.94102153
H       -2.79896137      -1.29769350      -0.80142698
H       -1.14218820       2.32878174       0.01915008
H        1.63998055       1.66137564       1.27008819
16
Frame=13 idx=008593 GeodesicLength=1.3467532893653553 rxn_smarts="[C:1]([c:2]1[c:3]([H:11])[c:4]([C:5]([H:12])([H:13])[H:14])[c:6]([H:15])[n:7]1[H:16])([H:8])([H:9])[H:10]>>[C:1](/[C:2]([C@@:3]1([H:11])[C:4]([C:5]([H:12])([H:13])[H:14])=[C:6]1[H:15])=[N:7]\[H:16])([H:8])([H:9])[H:10]"
C        2.48448383      -0.45729390      -0.00138508
C        1.09397982       0.03468350       0.26142730
C        0.00395852      -0.32841188      -0.60719207
C       -1.31001753       0.09695216      -0.18737568
C       -2.59556948      -0.59653278       0.04664888
C       -0.83815378       1.32656596      -0.32440948
N        0.81047737       1.16792830       0.85968634
H        3.14050853      -0.24916951       0.84545872
H        2.46832610      -1.53541993      -0.16949550
H        2.91600232      -0.00152349      -0.89611868
H        0.15144311      -1.08877826      -1.36606720
H       -3.40494730       0.12544329       0.15757231
H       -2.52773052      -1.19330770       0.95897764
H       -2.83382372      -1.27573344      -0.77504803
H       -1.14846016       2.33365889      -0.09889012
H        1.58952289       1.64093877       1.29621062
16
Frame=14 idx=008593 GeodesicLength=1.4487071400209899 rxn_smarts="[C:1]([c:2]1[c:3]([H:11])[c:4]([C:5]([H:12])([H:13])[H:14])[c:6]([H:15])[n:7]1[H:16])([H:8])([H:9])[H:10]>>[C:1](/[C:2]([C@@:3]1([H:11])[C:4]([C:5]([H:12])([H:13])[H:14])=[C:6]1[H:15])=[N:7]\[H:16])([H:8])([H:9])[H:10]"
C        2.48798979      -0.45274804       0.00351074
C        1.08737217       0.01128348       0.25771869
C        0.00910850      -0.32654506      -0.63385467
C       -1.30664200       0.09282426      -0.19970844
C       -2.59065929      -0.58709938       0.07367900
C       -0.80833938       1.31218371      -0.31558509
N        0.77748990       1.13068029       0.87517008
H        3.12138570      -0.28197715       0.87574798
H        2.48604492      -1.52101280      -0.21912315
H        2.93736774       0.05100427      -0.85601413
H        0.16058107      -1.07231678      -1.40592910
H       -3.38789839       0.14235461       0.21890025
H       -2.49935074      -1.19470037       0.97668404
H       -2.86614780      -1.25415138      -0.74631312
H       -1.14814447       2.33055979      -0.22716241
H        1.53984226       1.61966058       1.32227932
16
Frame=15 idx=008593 GeodesicLength=1.5498678043241525 rxn_smarts="[C:1]([c:2]1[c:3]([H:11])[c:4]([C:5]([H:12])([H:13])[H:14])[c:6]([H:15])[n:7]1[H:16])([H:8])([H:9])[H:10]>>[C:1](/[C:2]([C@@:3]1([H:11])[C:4]([C:5]([H:12])([H:13])[H:14])=[C:6]1[H:15])=[N:7]\[H:16])([H:8])([H:9])[H:10]"
C        2.48929511      -0.44910203       0.00941834
C        1.07997913      -0.00902144       0.25190215
C        0.01321612      -0.31835843      -0.66191993
C       -1.30444468       0.09080502      -0.21040246
C       -2.58407718      -0.57894575       0.10192958
C       -0.78333743       1.30116184      -0.30137061
N        0.74532953       1.09505086       0.88989849
H        3.09944302      -0.31848283       0.90501538
H        2.50008229      -1.50472220      -0.26656436
H        2.95733531       0.09967765      -0.81171686
H        0.16891751      -1.04602610      -1.44988273
H       -3.36980583       0.15534349       0.28169773
H       -2.46842235      -1.19810515       0.99412802
H       -2.89546004      -1.23337698      -0.71534061
H       -1.13916436       2.31597782      -0.36484118
H        1.49111386       1.59812422       1.34804905
16
Frame=16 idx=008593 GeodesicLength=1.6507423648677204 rxn_smarts="[C:1]([c:2]1[c:3]([H:11])[c:4]([C:5]([H:12])([H:13])[H:14])[c:6]([H:15])[n:7]1[H:16])([H:8])([H:9])[H:10]>>[C:1](/[C:2]([C@@:3]1([H:11])[C:4]([C:5]([H:12])([H:13])[H:14])=[C:6]1[H:15])=[N:7]\[H:16])([H:8])([H:9])[H:10]"
C        2.48859190      -0.44572701       0.01595911
C        1.07171847      -0.02635939       0.24430768
C        0.01617143      -0.30499957      -0.69046977
C       -1.30331342       0.09094289      -0.21961027
C       -2.57619816      -0.57142647       0.13090849
C       -0.76256878       1.29335692      -0.28478965
N        0.71336792       1.06108169       0.90359061
H        3.07482323      -0.35764094       0.93263609
H        2.51141108      -1.48603940      -0.31225402
H        2.97554034       0.14529239      -0.76383306
H        0.17631791      -1.01168988      -1.49608288
H       -3.35065102       0.16557371       0.34544352
H       -2.43579285      -1.20272540       1.01089726
H       -2.92243214      -1.21276129      -0.68269752
H       -1.11952780       2.28610023      -0.50694239
H        1.44254189       1.57702153       1.37293678
