9
Frame=0 idx=003609 GeodesicLength=0.0 rxn_smarts="[N:1]#[C:2][C@@:3]1([H:6])[C:4]([H:7])([H:8])[N:5]1[H:9]>>[N:1](=[C:2]=[C:3]1[C:4]([H:7])([H:8])[N:5]1[H:9])[H:6]"
N        1.76963583       0.85252452      -0.52392177
C        1.80117078      -0.38284808      -0.15349707
C        0.41314932       0.03883592      -0.02049660
C       -0.95869837      -0.33886216      -0.30005971
N       -0.50314649       0.17544711       1.03076346
H        0.66407912       1.28154011      -0.53400194
H       -1.63761012       0.32764448      -0.81694360
H       -1.16902731      -1.39813635      -0.40588373
H       -0.37955277      -0.55614554       1.72404093
9
Frame=1 idx=003609 GeodesicLength=0.10663350487172937 rxn_smarts="[N:1]#[C:2][C@@:3]1([H:6])[C:4]([H:7])([H:8])[N:5]1[H:9]>>[N:1](=[C:2]=[C:3]1[C:4]([H:7])([H:8])[N:5]1[H:9])[H:6]"
N        1.80260912       0.85010218      -0.52941386
C        1.78466997      -0.37753453      -0.15481082
C        0.40441829       0.04843097      -0.02050790
C       -0.96491300      -0.34297842      -0.29603536
N       -0.51334430       0.17182418       1.03372557
H        0.68370098       1.29842127      -0.53934532
H       -1.64992547       0.31797183      -0.81200590
H       -1.16483482      -1.40399119      -0.40456363
H       -0.38238077      -0.56224629       1.72295722
9
Frame=2 idx=003609 GeodesicLength=0.21326407917970644 rxn_smarts="[N:1]#[C:2][C@@:3]1([H:6])[C:4]([H:7])([H:8])[N:5]1[H:9]>>[N:1](=[C:2]=[C:3]1[C:4]([H:7])([H:8])[N:5]1[H:9])[H:6]"
N        1.83640838       0.84649497      -0.53543985
C        1.76782148      -0.37119718      -0.15603677
C        0.39512753       0.05872750      -0.02052722
C       -0.97134513      -0.34721389      -0.29198624
N       -0.52394755       0.16803514       1.03677817
H        0.70420180       1.31569475      -0.54432798
H       -1.66278845       0.30785910      -0.80687831
H       -1.16033865      -1.40992803      -0.40337844
H       -0.38513941      -0.56847234       1.72179664
9
Frame=3 idx=003609 GeodesicLength=0.3198851175450894 rxn_smarts="[N:1]#[C:2][C@@:3]1([H:6])[C:4]([H:7])([H:8])[N:5]1[H:9]>>[N:1](=[C:2]=[C:3]1[C:4]([H:7])([H:8])[N:5]1[H:9])[H:6]"
N        1.87102748       0.84158605      -0.54200667
C        1.75060288      -0.36375277      -0.15720419
C        0.38523700       0.06978131      -0.02055423
C       -0.97799027      -0.35157490      -0.28791940
N       -0.53497353       0.16407712       1.03991734
H        0.72562958       1.33337640      -0.54888889
H       -1.67622202       0.29725651      -0.80156112
H       -1.15549929      -1.41594228      -0.40233203
H       -0.38781182      -0.57480743       1.72054920
9
Frame=4 idx=003609 GeodesicLength=0.4264990803685626 rxn_smarts="[N:1]#[C:2][C@@:3]1([H:6])[C:4]([H:7])([H:8])[N:5]1[H:9]>>[N:1](=[C:2]=[C:3]1[C:4]([H:7])([H:8])[N:5]1[H:9])[H:6]"
N        1.90642680       0.83520354      -0.54923721
C        1.73300917      -0.35508108      -0.15826711
C        0.37470706       0.08165219      -0.02057640
C       -0.98483575      -0.35606315      -0.28384541
N       -0.54644312       0.15993977       1.04314393
H        0.74803276       1.35149840      -0.55292048
H       -1.69024182       0.28612032      -0.79605005
H       -1.15026192      -1.42202135      -0.40144992
H       -0.39039319      -0.58124864       1.71920266
9
Frame=5 idx=003609 GeodesicLength=0.5330981999687389 rxn_smarts="[N:1]#[C:2][C@@:3]1([H:6])[C:4]([H:7])([H:8])[N:5]1[H:9]>>[N:1](=[C:2]=[C:3]1[C:4]([H:7])([H:8])[N:5]1[H:9])[H:6]"
N        1.94257571       0.82720484      -0.55712084
C        1.71501793      -0.34507929      -0.15926807
C        0.36349114       0.09439913      -0.02059540
C       -0.99187251      -0.36068427      -0.27977359
N       -0.55836913       0.15562238       1.04645018
H        0.77146107       1.37007202      -0.55635412
H       -1.70486801       0.27439170      -0.79034609
H       -1.14457819      -1.42815571      -0.40073602
H       -0.39285800      -0.58777078       1.71774393
9
Frame=6 idx=003609 GeodesicLength=0.6396786404689025 rxn_smarts="[N:1]#[C:2][C@@:3]1([H:6])[C:4]([H:7])([H:8])[N:5]1[H:9]>>[N:1](=[C:2]=[C:3]1[C:4]([H:7])([H:8])[N:5]1[H:9])[H:6]"
N        1.97941791       0.81741823      -0.56567488
C        1.69661603      -0.33362224      -0.16022686
C        0.35154179       0.10808059      -0.02060915
C       -0.99908603      -0.36544100      -0.27571500
N       -0.57076145       0.15112158       1.04982903
H        0.79595916       1.38910987      -0.55911030
H       -1.72011394       0.26201357      -0.78444808
H       -1.13839250      -1.43432927      -0.40020258
H       -0.39518095      -0.59435134       1.71615782
9
Frame=7 idx=003609 GeodesicLength=0.7462444591032658 rxn_smarts="[N:1]#[C:2][C@@:3]1([H:6])[C:4]([H:7])([H:8])[N:5]1[H:9]>>[N:1](=[C:2]=[C:3]1[C:4]([H:7])([H:8])[N:5]1[H:9])[H:6]"
N        2.01687631       0.80565314      -0.57489532
C        1.67779239      -0.32057091      -0.16116986
C        0.33880930       0.12275549      -0.02061639
C       -1.00645789      -0.37033416      -0.27168149
N       -0.58362387       0.14643389       1.05327321
H        0.82156599       1.40862252      -0.56112033
H       -1.73598858       0.24892741      -0.77835333
H       -1.13164404      -1.44052131      -0.39986450
H       -0.39732961      -0.60096608       1.71442801
9
Frame=8 idx=003609 GeodesicLength=0.8527416004834125 rxn_smarts="[N:1]#[C:2][C@@:3]1([H:6])[C:4]([H:7])([H:8])[N:5]1[H:9]>>[N:1](=[C:2]=[C:3]1[C:4]([H:7])([H:8])[N:5]1[H:9])[H:6]"
N        2.05492255       0.79183427      -0.58443401
C        1.65850053      -0.30585230      -0.16230780
C        0.32523559       0.13846960      -0.02065778
C       -1.01398585      -0.37536533      -0.26767692
N       -0.59692234       0.14157275       1.05676300
H        0.84829304       1.42854661      -0.56247588
H       -1.75252539       0.23506873      -0.77203999
H       -1.12430611      -1.44671307      -0.39970247
H       -0.39921203      -0.60756125       1.71253185
9
Frame=9 idx=003609 GeodesicLength=0.9592794884962641 rxn_smarts="[N:1]#[C:2][C@@:3]1([H:6])[C:4]([H:7])([H:8])[N:5]1[H:9]>>[N:1](=[C:2]=[C:3]1[C:4]([H:7])([H:8])[N:5]1[H:9])[H:6]"
N        2.09319025       0.77537185      -0.59520318
C        1.63887454      -0.28906946      -0.16310336
C        0.31080122       0.15530385      -0.02058276
C       -1.02156889      -0.38050661      -0.26373632
N       -0.61073571       0.13647484       1.06033380
H        0.87618266       1.44904117      -0.56275712
H       -1.76961180       0.22041743      -0.76553766
H       -1.11618174      -1.45282520      -0.39986995
H       -0.40095051      -0.61420786       1.71045654
9
Frame=10 idx=003609 GeodesicLength=1.065695795001999 rxn_smarts="[N:1]#[C:2][C@@:3]1([H:6])[C:4]([H:7])([H:8])[N:5]1[H:9]>>[N:1](=[C:2]=[C:3]1[C:4]([H:7])([H:8])[N:5]1[H:9])[H:6]"
N        2.13193144       0.75666872      -0.60534019
C        1.61870632      -0.27043744      -0.16458306
C        0.29541919       0.17323757      -0.02063495
C       -1.02929162      -0.38576363      -0.25981970
N       -0.62485345       0.13120595       1.06391289
H        0.90510353       1.46978592      -0.56276902
H       -1.78740341       0.20490559      -0.75871631
H       -1.10743221      -1.45884684      -0.40019064
H       -0.40217980      -0.62075583       1.70814098
9
Frame=11 idx=003609 GeodesicLength=1.1721125879395005 rxn_smarts="[N:1]#[C:2][C@@:3]1([H:6])[C:4]([H:7])([H:8])[N:5]1[H:9]>>[N:1](=[C:2]=[C:3]1[C:4]([H:7])([H:8])[N:5]1[H:9])[H:6]"
N        2.17070656       0.73508618      -0.61569162
C        1.59813902      -0.24954599      -0.16619591
C        0.27907660       0.19235486      -0.02063883
C       -1.03703187      -0.39109765      -0.25596537
N       -0.63933925       0.12569563       1.06755647
H        0.93504782       1.49095988      -0.56219093
H       -1.80575253       0.18852597      -0.75161528
H       -1.09783498      -1.46468685      -0.40084488
H       -0.40301138      -0.62729204       1.70558633
9
Frame=12 idx=003609 GeodesicLength=1.2784483841743945 rxn_smarts="[N:1]#[C:2][C@@:3]1([H:6])[C:4]([H:7])([H:8])[N:5]1[H:9]>>[N:1](=[C:2]=[C:3]1[C:4]([H:7])([H:8])[N:5]1[H:9])[H:6]"
N        2.20973838       0.71092323      -0.62434716
C        1.57699384      -0.22655489      -0.16889242
C        0.26170477       0.21261505      -0.02082063
C       -1.04485893      -0.39647752      -0.25211973
N       -0.65392879       0.11995983       1.07121620
H        0.96574750       1.51227649      -0.56198031
H       -1.82479463       0.17128074      -0.74401562
H       -1.08755308      -1.47027228      -0.40173109
H       -0.40304906      -0.63375065       1.70269076
9
Frame=13 idx=003609 GeodesicLength=1.3847412978344644 rxn_smarts="[N:1]#[C:2][C@@:3]1([H:6])[C:4]([H:7])([H:8])[N:5]1[H:9]>>[N:1](=[C:2]=[C:3]1[C:4]([H:7])([H:8])[N:5]1[H:9])[H:6]"
N        2.24873746       0.68379350      -0.63121479
C        1.55533138      -0.20121859      -0.17256457
C        0.24329091       0.23404728      -0.02109690
C       -1.05269333      -0.40185008      -0.24829156
N       -0.66855333       0.11393372       1.07493674
H        0.99703336       1.53379470      -0.56234429
H       -1.84443420       0.15320106      -0.73586484
H       -1.07648220      -1.47549351      -0.40297951
H       -0.40223006      -0.64020808       1.69941971
9
Frame=14 idx=003609 GeodesicLength=1.4909875222464684 rxn_smarts="[N:1]#[C:2][C@@:3]1([H:6])[C:4]([H:7])([H:8])[N:5]1[H:9]>>[N:1](=[C:2]=[C:3]1[C:4]([H:7])([H:8])[N:5]1[H:9])[H:6]"
N        2.28743902       0.65338699      -0.63582711
C        1.53317958      -0.17334528      -0.17728079
C        0.22382334       0.25665846      -0.02141457
C       -1.06047034      -0.40715473      -0.24447743
N       -0.68308572       0.10754783       1.07875181
H        1.02867898       1.55553663      -0.56368823
H       -1.86459381       0.13433283      -0.72707293
H       -1.06455979      -1.48022344      -0.40470144
H       -0.40041126      -0.64673928       1.69571069
9
Frame=15 idx=003609 GeodesicLength=1.5971723507049918 rxn_smarts="[N:1]#[C:2][C@@:3]1([H:6])[C:4]([H:7])([H:8])[N:5]1[H:9]>>[N:1](=[C:2]=[C:3]1[C:4]([H:7])([H:8])[N:5]1[H:9])[H:6]"
N        2.32603565       0.61991005      -0.63578142
C        1.51036231      -0.14305702      -0.18413660
C        0.20326407       0.28034984      -0.02199945
C       -1.06826926      -0.41231171      -0.24059520
N       -0.69712029       0.10073368       1.08266112
H        1.06022064       1.57730670      -0.56737180
H       -1.88540431       0.11481532      -0.71725960
H       -1.05202438      -1.48431918      -0.40690506
H       -0.39706442      -0.65342768       1.69138801
9
Frame=16 idx=003609 GeodesicLength=1.7032859395925757 rxn_smarts="[N:1]#[C:2][C@@:3]1([H:6])[C:4]([H:7])([H:8])[N:5]1[H:9]>>[N:1](=[C:2]=[C:3]1[C:4]([H:7])([H:8])[N:5]1[H:9])[H:6]"
N        2.36408398       0.58292798      -0.63036614
C        1.48692775      -0.11008641      -0.19324874
C        0.18163368       0.30510142      -0.02276192
C       -1.07601134      -0.41724140      -0.23663405
N       -0.71044867       0.09337438       1.08672475
H        1.09137293       1.59921709      -0.57400465
H       -1.90675015       0.09476077      -0.70628169
H       -1.03883006      -1.48762531      -0.40977211
H       -0.39197813      -0.66042852       1.68634456
