13
Frame=0 idx=004982 GeodesicLength=0.0 rxn_smarts="[C:1]1([H:7])([H:8])[C:2]([H:9])([H:10])[O:3][C:4]([H:11])=[N:5][C:6]1([H:12])[H:13]>>[C:1]1([H:7])([H:8])[C:2]([H:9])([H:10])[O:3][C-:4]=[N+:5]=[C:6]1[H:13].[H:11][H:12]"
C        0.52985966      -0.71874391       0.38578551
C       -0.89553236      -1.01729532      -0.06158359
O       -1.65327983       0.25620993      -0.04269010
C       -0.88346205       1.21642585      -0.45403325
N        0.13778696       0.97881527      -1.26262938
C        1.04197727       0.50525421      -0.40348541
H        0.58930232      -0.61389368       1.46896853
H        1.15360931      -1.57047866       0.10070160
H       -0.93278758      -1.41404923      -1.07438046
H       -1.43786991      -1.66411539       0.62269031
H       -0.31806401       1.91549306       0.61140651
H        0.57642460       1.58979125       0.79643635
H        2.09203557       0.53658656      -0.68718656
13
Frame=1 idx=004982 GeodesicLength=0.0744156864863506 rxn_smarts="[C:1]1([H:7])([H:8])[C:2]([H:9])([H:10])[O:3][C:4]([H:11])=[N:5][C:6]1([H:12])[H:13]>>[C:1]1([H:7])([H:8])[C:2]([H:9])([H:10])[O:3][C-:4]=[N+:5]=[C:6]1[H:13].[H:11][H:12]"
C        0.52987491      -0.71986360       0.38545884
C       -0.89367772      -1.02013827      -0.06519276
O       -1.65349309       0.24948842      -0.04681656
C       -0.89189441       1.22123346      -0.45431406
N        0.13673319       0.98773028      -1.25604283
C        1.04247579       0.50416528      -0.39990459
H        0.58146892      -0.60823060       1.46862037
H        1.15653055      -1.57280993       0.11132731
H       -0.92600572      -1.41877060      -1.07773292
H       -1.43580254      -1.66972831       0.61674218
H       -0.32492235       1.92878683       0.62065485
H        0.59198948       1.60140836       0.80359511
H        2.08672299       0.51672866      -0.70639493
13
Frame=2 idx=004982 GeodesicLength=0.1486665589044406 rxn_smarts="[C:1]1([H:7])([H:8])[C:2]([H:9])([H:10])[O:3][C:4]([H:11])=[N:5][C:6]1([H:12])[H:13]>>[C:1]1([H:7])([H:8])[C:2]([H:9])([H:10])[O:3][C-:4]=[N+:5]=[C:6]1[H:13].[H:11][H:12]"
C        0.52990099      -0.72101266       0.38515778
C       -0.89177413      -1.02302334      -0.06886432
O       -1.65363733       0.24273763      -0.05110458
C       -0.90040526       1.22596582      -0.45466622
N        0.13570653       0.99668537      -1.24927728
C        1.04305519       0.50300250      -0.39636248
H        0.57356184      -0.60253372       1.46819872
H        1.15940370      -1.57512209       0.12215783
H       -0.91908995      -1.42354156      -1.08112100
H       -1.43371578      -1.67534771       0.61072356
H       -0.33194702       1.94222019       0.63000739
H        0.60827553       1.61302031       0.81072393
H        2.08066568       0.49694926      -0.72557333
13
Frame=3 idx=004982 GeodesicLength=0.22280049981317934 rxn_smarts="[C:1]1([H:7])([H:8])[C:2]([H:9])([H:10])[O:3][C:4]([H:11])=[N:5][C:6]1([H:12])[H:13]>>[C:1]1([H:7])([H:8])[C:2]([H:9])([H:10])[O:3][C-:4]=[N+:5]=[C:6]1[H:13].[H:11][H:12]"
C        0.52993453      -0.72219304       0.38488243
C       -0.88982352      -1.02595381      -0.07259824
O       -1.65371579       0.23595314      -0.05556003
C       -0.90900117       1.23061662      -0.45509723
N        0.13470375       1.00568265      -1.24232591
C        1.04371118       0.50175883      -0.39286609
H        0.56557883      -0.59680107       1.46770017
H        1.16222257      -1.57741221       0.13319319
H       -0.91204158      -1.42836700      -1.08454212
H       -1.43161096      -1.68097512       0.60463644
H       -0.33917135       1.95580462       0.63946198
H        0.62534663       1.62460811       0.81781186
H        2.07386689       0.47727828      -0.74469643
13
Frame=4 idx=004982 GeodesicLength=0.29687823080317977 rxn_smarts="[C:1]1([H:7])([H:8])[C:2]([H:9])([H:10])[O:3][C:4]([H:11])=[N:5][C:6]1([H:12])[H:13]>>[C:1]1([H:7])([H:8])[C:2]([H:9])([H:10])[O:3][C-:4]=[N+:5]=[C:6]1[H:13].[H:11][H:12]"
C        0.52997189      -0.72340529       0.38463432
C       -0.88782671      -1.02893298      -0.07639493
O       -1.65373216       0.22912933      -0.06018913
C       -0.91768984       1.23517933      -0.45561419
N        0.13372191       1.01472764      -1.23517847
C        1.04443973       0.50042760      -0.38942219
H        0.55751518      -0.59102765       1.46712189
H        1.16498106      -1.57967526       0.14443580
H       -0.90485911      -1.43325131      -1.08799466
H       -1.42948858      -1.68661407       0.59848046
H       -0.34663903       1.96955531       0.64901770
H        0.64327760       1.63614862       0.82484736
H        2.06632805       0.45773874      -0.76374394
13
Frame=5 idx=004982 GeodesicLength=0.3709241261061747 rxn_smarts="[C:1]1([H:7])([H:8])[C:2]([H:9])([H:10])[O:3][C:4]([H:11])=[N:5][C:6]1([H:12])[H:13]>>[C:1]1([H:7])([H:8])[C:2]([H:9])([H:10])[O:3][C-:4]=[N+:5]=[C:6]1[H:13].[H:11][H:12]"
C        0.53000957      -0.72465088       0.38441480
C       -0.88578557      -1.03196425      -0.08025495
O       -1.65368962       0.22226183      -0.06499760
C       -0.92647819       1.23964778      -0.45622443
N        0.13275747       1.02382431      -1.22782575
C        1.04523663       0.49900195      -0.38603756
H        0.54936815      -0.58521042       1.46646151
H        1.16767400      -1.58190847       0.15588709
H       -0.89754313      -1.43819907      -1.09147719
H       -1.42735060      -1.69226676       0.59225665
H       -0.35439405       1.98348435       0.65867326
H        0.66213948       1.64762284       0.83181923
H        2.05805586       0.43835678      -0.78269506
13
Frame=6 idx=004982 GeodesicLength=0.4450170959171923 rxn_smarts="[C:1]1([H:7])([H:8])[C:2]([H:9])([H:10])[O:3][C:4]([H:11])=[N:5][C:6]1([H:12])[H:13]>>[C:1]1([H:7])([H:8])[C:2]([H:9])([H:10])[O:3][C-:4]=[N+:5]=[C:6]1[H:13].[H:11][H:12]"
C        0.53004295      -0.72592819       0.38422799
C       -0.88369998      -1.03505143      -0.08418001
O       -1.65359307       0.21534305      -0.06999431
C       -0.93537640       1.24401489      -0.45693453
N        0.13180850       1.03298334      -1.22025093
C        1.04609695       0.49747618      -0.38271738
H        0.54112924      -0.57933972       1.46571816
H        1.17029555      -1.58410324       0.16755426
H       -0.89008785      -1.44321439      -1.09498987
H       -1.42519705      -1.69793880       0.58596133
H       -0.36250337       1.99761077       0.66843243
H        0.68203477       1.65899997       0.83871045
H        2.04904977       0.41914756      -0.80153757
13
Frame=7 idx=004982 GeodesicLength=0.5191625659581058 rxn_smarts="[C:1]1([H:7])([H:8])[C:2]([H:9])([H:10])[O:3][C:4]([H:11])=[N:5][C:6]1([H:12])[H:13]>>[C:1]1([H:7])([H:8])[C:2]([H:9])([H:10])[O:3][C-:4]=[N+:5]=[C:6]1[H:13].[H:11][H:12]"
C        0.53006730      -0.72723602       0.38407845
C       -0.88157062      -1.03819793      -0.08817164
O       -1.65344672       0.20836687      -0.07518795
C       -0.94439407       1.24827451      -0.45775241
N        0.13087105       1.04221357      -1.21243880
C        1.04701610       0.49584533      -0.37946637
H        0.53279070      -0.57340766       1.46489123
H        1.17284035      -1.58625382       0.17944494
H       -0.88248836      -1.44830081      -1.09853208
H       -1.42302901      -1.70363450       0.57959187
H       -0.37102300       2.01194624       0.67829922
H        0.70305025       1.67025526       0.84550705
H        2.03931603       0.40012898      -0.82026351
13
Frame=8 idx=004982 GeodesicLength=0.5934326655276945 rxn_smarts="[C:1]1([H:7])([H:8])[C:2]([H:9])([H:10])[O:3][C:4]([H:11])=[N:5][C:6]1([H:12])[H:13]>>[C:1]1([H:7])([H:8])[C:2]([H:9])([H:10])[O:3][C-:4]=[N+:5]=[C:6]1[H:13].[H:11][H:12]"
C        0.53007763      -0.72857132       0.38397256
C       -0.87939686      -1.04140815      -0.09223321
O       -1.65325625       0.20132443      -0.08059025
C       -0.95354323       1.25241930      -0.45868380
N        0.12994499       1.05153082      -1.20436518
C        1.04798906       0.49410268      -0.37629074
H        0.52434139      -0.56739937       1.46398142
H        1.17530279      -1.58834928       0.19157197
H       -0.87473581      -1.45346253      -1.10210640
H       -1.42084723      -1.70936061       0.57314264
H       -0.38004306       2.02651167       0.68828467
H        0.72531580       1.68134809       0.85217933
H        2.02885078       0.38131429      -0.83886300
13
Frame=9 idx=004982 GeodesicLength=0.668197928882071 rxn_smarts="[C:1]1([H:7])([H:8])[C:2]([H:9])([H:10])[O:3][C:4]([H:11])=[N:5][C:6]1([H:12])[H:13]>>[C:1]1([H:7])([H:8])[C:2]([H:9])([H:10])[O:3][C-:4]=[N+:5]=[C:6]1[H:13].[H:11][H:12]"
C        0.53006427      -0.72991835       0.38392789
C       -0.87717189      -1.04468525      -0.09637332
O       -1.65303076       0.19419948      -0.08620922
C       -0.96284655       1.25643813      -0.45973505
N        0.12902063       1.06098824      -1.19597622
C        1.04900878       0.49224302      -0.37319917
H        0.51575635      -0.56127980       1.46299801
H        1.17768104      -1.59037482       0.20397077
H       -0.86680385      -1.45869237      -1.10572300
H       -1.41864532      -1.71513535       0.56659116
H       -0.38980413       2.04136337       0.69838234
H        0.74908778       1.69221625       0.85874699
H        2.01768365       0.36263746      -0.85740117
13
Frame=10 idx=004982 GeodesicLength=0.7430650383276692 rxn_smarts="[C:1]1([H:7])([H:8])[C:2]([H:9])([H:10])[O:3][C:4]([H:11])=[N:5][C:6]1([H:12])[H:13]>>[C:1]1([H:7])([H:8])[C:2]([H:9])([H:10])[O:3][C-:4]=[N+:5]=[C:6]1[H:13].[H:11][H:12]"
C        0.53002555      -0.73128467       0.38394322
C       -0.87490049      -1.04803190      -0.10058876
O       -1.65277007       0.18699297      -0.09206254
C       -0.97230470       1.26032873      -0.46091968
N        0.12810298       1.07056597      -1.18727123
C        1.05007313       0.49026437      -0.37018772
H        0.50703686      -0.55505788       1.46193498
H        1.17996680      -1.59232667       0.21663360
H       -0.85869766      -1.46400241      -1.10937336
H       -1.41643126      -1.72095070       0.55994802
H       -0.40025381       2.05646930       0.70861232
H        0.77436856       1.70284946       0.86514771
H        2.00578411       0.34418343      -0.87581655
13
Frame=11 idx=004982 GeodesicLength=0.8180128030539242 rxn_smarts="[C:1]1([H:7])([H:8])[C:2]([H:9])([H:10])[O:3][C:4]([H:11])=[N:5][C:6]1([H:12])[H:13]>>[C:1]1([H:7])([H:8])[C:2]([H:9])([H:10])[O:3][C-:4]=[N+:5]=[C:6]1[H:13].[H:11][H:12]"
C        0.52995523      -0.73266376       0.38402920
C       -0.87257820      -1.05145047      -0.10488275
O       -1.65247721       0.17969608      -0.09817227
C       -0.98192974       1.26408420      -0.46224834
N        0.12719361       1.08028546      -1.17821370
C        1.05117821       0.48816425      -0.36725609
H        0.49816688      -0.54871518       1.46079359
H        1.18215167      -1.59418937       0.22957811
H       -0.85039858      -1.46939517      -1.11305666
H       -1.41420208      -1.72680981       0.55320604
H       -0.41149835       2.07183992       0.71899311
H        0.80130043       1.71320185       0.87134920
H        1.99313813       0.32595201      -0.89411942
13
Frame=12 idx=004982 GeodesicLength=0.893012859763149 rxn_smarts="[C:1]1([H:7])([H:8])[C:2]([H:9])([H:10])[O:3][C:4]([H:11])=[N:5][C:6]1([H:12])[H:13]>>[C:1]1([H:7])([H:8])[C:2]([H:9])([H:10])[O:3][C-:4]=[N+:5]=[C:6]1[H:13].[H:11][H:12]"
C        0.52984721      -0.73404882       0.38419781
C       -0.87020165      -1.05494370      -0.10925931
O       -1.65215576       0.17229979      -0.10455751
C       -0.99173501       1.26769752      -0.46373507
N        0.12629213       1.09016946      -1.16876454
C        1.05232000       0.48594132      -0.36440312
H        0.48912957      -0.54223357       1.45957732
H        1.18422949      -1.59594795       0.24282375
H       -0.84188847      -1.47487290      -1.11677418
H       -1.41195774      -1.73271790       0.54635662
H       -0.42365474       2.08748311       0.72953791
H        0.83004455       1.72322684       0.87731894
H        1.97973042       0.30794679      -0.91231861
13
Frame=13 idx=004982 GeodesicLength=0.9680085772955174 rxn_smarts="[C:1]1([H:7])([H:8])[C:2]([H:9])([H:10])[O:3][C:4]([H:11])=[N:5][C:6]1([H:12])[H:13]>>[C:1]1([H:7])([H:8])[C:2]([H:9])([H:10])[O:3][C-:4]=[N+:5]=[C:6]1[H:13].[H:11][H:12]"
C        0.52969477      -0.73543311       0.38446070
C       -0.86776815      -1.05851337      -0.11372154
O       -1.65180854       0.16479665      -0.11123831
C       -1.00173381       1.27116192      -0.46539530
N        0.12539757       1.10024103      -1.15888227
C        1.05349421       0.48359312      -0.36162876
H        0.47991004      -0.53559625       1.45828851
H        1.18619431      -1.59759062       0.25638946
H       -0.83315153      -1.48043741      -1.12052585
H       -1.40969855      -1.73867777       0.53939334
H       -0.43684915       2.10340399       0.74026034
H        0.86076384       1.73287821       0.88302297
H        1.96555498       0.29017360      -0.93042327
13
Frame=14 idx=004982 GeodesicLength=1.0429648802345333 rxn_smarts="[C:1]1([H:7])([H:8])[C:2]([H:9])([H:10])[O:3][C:4]([H:11])=[N:5][C:6]1([H:12])[H:13]>>[C:1]1([H:7])([H:8])[C:2]([H:9])([H:10])[O:3][C-:4]=[N+:5]=[C:6]1[H:13].[H:11][H:12]"
C        0.52949053      -0.73680582       0.38483409
C       -0.86527172      -1.06216150      -0.11827468
O       -1.65143844       0.15717656      -0.11824121
C       -1.01194108       1.27447043      -0.46724433
N        0.12451237       1.11053255      -1.14851278
C        1.05469785       0.48111800      -0.35893183
H        0.47048584      -0.52877604       1.45693149
H        1.18803876      -1.59909757       0.27030590
H       -0.82416104      -1.48609016      -1.12431344
H       -1.40742304      -1.74469456       0.53230369
H       -0.45123425       2.11960926       0.75118391
H        0.89366008       1.74208666       0.88840834
H        1.95058413       0.27263219      -0.94844914
13
Frame=15 idx=004982 GeodesicLength=1.1178143787260726 rxn_smarts="[C:1]1([H:7])([H:8])[C:2]([H:9])([H:10])[O:3][C:4]([H:11])=[N:5][C:6]1([H:12])[H:13]>>[C:1]1([H:7])([H:8])[C:2]([H:9])([H:10])[O:3][C-:4]=[N+:5]=[C:6]1[H:13].[H:11][H:12]"
C        0.52922689      -0.73815656       0.38533408
C       -0.86270741      -1.06588909      -0.12292264
O       -1.65104730       0.14943125      -0.12559278
C       -1.02237139       1.27761651      -0.46930240
N        0.12363776       1.12107579      -1.13759853
C        1.05592749       0.47851495      -0.35631047
H        0.46083709      -0.52174896       1.45551048
H        1.18975593      -1.60045200       0.28460131
H       -0.81489281      -1.49183257      -1.12813700
H       -1.40513118      -1.75077081       0.52507816
H       -0.46696850       2.13610034       0.76232762
H        0.92893613       1.75078375       0.89342413
H        1.93479729       0.25532739      -0.96641196
13
Frame=16 idx=004982 GeodesicLength=1.1924917373708974 rxn_smarts="[C:1]1([H:7])([H:8])[C:2]([H:9])([H:10])[O:3][C:4]([H:11])=[N:5][C:6]1([H:12])[H:13]>>[C:1]1([H:7])([H:8])[C:2]([H:9])([H:10])[O:3][C-:4]=[N+:5]=[C:6]1[H:13].[H:11][H:12]"
C        0.52889608      -0.73947235       0.38598007
C       -0.86006845      -1.06969715      -0.12767097
O       -1.65063582       0.14155163      -0.13332499
C       -1.03303996       1.28059400      -0.47159050
N        0.12277707       1.13190768      -1.12607135
C        1.05718085       0.47578322      -0.35376189
H        0.45093991      -0.51448531       1.45403079
H        1.19133888      -1.60163238       0.29931075
H       -0.80531619      -1.49766549      -1.13199769
H       -1.40282269      -1.75690968       0.51770414
H       -0.48422915       2.15287586       0.77371691
H        0.96682026       1.75888813       0.89800327
H        1.91815922       0.23826184      -0.98432852
