17
Frame=0 idx=010796 GeodesicLength=0.0 rxn_smarts="[C:1]([O:2][C@@:3]1([H:11])[C:4]([H:12])([H:13])[C@:5]1([C:6]([O:7][H:17])([H:15])[H:16])[H:14])([H:8])([H:9])[H:10]>>[C:1]([O:2][C@@:3]([C:4]([H:12])([H:13])[H:14])([C:5][C:6]([O:7][H:17])([H:15])[H:16])[H:11])([H:8])([H:9])[H:10]"
C        2.17412826       0.62549568      -0.02152055
O        0.85378683       0.44036397      -0.47212389
C        0.27574864      -0.76196645      -0.02659047
C       -0.35087230      -0.69561218       1.35828148
C       -1.15836253      -0.96801922      -0.28606513
C       -1.85242670       0.33559855      -0.70843076
O       -1.45751990       0.60177411      -2.03519199
H        2.81978046      -0.20408913      -0.33229878
H        2.21380813       0.71206283       1.07100726
H        2.54450127       1.54846426      -0.46428171
H        0.94777501      -1.60305397      -0.20222002
H       -0.11253776      -1.51263000       2.03044751
H       -0.33628455       0.30065825       1.78928422
H       -1.47392708      -1.02090525       1.09206268
H       -2.93270160       0.19201291      -0.73241803
H       -1.63520526       1.19265360      -0.05416312
H       -0.51969097       0.81719203      -2.00577865
17
Frame=1 idx=010796 GeodesicLength=0.0590263446390774 rxn_smarts="[C:1]([O:2][C@@:3]1([H:11])[C:4]([H:12])([H:13])[C@:5]1([C:6]([O:7][H:17])([H:15])[H:16])[H:14])([H:8])([H:9])[H:10]>>[C:1]([O:2][C@@:3]([C:4]([H:12])([H:13])[H:14])([C:5][C:6]([O:7][H:17])([H:15])[H:16])[H:11])([H:8])([H:9])[H:10]"
C        2.17444353       0.62586293      -0.01703971
O        0.85393316       0.44551033      -0.46937026
C        0.27317569      -0.75706261      -0.02711606
C       -0.34926025      -0.69785708       1.35907491
C       -1.16271755      -0.95448883      -0.28520174
C       -1.85619168       0.34499349      -0.70813439
O       -1.45749757       0.58122014      -2.04065427
H        2.81840573      -0.20384217      -0.33117193
H        2.21442133       0.70782082       1.07575455
H        2.54710364       1.54970142      -0.45615439
H        0.93873551      -1.60139061      -0.21152441
H       -0.08193217      -1.50517702       2.03200168
H       -0.34823218       0.29791865       1.79176485
H       -1.47804368      -1.05465267       1.09557380
H       -2.93721343       0.20771998      -0.72839058
H       -1.62775544       1.20854339      -0.06723114
H       -0.52137466       0.80517984      -2.01218092
17
Frame=2 idx=010796 GeodesicLength=0.11807412440606554 rxn_smarts="[C:1]([O:2][C@@:3]1([H:11])[C:4]([H:12])([H:13])[C@:5]1([C:6]([O:7][H:17])([H:15])[H:16])[H:14])([H:8])([H:9])[H:10]>>[C:1]([O:2][C@@:3]([C:4]([H:12])([H:13])[H:14])([C:5][C:6]([O:7][H:17])([H:15])[H:16])[H:11])([H:8])([H:9])[H:10]"
C        2.17471360       0.62617789      -0.01257427
O        0.85404517       0.45062030      -0.46661323
C        0.27053682      -0.75213606      -0.02755903
C       -0.34766389      -0.70013351       1.35996849
C       -1.16721068      -0.94077903      -0.28391355
C       -1.85983485       0.35461693      -0.70785088
O       -1.45762866       0.56087608      -2.04553527
H        2.81696185      -0.20370645      -0.32991066
H        2.21494368       0.70371091       1.08045524
H        2.54972265       1.55077884      -0.44817496
H        0.92950601      -1.59965269      -0.22076013
H       -0.05152488      -1.49679776       2.03350116
H       -0.36042947       0.29497734       1.79431216
H       -1.48116341      -1.08961949       1.09818046
H       -2.94156533       0.22373001      -0.72443188
H       -1.62026446       1.22448021      -0.08055504
H       -0.52314414       0.79285649      -2.01853860
17
Frame=3 idx=010796 GeodesicLength=0.17714452407915998 rxn_smarts="[C:1]([O:2][C@@:3]1([H:11])[C:4]([H:12])([H:13])[C@:5]1([C:6]([O:7][H:17])([H:15])[H:16])[H:14])([H:8])([H:9])[H:10]>>[C:1]([O:2][C@@:3]([C:4]([H:12])([H:13])[H:14])([C:5][C:6]([O:7][H:17])([H:15])[H:16])[H:11])([H:8])([H:9])[H:10]"
C        2.17493497       0.62644216      -0.00812313
O        0.85411691       0.45569818      -0.46384392
C        0.26782452      -0.74718108      -0.02790874
C       -0.34608212      -0.70244444       1.36097605
C       -1.17185119      -0.92688032      -0.28217198
C       -1.86335875       0.36447184      -0.70757901
O       -1.45792279       0.54070747      -2.04984788
H        2.81544077      -0.20368278      -0.32851982
H        2.21538053       0.69973439       1.08511240
H        2.55235288       1.55169858      -0.44034487
H        0.92007536      -1.59782991      -0.22991847
H       -0.02135882      -1.48750690       2.03494017
H       -0.37284656       0.29181725       1.79695231
H       -1.48322265      -1.12576916       1.09979517
H       -2.94576049       0.24005937      -0.72053253
H       -1.61272010       1.24046599      -0.09414696
H       -0.52500249       0.78019936      -2.02483880
17
Frame=4 idx=010796 GeodesicLength=0.23625350195431014 rxn_smarts="[C:1]([O:2][C@@:3]1([H:11])[C:4]([H:12])([H:13])[C@:5]1([C:6]([O:7][H:17])([H:15])[H:16])[H:14])([H:8])([H:9])[H:10]>>[C:1]([O:2][C@@:3]([C:4]([H:12])([H:13])[H:14])([C:5][C:6]([O:7][H:17])([H:15])[H:16])[H:11])([H:8])([H:9])[H:10]"
C        2.17510380       0.62665906      -0.00368733
O        0.85414229       0.46074853      -0.46105292
C        0.26503169      -0.74219130      -0.02815214
C       -0.34451031      -0.70479157       1.36211438
C       -1.17664761      -0.91278248      -0.27994452
C       -1.86676393       0.37456132      -0.70731781
O       -1.45838692       0.52067279      -2.05359915
H        2.81383422      -0.20376950      -0.32700779
H        2.21573883       0.69589309       1.08972675
H        2.55498778       1.55246525      -0.43266807
H        0.91043168      -1.59590889      -0.23898913
H        0.00851474      -1.47733386       2.03631172
H       -0.38544677       0.28842337       1.79971517
H       -1.48416472      -1.16305304       1.10032305
H       -2.94979886       0.25672607      -0.71669060
H       -1.60511329       1.25650021      -0.10801468
H       -0.52695260       0.76718095      -2.03106692
17
Frame=5 idx=010796 GeodesicLength=0.29537834795758544 rxn_smarts="[C:1]([O:2][C@@:3]1([H:11])[C:4]([H:12])([H:13])[C@:5]1([C:6]([O:7][H:17])([H:15])[H:16])[H:14])([H:8])([H:9])[H:10]>>[C:1]([O:2][C@@:3]([C:4]([H:12])([H:13])[H:14])([C:5][C:6]([O:7][H:17])([H:15])[H:16])[H:11])([H:8])([H:9])[H:10]"
C        2.17521842       0.62683210       0.00073435
O        0.85411593       0.46577846      -0.45823052
C        0.26215308      -0.73715907      -0.02827759
C       -0.34294428      -0.70717726       1.36339890
C       -1.18160691      -0.89847746      -0.27719626
C       -1.87005242       0.38488392      -0.70706488
O       -1.45903221       0.50072705      -2.05679226
H        2.81213605      -0.20396317      -0.32538500
H        2.21602896       0.69218360       1.09430161
H        2.55762215       1.55308532      -0.42514125
H        0.90056557      -1.59387901      -0.24796832
H        0.03803003      -1.46631207       2.03761057
H       -0.39819013       0.28478239       1.80262882
H       -1.48392472      -1.20139959       1.09966215
H       -2.95368337       0.27374115      -0.71289680
H       -1.59743346       1.27258128      -0.12217468
H       -0.52900271       0.75377236      -2.03720882
17
Frame=6 idx=010796 GeodesicLength=0.35452146977090476 rxn_smarts="[C:1]([O:2][C@@:3]1([H:11])[C:4]([H:12])([H:13])[C@:5]1([C:6]([O:7][H:17])([H:15])[H:16])[H:14])([H:8])([H:9])[H:10]>>[C:1]([O:2][C@@:3]([C:4]([H:12])([H:13])[H:14])([C:5][C:6]([O:7][H:17])([H:15])[H:16])[H:11])([H:8])([H:9])[H:10]"
C        2.17527642       0.62696647       0.00514141
O        0.85403258       0.47079460      -0.45536681
C        0.25918500      -0.73207772      -0.02827215
C       -0.34137727      -0.70960493       1.36484464
C       -1.18673306      -0.88395993      -0.27389529
C       -1.87322452       0.39543482      -0.70681998
O       -1.45986931       0.48082641      -2.05942452
H        2.81033981      -0.20425754      -0.32366406
H        2.21626052       0.68860308       1.09883822
H        2.56024934       1.55356786      -0.41776326
H        0.89046928      -1.59172739      -0.25685048
H        0.06712826      -1.45449386       2.03882893
H       -0.41102890       0.28088157       1.80572327
H       -1.48246206      -1.24070865       1.09771865
H       -2.95741324       0.29111340      -0.70915435
H       -1.58967376       1.28870170      -0.13664026
H       -0.53115909       0.73994010      -2.04324396
17
Frame=7 idx=010796 GeodesicLength=0.4136534088433452 rxn_smarts="[C:1]([O:2][C@@:3]1([H:11])[C:4]([H:12])([H:13])[C@:5]1([C:6]([O:7][H:17])([H:15])[H:16])[H:14])([H:8])([H:9])[H:10]>>[C:1]([O:2][C@@:3]([C:4]([H:12])([H:13])[H:14])([C:5][C:6]([O:7][H:17])([H:15])[H:16])[H:11])([H:8])([H:9])[H:10]"
C        2.17527633       0.62706819       0.00953510
O        0.85388746       0.47580466      -0.45245232
C        0.25612539      -0.72693988      -0.02812323
C       -0.33980459      -0.71208102       1.36646428
C       -1.19202848      -0.86922606      -0.27000992
C       -1.87628158       0.40620510      -0.70658094
O       -1.46091017       0.46092090      -2.06148782
H        2.80844137      -0.20464407      -0.32185792
H        2.21644408       0.68514637       1.10333966
H        2.56286317       1.55392438      -0.41052786
H        0.88013730      -1.58944356      -0.26563307
H        0.09574884      -1.44193761       2.03995642
H       -0.42390907       0.27670557       1.80902876
H       -1.47974112      -1.28085087       1.09439540
H       -2.96098792       0.30884833      -0.70546552
H       -1.58182770       1.30485102      -0.15142840
H       -0.53343331       0.72564856      -2.04915263
17
Frame=8 idx=010796 GeodesicLength=0.4728159561029078 rxn_smarts="[C:1]([O:2][C@@:3]1([H:11])[C:4]([H:12])([H:13])[C@:5]1([C:6]([O:7][H:17])([H:15])[H:16])[H:14])([H:8])([H:9])[H:10]>>[C:1]([O:2][C@@:3]([C:4]([H:12])([H:13])[H:14])([C:5][C:6]([O:7][H:17])([H:15])[H:16])[H:11])([H:8])([H:9])[H:10]"
C        2.17521876       0.62714339       0.01391373
O        0.85367761       0.48081612      -0.44947791
C        0.25297321      -0.72173773      -0.02781741
C       -0.33821490      -0.71460527       1.36827248
C       -1.19749173      -0.85427194      -0.26551231
C       -1.87922185       0.41718565      -0.70634711
O       -1.46216461       0.44096770      -2.06297268
H        2.80643752      -0.20511297      -0.31998452
H        2.21659511       0.68180722       1.10780592
H        2.56545744       1.55416606      -0.40343193
H        0.86957038      -1.58701675      -0.27431228
H        0.12383418      -1.42871109       2.04099413
H       -0.43678256       0.27224906       1.81257461
H       -1.47575593      -1.32170581       1.08959810
H       -2.96440617       0.32694635      -0.70183150
H       -1.57389244       1.32101383      -0.16655527
H       -0.53583400       0.71086619      -2.05491604
17
Frame=9 idx=010796 GeodesicLength=0.5317681718592158 rxn_smarts="[C:1]([O:2][C@@:3]1([H:11])[C:4]([H:12])([H:13])[C@:5]1([C:6]([O:7][H:17])([H:15])[H:16])[H:14])([H:8])([H:9])[H:10]>>[C:1]([O:2][C@@:3]([C:4]([H:12])([H:13])[H:14])([C:5][C:6]([O:7][H:17])([H:15])[H:16])[H:11])([H:8])([H:9])[H:10]"
C        2.17510694       0.62720990       0.01828650
O        0.85340769       0.48584656      -0.44644521
C        0.24974933      -0.71646755      -0.02737196
C       -0.33661298      -0.71721051       1.37023765
C       -1.20309006      -0.83911850      -0.26043453
C       -1.88204916       0.42832377      -0.70613692
O       -1.46363484       0.42093195      -2.06389750
H        2.80434153      -0.20562443      -0.31807358
H        2.21672258       0.67855130       1.11224936
H        2.56802247       1.55433587      -0.39642501
H        0.85879333      -1.58444565      -0.28292528
H        0.15126752      -1.41501204       2.04188050
H       -0.44955346       0.26747692       1.81635794
H       -1.47054709      -1.36287215       1.08353394
H       -2.96766704       0.34533433      -0.69827018
H       -1.56587291       1.33714946      -0.18205160
H       -0.53838384       0.69559077      -2.06051412
17
Frame=10 idx=010796 GeodesicLength=0.5907211174877194 rxn_smarts="[C:1]([O:2][C@@:3]1([H:11])[C:4]([H:12])([H:13])[C@:5]1([C:6]([O:7][H:17])([H:15])[H:16])[H:14])([H:8])([H:9])[H:10]>>[C:1]([O:2][C@@:3]([C:4]([H:12])([H:13])[H:14])([C:5][C:6]([O:7][H:17])([H:15])[H:16])[H:11])([H:8])([H:9])[H:10]"
C        2.17493783       0.62726349       0.02264542
O        0.85306880       0.49088948      -0.44333807
C        0.24643782      -0.71112610      -0.02674947
C       -0.33497908      -0.71988078       1.37240530
C       -1.20884067      -0.82374814      -0.25471086
C       -1.88475882       0.43963579      -0.70593012
O       -1.46533628       0.40076441      -2.06421228
H        2.80213907      -0.20619635      -0.31611960
H        2.21683728       0.67540320       1.11666135
H        2.57055662       1.55441600      -0.38954592
H        0.84778101      -1.58170786      -0.29143695
H        0.17808730      -1.40078987       2.04266570
H       -0.46220444       0.26240320       1.82042995
H       -1.46411330      -1.40441206       1.07584479
H       -2.97076713       0.36406856      -0.69478145
H       -1.55776158       1.35325234      -0.19791411
H       -0.54108444       0.67976470      -2.06591367
17
Frame=11 idx=010796 GeodesicLength=0.649687883500504 rxn_smarts="[C:1]([O:2][C@@:3]1([H:11])[C:4]([H:12])([H:13])[C@:5]1([C:6]([O:7][H:17])([H:15])[H:16])[H:14])([H:8])([H:9])[H:10]>>[C:1]([O:2][C@@:3]([C:4]([H:12])([H:13])[H:14])([C:5][C:6]([O:7][H:17])([H:15])[H:16])[H:11])([H:8])([H:9])[H:10]"
C        2.17471411       0.62731244       0.02699059
O        0.85266126       0.49595041      -0.44015046
C        0.24304444      -0.70571014      -0.02594039
C       -0.33330357      -0.72262223       1.37478031
C       -1.21472933      -0.80816422      -0.24833152
C       -1.88734923       0.45109922      -0.70572394
O       -1.46727654       0.38042584      -2.06390138
H        2.79983271      -0.20681537      -0.31413560
H        2.21695112       0.67235863       1.12104315
H        2.57305591       1.55442082      -0.38278897
H        0.83654066      -1.57879285      -0.29984649
H        0.20426110      -1.38612844       2.04334545
H       -0.47467757       0.25702210       1.82481377
H       -1.45651267      -1.44613966       1.06645836
H       -2.97370269       0.38313085      -0.69136766
H       -1.54956135       1.36929237      -0.21415411
H       -0.54394837       0.66336024      -2.07109112
17
Frame=12 idx=010796 GeodesicLength=0.7086781215392463 rxn_smarts="[C:1]([O:2][C@@:3]1([H:11])[C:4]([H:12])([H:13])[C@:5]1([C:6]([O:7][H:17])([H:15])[H:16])[H:14])([H:8])([H:9])[H:10]>>[C:1]([O:2][C@@:3]([C:4]([H:12])([H:13])[H:14])([C:5][C:6]([O:7][H:17])([H:15])[H:16])[H:11])([H:8])([H:9])[H:10]"
C        2.17443917       0.62736532       0.03132183
O        0.85218782       0.50103277      -0.43687948
C        0.23957925      -0.70022040      -0.02493887
C       -0.33157593      -0.72544398       1.37736159
C       -1.22073586      -0.79237430      -0.24129771
C       -1.88981814       0.46268724      -0.70551605
O       -1.46946182       0.35987807      -2.06293975
H        2.79742819      -0.20746665      -0.31213235
H        2.21707400       0.66941425       1.12539555
H        2.57551641       1.55436541      -0.37614826
H        0.82508147      -1.57569078      -0.30815775
H        0.22976509      -1.37110855       2.04391449
H       -0.48691832       0.25132859       1.82952456
H       -1.44782825      -1.48785612       1.05532285
H       -2.97646896       0.40249765      -0.68803864
H       -1.54127480       1.38523504      -0.23077643
H       -0.54698934       0.64635646      -2.07601560
17
Frame=13 idx=010796 GeodesicLength=0.7676964441153245 rxn_smarts="[C:1]([O:2][C@@:3]1([H:11])[C:4]([H:12])([H:13])[C@:5]1([C:6]([O:7][H:17])([H:15])[H:16])[H:14])([H:8])([H:9])[H:10]>>[C:1]([O:2][C@@:3]([C:4]([H:12])([H:13])[H:14])([C:5][C:6]([O:7][H:17])([H:15])[H:16])[H:11])([H:8])([H:9])[H:10]"
C        2.17411802       0.62743047       0.03563911
O        0.85165296       0.50613839      -0.43352289
C        0.23605323      -0.69465726      -0.02373723
C       -0.32978578      -0.72835220       1.38014877
C       -1.22683744      -0.77638611      -0.23361153
C       -1.89216377       0.47437162      -0.70530091
O       -1.47190128       0.33909386      -2.06130486
H        2.79493349      -0.20813610      -0.31011862
H        2.21721642       0.66656853       1.12971941
H        2.57793576       1.55426404      -0.36961912
H        0.81341790      -1.57239522      -0.31637027
H        0.25458204      -1.35580615       2.04437247
H       -0.49887589       0.24532152       1.83457579
H       -1.43815723      -1.52936988       1.04237127
H       -2.97906275       0.42213948      -0.68479103
H       -1.53290428       1.40104508      -0.24779209
H       -0.55022140       0.62872993      -2.08065828
17
Frame=14 idx=010796 GeodesicLength=0.8267546373971599 rxn_smarts="[C:1]([O:2][C@@:3]1([H:11])[C:4]([H:12])([H:13])[C@:5]1([C:6]([O:7][H:17])([H:15])[H:16])[H:14])([H:8])([H:9])[H:10]>>[C:1]([O:2][C@@:3]([C:4]([H:12])([H:13])[H:14])([C:5][C:6]([O:7][H:17])([H:15])[H:16])[H:11])([H:8])([H:9])[H:10]"
C        2.17375694       0.62751531       0.03994099
O        0.85106248       0.51126699      -0.43008120
C        0.23248041      -0.68902591      -0.02233290
C       -0.32792176      -0.73135409       1.38313551
C       -1.23300746      -0.76021210      -0.22528785
C       -1.89438381       0.48611822      -0.70507717
O       -1.47460061       0.31805886      -2.05897340
H        2.79235906      -0.20880965      -0.30810435
H        2.21738889       0.66381840       1.13401404
H        2.58031230       1.55413072      -0.36319716
H        0.80156900      -1.56890369      -0.32448484
H        0.27870667      -1.34028905       2.04472028
H       -0.51050535       0.23900141       1.83997360
H       -1.42762211      -1.57049095       1.02758074
H       -2.98147796       0.44202061      -0.68163725
H       -1.52445878       1.41667658      -0.26520351
H       -0.55365790       0.61047833      -2.08498552
17
Frame=15 idx=010796 GeodesicLength=0.8858507902988788 rxn_smarts="[C:1]([O:2][C@@:3]1([H:11])[C:4]([H:12])([H:13])[C@:5]1([C:6]([O:7][H:17])([H:15])[H:16])[H:14])([H:8])([H:9])[H:10]>>[C:1]([O:2][C@@:3]([C:4]([H:12])([H:13])[H:14])([C:5][C:6]([O:7][H:17])([H:15])[H:16])[H:11])([H:8])([H:9])[H:10]"
C        2.17336399       0.62762772       0.04422631
O        0.85042460       0.51641794      -0.42655649
C        0.22887708      -0.68333082      -0.02072363
C       -0.32597202      -0.73445471       1.38631381
C       -1.23921574      -0.74386480      -0.21634429
C       -1.89647684       0.49789271      -0.70483971
O       -1.47756785       0.29676378      -2.05592244
H        2.78971813      -0.20947224      -0.30609843
H        2.21760227       0.66116114       1.13827907
H        2.58264584       1.55398039      -0.35687700
H        0.78955759      -1.56521593      -0.33250019
H        0.30213026      -1.32462290       2.04496130
H       -0.52176489       0.23237307       1.84572000
H       -1.41635391      -1.61103760       1.01092360
H       -2.98371065       0.46209984      -0.67857777
H       -1.51594514       1.43208536      -0.28301863
H       -0.55731272       0.59159704      -2.08896553
17
Frame=16 idx=010796 GeodesicLength=0.9449864188461929 rxn_smarts="[C:1]([O:2][C@@:3]1([H:11])[C:4]([H:12])([H:13])[C@:5]1([C:6]([O:7][H:17])([H:15])[H:16])[H:14])([H:8])([H:9])[H:10]>>[C:1]([O:2][C@@:3]([C:4]([H:12])([H:13])[H:14])([C:5][C:6]([O:7][H:17])([H:15])[H:16])[H:11])([H:8])([H:9])[H:10]"
C        2.17294755       0.62777516       0.04849429
O        0.84974844       0.52158981      -0.42295208
C        0.22526057      -0.67757844      -0.01890897
C       -0.32392504      -0.73765856       1.38967388
C       -1.24543073      -0.72735646      -0.20680299
C       -1.89844087       0.50966086      -0.70458448
O       -1.48080959       0.27520316      -2.05212832
H        2.78702468      -0.21010992      -0.30410708
H        2.21786603       0.65859562       1.14251437
H        2.58493705       1.55382691      -0.35065370
H        0.77740628      -1.56133264      -0.34041664
H        0.32485771      -1.30886334       2.04509849
H       -0.53262031       0.22544156       1.85181346
H       -1.40449521      -1.65084294       0.99238626
H       -2.98575521       0.48233655      -0.67561725
H       -1.50737147       1.44722575      -0.30124157
H       -0.56119989       0.57208695      -2.09256766
