12
Frame=0 idx=000784 GeodesicLength=0.0 rxn_smarts="[N:1]([C:2](=[O:3])[C@@:4]1([H:9])[C:5]([H:10])([H:11])[N:6]1[H:12])([H:7])[H:8]>>[N:1]([C@@:2]1([O:3][H:12])[C@@:4]2([H:9])[C:5]([H:10])([H:11])[N:6]12)([H:7])[H:8]"
N        1.68848994       0.18041464      -0.36242696
C        0.67937642       0.23194802       0.47413340
O        0.94278965      -0.10046089       1.71217383
C       -0.70585860       0.54861493       0.10939027
C       -1.35644045      -0.46137152      -0.75792277
N       -1.41422509      -0.57014737       0.66752828
H        2.57029314      -0.22290597      -0.08814188
H        1.55266716       0.48276104      -1.31054708
H       -1.03294995       1.59331050       0.18314839
H       -0.72005151      -1.12720847      -1.35470488
H       -2.25878286      -0.15661000      -1.29842285
H        0.05469211      -0.39834495       2.02579222
12
Frame=1 idx=000784 GeodesicLength=0.1307178563142493 rxn_smarts="[N:1]([C:2](=[O:3])[C@@:4]1([H:9])[C:5]([H:10])([H:11])[N:6]1[H:12])([H:7])[H:8]>>[N:1]([C@@:2]1([O:3][H:12])[C@@:4]2([H:9])[C:5]([H:10])([H:11])[N:6]12)([H:7])[H:8]"
N        1.69206137       0.17376942      -0.36065294
C        0.68193533       0.25683965       0.47683095
O        0.93919170      -0.05285326       1.72252795
C       -0.70501357       0.55764421       0.10573389
C       -1.34673644      -0.44995197      -0.76782253
N       -1.36240431      -0.59998848       0.65584914
H        2.56945275      -0.23155515      -0.07597621
H        1.54598438       0.40856385      -1.32608444
H       -1.06194363       1.58765364       0.21975169
H       -0.71054287      -1.08479849      -1.39599469
H       -2.27421711      -0.16146578      -1.27208911
H        0.03223241      -0.40385765       2.01792629
12
Frame=2 idx=000784 GeodesicLength=0.26138561163763807 rxn_smarts="[N:1]([C:2](=[O:3])[C@@:4]1([H:9])[C:5]([H:10])([H:11])[N:6]1[H:12])([H:7])[H:8]>>[N:1]([C@@:2]1([O:3][H:12])[C@@:4]2([H:9])[C:5]([H:10])([H:11])[N:6]12)([H:7])[H:8]"
N        1.69521080       0.16635898      -0.35956158
C        0.68452195       0.28103851       0.47832767
O        0.93555580      -0.00738594       1.73084304
C       -0.70413500       0.56694289       0.10197124
C       -1.33788422      -0.43823476      -0.77720494
N       -1.31052922      -0.62681707       0.64259878
H        2.56951811      -0.23699171      -0.06336561
H        1.53930505       0.33412749      -1.33722804
H       -1.08973300       1.58022758       0.25538867
H       -0.70355268      -1.04202592      -1.43549364
H       -2.28862589      -0.16777794      -1.24534631
H        0.01034830      -0.40946211       2.00907071
12
Frame=3 idx=000784 GeodesicLength=0.3920165806330168 rxn_smarts="[N:1]([C:2](=[O:3])[C@@:4]1([H:9])[C:5]([H:10])([H:11])[N:6]1[H:12])([H:7])[H:8]>>[N:1]([C@@:2]1([O:3][H:12])[C@@:4]2([H:9])[C:5]([H:10])([H:11])[N:6]12)([H:7])[H:8]"
N        1.69796410       0.15846700      -0.35903818
C        0.68714136       0.30451595       0.47878199
O        0.93203852       0.03625319       1.73741073
C       -0.70323336       0.57652066       0.09816007
C       -1.32977123      -0.42634079      -0.78602015
N       -1.25887248      -0.65063569       0.62801059
H        2.57029381      -0.23981535      -0.05085879
H        1.53246106       0.25985303      -1.34413964
H       -1.11618599       1.57122935       0.28993723
H       -0.69877634      -0.99907109      -1.47308086
H       -2.30177301      -0.17546758      -1.21844086
H       -0.01128645      -0.41550867       1.99927787
12
Frame=4 idx=000784 GeodesicLength=0.5226207975508568 rxn_smarts="[N:1]([C:2](=[O:3])[C@@:4]1([H:9])[C:5]([H:10])([H:11])[N:6]1[H:12])([H:7])[H:8]>>[N:1]([C@@:2]1([O:3][H:12])[C@@:4]2([H:9])[C:5]([H:10])([H:11])[N:6]12)([H:7])[H:8]"
N        1.70034081       0.15034681      -0.35902403
C        0.68978177       0.32715932       0.47830920
O        0.92875045       0.07818117       1.74241373
C       -0.70230872       0.58637144       0.09435899
C       -1.32231774      -0.41430111      -0.79425726
N       -1.20769372      -0.67149109       0.61226091
H        2.57181898      -0.23985971      -0.03876807
H        1.52528306       0.18539379      -1.34698014
H       -1.14115187       1.56085754       0.32338133
H       -0.69597912      -0.95600063      -1.50872527
H       -2.31354346      -0.18434806      -1.19151116
H       -0.03298044      -0.42230947       1.98854177
12
Frame=5 idx=000784 GeodesicLength=0.6532080544295835 rxn_smarts="[N:1]([C:2](=[O:3])[C@@:4]1([H:9])[C:5]([H:10])([H:11])[N:6]1[H:12])([H:7])[H:8]>>[N:1]([C@@:2]1([O:3][H:12])[C@@:4]2([H:9])[C:5]([H:10])([H:11])[N:6]12)([H:7])[H:8]"
N        1.70234023       0.14219730      -0.35952830
C        0.69242938       0.34887773       0.47702080
O        0.92580527       0.11851307       1.74601662
C       -0.70137015       0.59648515       0.09062544
C       -1.31544318      -0.40215927      -0.80190831
N       -1.15726052      -0.68944974       0.59555091
H        2.57408518      -0.23703795      -0.02744707
H        1.51765550       0.11053180      -1.34577163
H       -1.16451829       1.54932354       0.35568737
H       -0.69490776      -0.91289304      -1.54238316
H       -2.32383704      -0.19424856      -1.16472752
H       -0.05497861      -0.43014003       1.97686485
12
Frame=6 idx=000784 GeodesicLength=0.7837720759932135 rxn_smarts="[N:1]([C:2](=[O:3])[C@@:4]1([H:9])[C:5]([H:10])([H:11])[N:6]1[H:12])([H:7])[H:8]>>[N:1]([C@@:2]1([O:3][H:12])[C@@:4]2([H:9])[C:5]([H:10])([H:11])[N:6]12)([H:7])[H:8]"
N        1.70393576       0.13414431      -0.36060700
C        0.69507301       0.36959941       0.47503112
O        0.92333880       0.15737794       1.74837072
C       -0.70043187       0.60684105       0.08701695
C       -1.30904617      -0.38999739      -0.80895914
N       -1.10784175      -0.70460066       0.57812341
H        2.57699275      -0.23151413      -0.01729622
H        1.50947091       0.03540533      -1.34047054
H       -1.18621460       1.53684588       0.38679958
H       -0.69525727      -0.86989503      -1.57396362
H       -2.33253579      -0.20501042      -1.13832542
H       -0.07748379      -0.43919629       1.96428016
12
Frame=7 idx=000784 GeodesicLength=0.9143200260348124 rxn_smarts="[N:1]([C:2](=[O:3])[C@@:4]1([H:9])[C:5]([H:10])([H:11])[N:6]1[H:12])([H:7])[H:8]>>[N:1]([C@@:2]1([O:3][H:12])[C@@:4]2([H:9])[C:5]([H:10])([H:11])[N:6]12)([H:7])[H:8]"
N        1.70509045       0.12627274      -0.36235166
C        0.69769443       0.38924867       0.47243690
O        0.92147944       0.19489842       1.74959330
C       -0.69951391       0.61740985       0.08359934
C       -1.30303432      -0.37784984      -0.81542657
N       -1.05967567      -0.71707784       0.56018502
H        2.58050284      -0.22323150      -0.00869063
H        1.50067966      -0.04010938      -1.33095553
H       -1.20620814       1.52362028       0.41673838
H       -0.69673238      -0.82707813      -1.60343991
H       -2.33958907      -0.21645000      -1.11249191
H       -0.10069333      -0.44965327       1.95080327
12
Frame=8 idx=000784 GeodesicLength=1.0448472304895682 rxn_smarts="[N:1]([C:2](=[O:3])[C@@:4]1([H:9])[C:5]([H:10])([H:11])[N:6]1[H:12])([H:7])[H:8]>>[N:1]([C@@:2]1([O:3][H:12])[C@@:4]2([H:9])[C:5]([H:10])([H:11])[N:6]12)([H:7])[H:8]"
N        1.70576043       0.11862893      -0.36485203
C        0.70028559       0.40784379       0.46934319
O        0.92038766       0.23134470       1.74980965
C       -0.69865218       0.62815457       0.08044244
C       -1.29725968      -0.36581764      -0.82132291
N       -1.01291327      -0.72705337       0.54197824
H        2.58431186      -0.21290515      -0.00203338
H        1.49127447      -0.11539745      -1.31718972
H       -1.22457520       1.50981194       0.44551477
H       -0.69892917      -0.78455857      -1.63076809
H       -2.34492324      -0.22852276      -1.08743864
H       -0.12476726      -0.46152900       1.93651649
12
Frame=9 idx=000784 GeodesicLength=1.1754056458463151 rxn_smarts="[N:1]([C:2](=[O:3])[C@@:4]1([H:9])[C:5]([H:10])([H:11])[N:6]1[H:12])([H:7])[H:8]>>[N:1]([C@@:2]1([O:3][H:12])[C@@:4]2([H:9])[C:5]([H:10])([H:11])[N:6]12)([H:7])[H:8]"
N        1.70584466       0.11110645      -0.36823116
C        0.70282034       0.42525190       0.46581778
O        0.92017669       0.26684858       1.74907783
C       -0.69783915       0.63901183       0.07760687
C       -1.29162109      -0.35392549      -0.82665606
N       -0.96780309      -0.73468339       0.52374056
H        2.58838961      -0.20034097       0.00233566
H        1.48123610      -0.19036069      -1.29907303
H       -1.24124035       1.49557108       0.47318215
H       -0.70156155      -0.74257054      -1.65583648
H       -2.34847492      -0.24091542      -1.06338529
H       -0.14992725      -0.47499335       1.92142116
12
Frame=10 idx=000784 GeodesicLength=1.3059723611694694 rxn_smarts="[N:1]([C:2](=[O:3])[C@@:4]1([H:9])[C:5]([H:10])([H:11])[N:6]1[H:12])([H:7])[H:8]>>[N:1]([C@@:2]1([O:3][H:12])[C@@:4]2([H:9])[C:5]([H:10])([H:11])[N:6]12)([H:7])[H:8]"
N        1.70535249       0.10371559      -0.37246417
C        0.70531597       0.44166482       0.46198356
O        0.92103953       0.30203632       1.74754637
C       -0.69713265       0.64992669       0.07515999
C       -1.28588368      -0.34240702      -0.83141789
N       -0.92428240      -0.74019599       0.50578560
H        2.59196307      -0.18791122       0.00426148
H        1.47063104      -0.26273241      -1.27724789
H       -1.25646899       1.48099421       0.49972948
H       -0.70408157      -0.70144308      -1.67856264
H       -2.35016429      -0.25387452      -1.04051498
H       -0.17628852      -0.48977339       1.90574110
12
Frame=11 idx=000784 GeodesicLength=1.436583262277568 rxn_smarts="[N:1]([C:2](=[O:3])[C@@:4]1([H:9])[C:5]([H:10])([H:11])[N:6]1[H:12])([H:7])[H:8]>>[N:1]([C@@:2]1([O:3][H:12])[C@@:4]2([H:9])[C:5]([H:10])([H:11])[N:6]12)([H:7])[H:8]"
N        1.70430293       0.09637105      -0.37747652
C        0.70777563       0.45712970       0.45791227
O        0.92307349       0.33743553       1.74527108
C       -0.69652943       0.66080875       0.07314335
C       -1.27989482      -0.33140404      -0.83557107
N       -0.88232974      -0.74380072       0.48839011
H        2.59462265      -0.17707058       0.00392941
H        1.45952365      -0.33086062      -1.25263533
H       -1.27035519       1.46612739       0.52517251
H       -0.70616109      -0.66155640      -1.69885298
H       -2.34996198      -0.26742269      -1.01888276
H       -0.20406609      -0.50575739       1.88959992
12
Frame=12 idx=000784 GeodesicLength=1.5672683556401317 rxn_smarts="[N:1]([C:2](=[O:3])[C@@:4]1([H:9])[C:5]([H:10])([H:11])[N:6]1[H:12])([H:7])[H:8]>>[N:1]([C@@:2]1([O:3][H:12])[C@@:4]2([H:9])[C:5]([H:10])([H:11])[N:6]12)([H:7])[H:8]"
N        1.70280535       0.08900287      -0.38310670
C        0.71022500       0.47170739       0.45366723
O        0.92635272       0.37363597       1.74228325
C       -0.69601020       0.67156549       0.07158799
C       -1.27357517      -0.32103736      -0.83907373
N       -0.84186202      -0.74572225       0.47177649
H        2.59611413      -0.16911826       0.00181355
H        1.44802950      -0.39332474      -1.22646313
H       -1.28299162       1.45099022       0.54955507
H       -0.70762696      -0.62322419      -1.71672140
H       -2.34794596      -0.28160996      -0.99841505
H       -0.23351478      -0.52286515       1.87309642
12
Frame=13 idx=000784 GeodesicLength=1.698021231762143 rxn_smarts="[N:1]([C:2](=[O:3])[C@@:4]1([H:9])[C:5]([H:10])([H:11])[N:6]1[H:12])([H:7])[H:8]>>[N:1]([C@@:2]1([O:3][H:12])[C@@:4]2([H:9])[C:5]([H:10])([H:11])[N:6]12)([H:7])[H:8]"
N        1.70093477       0.08153959      -0.38918171
C        0.71266659       0.48534529       0.44932097
O        0.93097296       0.41103848       1.73858590
C       -0.69555075       0.68213664       0.07050443
C       -1.26692858      -0.31129763      -0.84193535
N       -0.80277459      -0.74619136       0.45605380
H        2.59651395      -0.16412648      -0.00159131
H        1.43616279      -0.44986861      -1.19961118
H       -1.29437690       1.43567670       0.57295744
H       -0.70852838      -0.58677400      -1.73224370
H       -2.34425338      -0.29618436      -0.97904849
H       -0.26483848      -0.54129426       1.85618920
12
Frame=14 idx=000784 GeodesicLength=1.828833925250463 rxn_smarts="[N:1]([C:2](=[O:3])[C@@:4]1([H:9])[C:5]([H:10])([H:11])[N:6]1[H:12])([H:7])[H:8]>>[N:1]([C@@:2]1([O:3][H:12])[C@@:4]2([H:9])[C:5]([H:10])([H:11])[N:6]12)([H:7])[H:8]"
N        1.69890338       0.07400583      -0.39551538
C        0.71515442       0.49812073       0.44492986
O        0.93701737       0.45022454       1.73412391
C       -0.69512288       0.69245410       0.06994057
C       -1.25999319      -0.30222472      -0.84411225
N       -0.76494693      -0.74541127       0.44131956
H        2.59586257      -0.16266453      -0.00569073
H        1.42412547      -0.50011754      -1.17317731
H       -1.30459664       1.42018412       0.59550988
H       -0.70890779      -0.55224616      -1.74560175
H       -2.33910047      -0.31119847      -0.96056036
H       -0.29839530      -0.56112664       1.83883399
12
Frame=15 idx=000784 GeodesicLength=1.9597046048222952 rxn_smarts="[N:1]([C:2](=[O:3])[C@@:4]1([H:9])[C:5]([H:10])([H:11])[N:6]1[H:12])([H:7])[H:8]>>[N:1]([C@@:2]1([O:3][H:12])[C@@:4]2([H:9])[C:5]([H:10])([H:11])[N:6]12)([H:7])[H:8]"
N        1.69681653       0.06641017      -0.40196958
C        0.71770983       0.51003706       0.44053409
O        0.94458493       0.49164470       1.72874426
C       -0.69467993       0.70247295       0.06993293
C       -1.25280082      -0.29376309      -0.84557208
N       -0.72823808      -0.74356473       0.42760101
H        2.59430015      -0.16444592      -0.01004950
H        1.41200077      -0.54453644      -1.14770266
H       -1.31363948       1.40452393       0.61736610
H       -0.70888423      -0.51960880      -1.75695007
H       -2.33263482      -0.32650130      -0.94274324
H       -0.33453485      -0.58266853       1.82080873
12
Frame=16 idx=000784 GeodesicLength=2.0906124519011193 rxn_smarts="[N:1]([C:2](=[O:3])[C@@:4]1([H:9])[C:5]([H:10])([H:11])[N:6]1[H:12])([H:7])[H:8]>>[N:1]([C@@:2]1([O:3][H:12])[C@@:4]2([H:9])[C:5]([H:10])([H:11])[N:6]12)([H:7])[H:8]"
N        1.69478675       0.05877536      -0.40843078
C        0.72036852       0.52112874       0.43618581
O        0.95382480       0.53582243       1.72225019
C       -0.69418860       0.71217029       0.07054355
C       -1.24539257      -0.28586326      -0.84628272
N       -0.69250732      -0.74081207       0.41492409
H        2.59196162      -0.16919354      -0.01430565
H        1.39988487      -0.58368730      -1.12355331
H       -1.32151129       1.38871735       0.63872190
H       -0.70857653      -0.48877340      -1.76645431
H       -2.32501087      -0.34198419      -0.92541250
H       -0.37363938      -0.60630040       1.80181373
