17
Frame=0 idx=010094 GeodesicLength=0.0 rxn_smarts="[C:1]([C:2]([O:3][C@@:4]([C:5]([H:14])([H:15])[H:16])([C:6](=[O:7])[H:17])[H:13])([H:11])[H:12])([H:8])([H:9])[H:10]>>[C-:6]#[O+:7].[C:1]([C:2]([O:3][C:4](=[C:5]([H:14])[H:16])[H:13])([H:11])[H:12])([H:8])([H:9])[H:10].[H:15][H:17]"
C        2.60560246      -0.75733097       0.17303177
C        1.10703112      -0.92658272       0.22691980
O        0.51490757       0.34628969       0.41417938
C       -0.82794016       0.34198398       0.58331787
C       -1.49749173       1.54976633       0.52474378
C       -1.63950432      -0.42190799      -1.28328537
O       -2.37611933      -1.26427024      -1.52103371
H        2.97836239      -0.31902191       1.09940333
H        3.08650038      -1.72631955       0.03111117
H        2.88712250      -0.10620235      -0.65506878
H        0.72504168      -1.36142845      -0.70586777
H        0.81523971      -1.59270123       1.04874011
H       -1.24198785      -0.51555620       1.10855757
H       -0.90904171       2.45955407       0.49919642
H       -1.88236019       1.60200663      -0.88947051
H       -2.46820821       1.61337224       1.00006535
H       -1.87715429       1.07834875      -1.65454043
17
Frame=1 idx=010094 GeodesicLength=0.13495716056351414 rxn_smarts="[C:1]([C:2]([O:3][C@@:4]([C:5]([H:14])([H:15])[H:16])([C:6](=[O:7])[H:17])[H:13])([H:11])[H:12])([H:8])([H:9])[H:10]>>[C-:6]#[O+:7].[C:1]([C:2]([O:3][C:4](=[C:5]([H:14])[H:16])[H:13])([H:11])[H:12])([H:8])([H:9])[H:10].[H:15][H:17]"
C        2.61236414      -0.77435399       0.18957817
C        1.11278597      -0.93550446       0.23863614
O        0.52360684       0.34414967       0.38373269
C       -0.82149989       0.34992525       0.54125985
C       -1.48092679       1.56553972       0.53588288
C       -1.60948616      -0.39605857      -1.33249326
O       -2.25971979      -1.28736179      -1.63874782
H        2.98078143      -0.31451224       1.10721312
H        3.08941911      -1.74888554       0.07499827
H        2.90206072      -0.14592541      -0.65311542
H        0.73620476      -1.40095731      -0.68141547
H        0.81383408      -1.57599356       1.07822548
H       -1.23666249      -0.50362402       1.07414254
H       -0.89792319       2.47405978       0.43648637
H       -2.01547288       1.60996507      -0.83851420
H       -2.38904576       1.65814385       1.11858485
H       -2.06032009       1.08139355      -1.63445419
17
Frame=2 idx=010094 GeodesicLength=0.2631081377618564 rxn_smarts="[C:1]([C:2]([O:3][C@@:4]([C:5]([H:14])([H:15])[H:16])([C:6](=[O:7])[H:17])[H:13])([H:11])[H:12])([H:8])([H:9])[H:10]>>[C-:6]#[O+:7].[C:1]([C:2]([O:3][C:4](=[C:5]([H:14])[H:16])[H:13])([H:11])[H:12])([H:8])([H:9])[H:10].[H:15][H:17]"
C        2.61766615      -0.79186281       0.20656352
C        1.11692227      -0.94297310       0.25034280
O        0.53286138       0.34284064       0.35606159
C       -0.81453246       0.36001143       0.50057285
C       -1.46329599       1.58190145       0.54246582
C       -1.57671370      -0.36217300      -1.38488283
O       -2.13651896      -1.28816684      -1.76216136
H        2.98265168      -0.31279504       1.11569236
H        3.08934947      -1.77172091       0.11765133
H        2.91628442      -0.18541733      -0.64899423
H        0.74467988      -1.43610901      -0.65687368
H        0.80982067      -1.55843870       1.10567461
H       -1.23284470      -0.49033587       1.03801240
H       -0.89635814       2.48850460       0.36292232
H       -2.14791227       1.60429583      -0.77512253
H       -2.29498815       1.70355253       1.22567429
H       -2.24707156       1.05888614      -1.59359926
17
Frame=3 idx=010094 GeodesicLength=0.3850678775972521 rxn_smarts="[C:1]([C:2]([O:3][C@@:4]([C:5]([H:14])([H:15])[H:16])([C:6](=[O:7])[H:17])[H:13])([H:11])[H:12])([H:8])([H:9])[H:10]>>[C-:6]#[O+:7].[C:1]([C:2]([O:3][C:4](=[C:5]([H:14])[H:16])[H:13])([H:11])[H:12])([H:8])([H:9])[H:10].[H:15][H:17]"
C        2.62119014      -0.80970543       0.22418487
C        1.11917254      -0.94873737       0.26070667
O        0.54256079       0.34283627       0.33109940
C       -0.80690818       0.37232852       0.46189475
C       -1.44552073       1.59914684       0.54365469
C       -1.54233901      -0.31938315      -1.43938156
O       -2.01125948      -1.26549881      -1.88703726
H        2.98290910      -0.31539454       1.12641570
H        3.08583547      -1.79472416       0.15786399
H        2.93027002      -0.22285923      -0.64126112
H        0.75063314      -1.46512446      -0.63491025
H        0.80240698      -1.54135873       1.12869117
H       -1.23009506      -0.47537193       1.00152397
H       -0.90585387       2.50224345       0.28061851
H       -2.27534783       1.58418369      -0.70076245
H       -2.18835149       1.75182602       1.31734957
H       -2.42930254       1.00559301      -1.53065067
17
Frame=4 idx=010094 GeodesicLength=0.5024825670778176 rxn_smarts="[C:1]([C:2]([O:3][C@@:4]([C:5]([H:14])([H:15])[H:16])([C:6](=[O:7])[H:17])[H:13])([H:11])[H:12])([H:8])([H:9])[H:10]>>[C-:6]#[O+:7].[C:1]([C:2]([O:3][C:4](=[C:5]([H:14])[H:16])[H:13])([H:11])[H:12])([H:8])([H:9])[H:10].[H:15][H:17]"
C        2.62281078      -0.82722071       0.24000062
C        1.11954678      -0.95266937       0.27090945
O        0.55203648       0.34436883       0.30939284
C       -0.79906941       0.38628056       0.42813502
C       -1.43040694       1.61627598       0.54129757
C       -1.50953846      -0.27146561      -1.49042828
O       -1.89425346      -1.21853870      -2.01244916
H        2.98326671      -0.31971570       1.13540240
H        3.07905279      -1.81737259       0.19405300
H        2.94163997      -0.25917929      -0.63441157
H        0.75252437      -1.48985132      -0.61296535
H        0.79386590      -1.52351906       1.15026637
H       -1.22774340      -0.45923675       0.96856086
H       -0.92802498       2.51463696       0.19926885
H       -2.38873014       1.55241533      -0.62109218
H       -2.08039299       1.80007383       1.38853439
H       -2.58658399       0.92471759      -1.45447483
17
Frame=5 idx=010094 GeodesicLength=0.617400218615727 rxn_smarts="[C:1]([C:2]([O:3][C@@:4]([C:5]([H:14])([H:15])[H:16])([C:6](=[O:7])[H:17])[H:13])([H:11])[H:12])([H:8])([H:9])[H:10]>>[C-:6]#[O+:7].[C:1]([C:2]([O:3][C:4](=[C:5]([H:14])[H:16])[H:13])([H:11])[H:12])([H:8])([H:9])[H:10].[H:15][H:17]"
C        2.62272926      -0.84416188       0.25343178
C        1.11829302      -0.95499971       0.28120755
O        0.56089212       0.34708525       0.29056903
C       -0.79143892       0.40104063       0.39945352
C       -1.41905361       1.63256477       0.53666699
C       -1.47928549      -0.22120895      -1.53635209
O       -1.79025511      -1.15088035      -2.13496367
H        2.98415696      -0.32480494       1.14162189
H        3.06955552      -1.83931817       0.22607116
H        2.94992882      -0.29458933      -0.62961349
H        0.75050425      -1.51141641      -0.59031392
H        0.78515052      -1.50474462       1.17128326
H       -1.22529360      -0.44239581       0.94057634
H       -0.96107880       2.52491147       0.12334664
H       -2.48703092       1.51120822      -0.53949878
H       -1.97612303       1.84820535       1.44082187
H       -2.71165100       0.82350447      -1.37430808
17
Frame=6 idx=010094 GeodesicLength=0.7321086148585135 rxn_smarts="[C:1]([C:2]([O:3][C@@:4]([C:5]([H:14])([H:15])[H:16])([C:6](=[O:7])[H:17])[H:13])([H:11])[H:12])([H:8])([H:9])[H:10]>>[C-:6]#[O+:7].[C:1]([C:2]([O:3][C:4](=[C:5]([H:14])[H:16])[H:13])([H:11])[H:12])([H:8])([H:9])[H:10].[H:15][H:17]"
C        2.62197181      -0.85973839       0.26624379
C        1.11661601      -0.95635583       0.29097533
O        0.56917483       0.35002322       0.27166861
C       -0.78390407       0.41507129       0.37365101
C       -1.41066317       1.64688455       0.53061010
C       -1.45395225      -0.17211264      -1.57732733
O       -1.70961539      -1.06633092      -2.25278716
H        2.98454116      -0.32835927       1.14681690
H        3.05945850      -1.85941959       0.25789956
H        2.95704957      -0.32895409      -0.62527694
H        0.74709251      -1.53090615      -0.56788454
H        0.77693406      -1.48533503       1.19125930
H       -1.22155235      -0.42608625       0.91683057
H       -1.00238676       2.53182847       0.05366665
H       -2.57178399       1.46296726      -0.45627234
H       -1.87464862       1.89497184       1.47810087
H       -2.80433185       0.71185152      -1.29817437
17
Frame=7 idx=010094 GeodesicLength=0.847751779376736 rxn_smarts="[C:1]([C:2]([O:3][C@@:4]([C:5]([H:14])([H:15])[H:16])([C:6](=[O:7])[H:17])[H:13])([H:11])[H:12])([H:8])([H:9])[H:10]>>[C-:6]#[O+:7].[C:1]([C:2]([O:3][C:4](=[C:5]([H:14])[H:16])[H:13])([H:11])[H:12])([H:8])([H:9])[H:10].[H:15][H:17]"
C        2.62005605      -0.87486302       0.27688182
C        1.11396395      -0.95674958       0.30141792
O        0.57677196       0.35335581       0.25490924
C       -0.77681094       0.42897647       0.35154015
C       -1.40567396       1.65987059       0.52414807
C       -1.43041748      -0.12354573      -1.61361803
O       -1.64262963      -0.96885924      -2.36417857
H        2.98588003      -0.33207868       1.14904401
H        3.04765519      -1.87879642       0.28640047
H        2.96119263      -0.36306087      -0.62336310
H        0.74080629      -1.54911714      -0.54354467
H        0.76957225      -1.46482106       1.21204983
H       -1.21720643      -0.40961073       0.89802997
H       -1.05090478       2.53615648      -0.00880261
H       -2.64393232       1.40896539      -0.37291589
H       -1.77907068       1.94157612       1.50187264
H       -2.86925215       0.59260161      -1.22987124
17
Frame=8 idx=010094 GeodesicLength=0.965313909796479 rxn_smarts="[C:1]([C:2]([O:3][C@@:4]([C:5]([H:14])([H:15])[H:16])([C:6](=[O:7])[H:17])[H:13])([H:11])[H:12])([H:8])([H:9])[H:10]>>[C-:6]#[O+:7].[C:1]([C:2]([O:3][C:4](=[C:5]([H:14])[H:16])[H:13])([H:11])[H:12])([H:8])([H:9])[H:10].[H:15][H:17]"
C        2.61773280      -0.88946432       0.28686296
C        1.11102841      -0.95660130       0.31191120
O        0.58391074       0.35660580       0.23837989
C       -0.77001232       0.44231304       0.33122797
C       -1.40306107       1.67148484       0.51738348
C       -1.40952998      -0.07601748      -1.64675749
O       -1.59252019      -0.86028842      -2.46901324
H        2.98748191      -0.33511839       1.15004106
H        3.03539914      -1.89728113       0.31449652
H        2.96413238      -0.39722574      -0.62220669
H        0.73329631      -1.56641663      -0.51842924
H        0.76293544      -1.44352993       1.23279548
H       -1.21191037      -0.39333824       0.88259493
H       -1.10466513       2.53783484      -0.06458232
H       -2.70494192       1.35163340      -0.28954706
H       -1.68780858       1.98761863       1.51434043
H       -2.91146759       0.46779103      -1.16949789
17
Frame=9 idx=010094 GeodesicLength=1.0850327828322288 rxn_smarts="[C:1]([C:2]([O:3][C@@:4]([C:5]([H:14])([H:15])[H:16])([C:6](=[O:7])[H:17])[H:13])([H:11])[H:12])([H:8])([H:9])[H:10]>>[C-:6]#[O+:7].[C:1]([C:2]([O:3][C:4](=[C:5]([H:14])[H:16])[H:13])([H:11])[H:12])([H:8])([H:9])[H:10].[H:15][H:17]"
C        2.61491506      -0.90378468       0.29631822
C        1.10774239      -0.95605383       0.32282161
O        0.59054634       0.35957537       0.22205602
C       -0.76359852       0.45503966       0.31234326
C       -1.40263864       1.68176133       0.51044757
C       -1.39051015      -0.02935099      -1.67739567
O       -1.55716306      -0.74023598      -2.56806581
H        2.98940175      -0.33740114       1.14959055
H        3.02255504      -1.91506581       0.34270582
H        2.96567505      -0.43211873      -0.62190903
H        0.72447476      -1.58326784      -0.49185040
H        0.75699231      -1.42119627       1.25407831
H       -1.20589590      -0.37730209       0.87002693
H       -1.16313442       2.53660927      -0.11463880
H       -2.75634772       1.29121200      -0.20564610
H       -1.59935654       2.03407979       1.51663012
H       -2.93365774       0.33749995      -1.11751259
17
Frame=10 idx=010094 GeodesicLength=1.2065813082724668 rxn_smarts="[C:1]([C:2]([O:3][C@@:4]([C:5]([H:14])([H:15])[H:16])([C:6](=[O:7])[H:17])[H:13])([H:11])[H:12])([H:8])([H:9])[H:10]>>[C-:6]#[O+:7].[C:1]([C:2]([O:3][C:4](=[C:5]([H:14])[H:16])[H:13])([H:11])[H:12])([H:8])([H:9])[H:10].[H:15][H:17]"
C        2.61171863      -0.91766077       0.30600315
C        1.10426347      -0.95530932       0.33374453
O        0.59663209       0.36192496       0.20500971
C       -0.75760228       0.46686359       0.29379089
C       -1.40370257       1.69060541       0.50340806
C       -1.37338256       0.01663012      -1.70660699
O       -1.53834332      -0.61031524      -2.65940598
H        2.99095201      -0.33868806       1.14866673
H        3.00948718      -1.93183816       0.37217113
H        2.96649239      -0.46747929      -0.62139542
H        0.71512192      -1.59972395      -0.46451858
H        0.75140491      -1.39810401       1.27523164
H       -1.19917779      -0.36177863       0.85924463
H       -1.22505116       2.53254021      -0.15896227
H       -2.79877487       1.22958635      -0.12129733
H       -1.51267991       2.08025551       1.50933995
H       -2.93735814       0.20249129      -1.07442384
17
Frame=11 idx=010094 GeodesicLength=1.3287532091280274 rxn_smarts="[C:1]([C:2]([O:3][C@@:4]([C:5]([H:14])([H:15])[H:16])([C:6](=[O:7])[H:17])[H:13])([H:11])[H:12])([H:8])([H:9])[H:10]>>[C-:6]#[O+:7].[C:1]([C:2]([O:3][C:4](=[C:5]([H:14])[H:16])[H:13])([H:11])[H:12])([H:8])([H:9])[H:10].[H:15][H:17]"
C        2.60755802      -0.93164433       0.31441122
C        1.09999959      -0.95426817       0.34539206
O        0.60195511       0.36393311       0.18929371
C       -0.75235226       0.47823998       0.27676420
C       -1.40654761       1.69850882       0.49692544
C       -1.35583677       0.06331918      -1.73425773
O       -1.52979306      -0.47282555      -2.74026196
H        2.99309659      -0.34001149       1.14529962
H        2.99525301      -1.94826055       0.40034502
H        2.96480063      -0.50381130      -0.62251734
H        0.70367488      -1.61577971      -0.43509338
H        0.74644483      -1.37400096       1.29728928
H       -1.19250043      -0.34635725       0.85093920
H       -1.29042780       2.52556858      -0.19781522
H       -2.83307854       1.16694003      -0.03653258
H       -1.43016790       2.12761538       1.49255656
H       -2.92207828       0.06283423      -1.04273810
17
Frame=12 idx=010094 GeodesicLength=1.45174718676575 rxn_smarts="[C:1]([C:2]([O:3][C@@:4]([C:5]([H:14])([H:15])[H:16])([C:6](=[O:7])[H:17])[H:13])([H:11])[H:12])([H:8])([H:9])[H:10]>>[C-:6]#[O+:7].[C:1]([C:2]([O:3][C:4](=[C:5]([H:14])[H:16])[H:13])([H:11])[H:12])([H:8])([H:9])[H:10].[H:15][H:17]"
C        2.60262387      -0.94560168       0.32284252
C        1.09510921      -0.95310221       0.35676528
O        0.60654156       0.36543383       0.17334939
C       -0.74779070       0.48918751       0.25993395
C       -1.41029450       1.70581802       0.49079260
C       -1.33895552       0.11124047      -1.76133255
O       -1.53484377      -0.32985696      -2.80941428
H        2.99458424      -0.34150120       1.14165450
H        2.98024894      -1.96417183       0.42877610
H        2.96207965      -0.54044939      -0.62323742
H        0.69130305      -1.63105139      -0.40552887
H        0.74122077      -1.34959352       1.31863056
H       -1.18574014      -0.33097771       0.84388096
H       -1.35849792       2.51623064      -0.23133453
H       -2.85997064       1.10533136       0.04950667
H       -1.34995691       2.17555034       1.46659103
H       -2.88766118      -0.08248630      -1.02187591
17
Frame=13 idx=010094 GeodesicLength=1.5755502014506424 rxn_smarts="[C:1]([C:2]([O:3][C@@:4]([C:5]([H:14])([H:15])[H:16])([C:6](=[O:7])[H:17])[H:13])([H:11])[H:12])([H:8])([H:9])[H:10]>>[C-:6]#[O+:7].[C:1]([C:2]([O:3][C:4](=[C:5]([H:14])[H:16])[H:13])([H:11])[H:12])([H:8])([H:9])[H:10].[H:15][H:17]"
C        2.59664899      -0.95963494       0.33143000
C        1.08932211      -0.95189815       0.36775487
O        0.61024660       0.36635584       0.15713413
C       -0.74405578       0.49982682       0.24320065
C       -1.41454172       1.71288432       0.48502280
C       -1.32264555       0.16094611      -1.78793196
O       -1.55378670      -0.18218856      -2.86586372
H        2.99503008      -0.34343612       1.13802950
H        2.96415534      -1.97967246       0.45743039
H        2.95825363      -0.57730317      -0.62324945
H        0.67783120      -1.64549556      -0.37609132
H        0.73527733      -1.32508034       1.33902300
H       -1.17920648      -0.31545746       0.83784132
H       -1.42911565       2.50448646      -0.25986280
H       -2.88003397       1.04573894       0.13808363
H       -1.27162838       2.22457409       1.43096950
H       -2.83175105      -0.23464584      -1.01292055
17
Frame=14 idx=010094 GeodesicLength=1.7000304306772578 rxn_smarts="[C:1]([C:2]([O:3][C@@:4]([C:5]([H:14])([H:15])[H:16])([C:6](=[O:7])[H:17])[H:13])([H:11])[H:12])([H:8])([H:9])[H:10]>>[C-:6]#[O+:7].[C:1]([C:2]([O:3][C:4](=[C:5]([H:14])[H:16])[H:13])([H:11])[H:12])([H:8])([H:9])[H:10].[H:15][H:17]"
C        2.58899156      -0.97408417       0.33932009
C        1.08203712      -0.95057813       0.37867411
O        0.61271496       0.36698089       0.14157295
C       -0.74150827       0.51060199       0.22713529
C       -1.41930535       1.72036505       0.48000059
C       -1.30599186       0.21378816      -1.81390123
O       -1.58447446      -0.03294522      -2.90767853
H        2.99461942      -0.34625956       1.13323481
H        2.94616278      -1.99520324       0.48514310
H        2.95200827      -0.61481788      -0.62370995
H        0.66207314      -1.65901219      -0.34617333
H        0.72850229      -1.30025738       1.35901340
H       -1.17359096      -0.29943820       0.83296098
H       -1.50233475       2.49060826      -0.28312803
H       -2.89380292       0.98943068       0.23035248
H       -1.19669728       2.27524419       1.38570079
H       -2.74940367      -0.39442326      -1.01851752
17
Frame=15 idx=010094 GeodesicLength=1.8259573530976911 rxn_smarts="[C:1]([C:2]([O:3][C@@:4]([C:5]([H:14])([H:15])[H:16])([C:6](=[O:7])[H:17])[H:13])([H:11])[H:12])([H:8])([H:9])[H:10]>>[C-:6]#[O+:7].[C:1]([C:2]([O:3][C:4](=[C:5]([H:14])[H:16])[H:13])([H:11])[H:12])([H:8])([H:9])[H:10].[H:15][H:17]"
C        2.57901468      -0.98916993       0.34649375
C        1.07263126      -0.94914389       0.38928399
O        0.61355575       0.36744683       0.12656947
C       -0.74049700       0.52194027       0.21165460
C       -1.42430581       1.72898503       0.47587550
C       -1.28927024       0.27099364      -1.83921380
O       -1.62807809       0.11431204      -2.93333177
H        2.99268284      -0.35044137       1.12744649
H        2.92550851      -2.01106455       0.51170603
H        2.94287255      -0.65302035      -0.62449674
H        0.64338944      -1.67133509      -0.31625038
H        0.72010861      -1.27526320       1.37824632
H       -1.16955906      -0.28258360       0.82874731
H       -1.57846427       2.47495746      -0.30074476
H       -2.90159915       0.93813961       0.32854716
H       -1.12513838       2.32777800       1.33051488
H       -2.63285163      -0.56253090      -1.04104806
17
Frame=16 idx=010094 GeodesicLength=1.9552750643413472 rxn_smarts="[C:1]([C:2]([O:3][C@@:4]([C:5]([H:14])([H:15])[H:16])([C:6](=[O:7])[H:17])[H:13])([H:11])[H:12])([H:8])([H:9])[H:10]>>[C-:6]#[O+:7].[C:1]([C:2]([O:3][C:4](=[C:5]([H:14])[H:16])[H:13])([H:11])[H:12])([H:8])([H:9])[H:10].[H:15][H:17]"
C        2.56570647      -1.00529460       0.35277798
C        1.06013535      -0.94764118       0.39928993
O        0.61219053       0.36798982       0.11234405
C       -0.74151681       0.53446907       0.19699587
C       -1.42943487       1.73970058       0.47287156
C       -1.27290715       0.33376021      -1.86348685
O       -1.68663840       0.25434985      -2.94080546
H        2.98827521      -0.35695897       1.12092990
H        2.90095206      -2.02785822       0.53633120
H        2.92999410      -0.69178235      -0.62556013
H        0.62072516      -1.68210201      -0.28700269
H        0.70895649      -1.25052607       1.39625448
H       -1.16811215      -0.26454960       0.82470585
H       -1.65849133       2.45759500      -0.31224259
H       -2.90334987       0.89374479       0.43597474
H       -1.05730612       2.38314824       1.26451766
H       -2.46917866      -0.73804458      -1.08389550
