12
Frame=0 idx=007778 GeodesicLength=0.0 rxn_smarts="[C:1]([c:2]1[n:3][n:4]([H:11])[c:5](=[O:6])[n:7]1[H:12])([H:8])([H:9])[H:10]>>[C:1]([C:2](/[N:3]=[N:4]\[C:5](=[O:6])[H:11])=[N:7]\[H:12])([H:8])([H:9])[H:10]"
C        1.87921232      -0.03276660       0.08299768
C        0.41056070      -0.20829000       0.05517447
N       -0.19930274      -1.26541161       0.67191129
N       -1.46820045      -1.20374605       0.49722966
C       -1.84125350       0.03391864      -0.21482210
O       -2.77097493       0.26122340      -0.98363056
N       -0.47394558       0.60588131      -0.43133847
H        2.23209521       0.52156015      -0.78533506
H        2.35051760      -1.01386144       0.11556212
H        2.17014980       0.50906114       0.98536934
H       -1.97531529       0.33167362       0.94477707
H       -0.31354315       1.46075747      -0.93789543
12
Frame=1 idx=007778 GeodesicLength=0.08798638358941469 rxn_smarts="[C:1]([c:2]1[n:3][n:4]([H:11])[c:5](=[O:6])[n:7]1[H:12])([H:8])([H:9])[H:10]>>[C:1]([C:2](/[N:3]=[N:4]\[C:5](=[O:6])[H:11])=[N:7]\[H:12])([H:8])([H:9])[H:10]"
C        1.88331968      -0.03830218       0.07361817
C        0.41169968      -0.19089543       0.07337596
N       -0.20006245      -1.25754031       0.67131085
N       -1.46814048      -1.19965061       0.48486898
C       -1.84697437       0.03305097      -0.22195939
O       -2.75673878       0.24727345      -1.01491382
N       -0.46934508       0.64117714      -0.39123067
H        2.23236156       0.46037863      -0.82954887
H        2.34563670      -1.02101333       0.15224734
H        2.19478145       0.54749133       0.94083726
H       -2.02843690       0.28222541       0.95605853
H       -0.29810101       1.49580492      -0.89466434
12
Frame=2 idx=007778 GeodesicLength=0.17586659463845059 rxn_smarts="[C:1]([c:2]1[n:3][n:4]([H:11])[c:5](=[O:6])[n:7]1[H:12])([H:8])([H:9])[H:10]>>[C:1]([C:2](/[N:3]=[N:4]\[C:5](=[O:6])[H:11])=[N:7]\[H:12])([H:8])([H:9])[H:10]"
C        1.88661752      -0.04354418       0.06416983
C        0.41290453      -0.17347913       0.09316955
N       -0.20095753      -1.24958076       0.67160238
N       -1.46797335      -1.19520949       0.47253720
C       -1.85191176       0.03299193      -0.22879250
O       -2.74011412       0.23507217      -1.04606867
N       -0.46472045       0.67503721      -0.35070261
H        2.22800581       0.39781931      -0.87143887
H        2.34137531      -1.02501053       0.18877065
H        2.21965062       0.58473278       0.89261105
H       -2.08080980       0.23143975       0.96432374
H       -0.28206679       1.52973093      -0.85018174
12
Frame=3 idx=007778 GeodesicLength=0.26367382166546194 rxn_smarts="[C:1]([c:2]1[n:3][n:4]([H:11])[c:5](=[O:6])[n:7]1[H:12])([H:8])([H:9])[H:10]>>[C:1]([C:2](/[N:3]=[N:4]\[C:5](=[O:6])[H:11])=[N:7]\[H:12])([H:8])([H:9])[H:10]"
C        1.88913242      -0.04855106       0.05460229
C        0.41423559      -0.15599163       0.11471163
N       -0.20193811      -1.24149045       0.67286261
N       -1.46765664      -1.19043856       0.46020499
C       -1.85617200       0.03368442      -0.23539136
O       -2.72125395       0.22442865      -1.07720497
N       -0.46000822       0.70754309      -0.30991566
H        2.21884789       0.33366827      -0.91098166
H        2.33786912      -1.02587170       0.22532094
H        2.24473471       0.62075434       0.84040696
H       -2.13229298       0.17931150       0.96937168
H       -0.26549782       1.56295313      -0.80398745
12
Frame=4 idx=007778 GeodesicLength=0.3509982243561563 rxn_smarts="[C:1]([c:2]1[n:3][n:4]([H:11])[c:5](=[O:6])[n:7]1[H:12])([H:8])([H:9])[H:10]>>[C:1]([C:2](/[N:3]=[N:4]\[C:5](=[O:6])[H:11])=[N:7]\[H:12])([H:8])([H:9])[H:10]"
C        1.89064561      -0.05308246       0.04547915
C        0.41568079      -0.13920507       0.13617981
N       -0.20292188      -1.23359275       0.67362276
N       -1.46710341      -1.18485883       0.44822653
C       -1.85982373       0.03539872      -0.24100611
O       -2.70105396       0.21602410      -1.10607755
N       -0.45500155       0.73796552      -0.27057107
H        2.20651648       0.26977117      -0.94623641
H        2.33525573      -1.02325512       0.26116365
H        2.26766032       0.65460243       0.78608772
H       -2.18159942       0.12646666       0.97220927
H       -0.24825500       1.59376562      -0.75907776
12
Frame=5 idx=007778 GeodesicLength=0.4382805548505127 rxn_smarts="[C:1]([c:2]1[n:3][n:4]([H:11])[c:5](=[O:6])[n:7]1[H:12])([H:8])([H:9])[H:10]>>[C:1]([C:2](/[N:3]=[N:4]\[C:5](=[O:6])[H:11])=[N:7]\[H:12])([H:8])([H:9])[H:10]"
C        1.89166276      -0.05718754       0.03687348
C        0.41734889      -0.12348478       0.15670087
N       -0.20387595      -1.22619783       0.67371056
N       -1.46667568      -1.17866226       0.43689072
C       -1.86352917       0.03811808      -0.24555431
O       -2.68089046       0.20963118      -1.13255122
N       -0.44965250       0.76652088      -0.23325731
H        2.19206309       0.20667189      -0.97703192
H        2.33398847      -1.01754868       0.29649727
H        2.28852426       0.68620695       0.73043804
H       -2.22857897       0.07321471       0.97313732
H       -0.23038476       1.62271739      -0.71585349
12
Frame=6 idx=007778 GeodesicLength=0.5254557226010568 rxn_smarts="[C:1]([c:2]1[n:3][n:4]([H:11])[c:5](=[O:6])[n:7]1[H:12])([H:8])([H:9])[H:10]>>[C:1]([C:2](/[N:3]=[N:4]\[C:5](=[O:6])[H:11])=[N:7]\[H:12])([H:8])([H:9])[H:10]"
C        1.89214299      -0.06097634       0.02856156
C        0.41920563      -0.10848379       0.17664441
N       -0.20481017      -1.21873362       0.67387466
N       -1.46616708      -1.17183330       0.42609962
C       -1.86720256       0.04168536      -0.24915235
O       -2.66025878       0.20484990      -1.15712106
N       -0.44391080       0.79367032      -0.19740427
H        2.17566273       0.14415634      -1.00381270
H        2.33370766      -1.00907727       0.33093454
H        2.30744373       0.71546089       0.67319561
H       -2.27393435       0.01910458       0.97194703
H       -0.21187899       1.65017694      -0.67376704
12
Frame=7 idx=007778 GeodesicLength=0.6125316497050365 rxn_smarts="[C:1]([c:2]1[n:3][n:4]([H:11])[c:5](=[O:6])[n:7]1[H:12])([H:8])([H:9])[H:10]>>[C:1]([C:2](/[N:3]=[N:4]\[C:5](=[O:6])[H:11])=[N:7]\[H:12])([H:8])([H:9])[H:10]"
C        1.89222471      -0.06450327       0.02055061
C        0.42126505      -0.09423513       0.19562809
N       -0.20567435      -1.21108660       0.67427974
N       -1.46557101      -1.16435440       0.41601544
C       -1.87105308       0.04606053      -0.25174767
O       -2.63955686       0.20150904      -1.17975071
N       -0.43775747       0.81963241      -0.16314402
H        2.15798738       0.08265614      -1.02657900
H        2.33439035      -0.99823032       0.36417895
H        2.32431059       0.74215463       0.61496838
H       -2.31776845      -0.03588263       0.96875462
H       -0.19279686       1.67627959      -0.63315443
12
Frame=8 idx=007778 GeodesicLength=0.6994688415732261 rxn_smarts="[C:1]([c:2]1[n:3][n:4]([H:11])[c:5](=[O:6])[n:7]1[H:12])([H:8])([H:9])[H:10]>>[C:1]([C:2](/[N:3]=[N:4]\[C:5](=[O:6])[H:11])=[N:7]\[H:12])([H:8])([H:9])[H:10]"
C        1.89210487      -0.06782176       0.01285563
C        0.42353732      -0.08077016       0.21324959
N       -0.20637660      -1.20321663       0.67489441
N       -1.46490766      -1.15617606       0.40674110
C       -1.87535319       0.05125590      -0.25324104
O       -2.61926833       0.19952615      -1.20033591
N       -0.43121707       0.84458268      -0.13063222
H        2.13986230       0.02240105      -1.04535581
H        2.33608847      -0.98527464       0.39607846
H        2.33896862       0.76613638       0.55635337
H       -2.36018270      -0.09177378       0.96372620
H       -0.17325602       1.70113087      -0.59433380
12
Frame=9 idx=007778 GeodesicLength=0.7863358304514235 rxn_smarts="[C:1]([c:2]1[n:3][n:4]([H:11])[c:5](=[O:6])[n:7]1[H:12])([H:8])([H:9])[H:10]>>[C:1]([C:2](/[N:3]=[N:4]\[C:5](=[O:6])[H:11])=[N:7]\[H:12])([H:8])([H:9])[H:10]"
C        1.89166661      -0.07082983       0.00541953
C        0.42586493      -0.06801119       0.22907996
N       -0.20738081      -1.19471582       0.67559494
N       -1.46444278      -1.14705188       0.39849702
C       -1.87997826       0.05705176      -0.25343534
O       -2.59916028       0.19850866      -1.21827315
N       -0.42398459       0.86846139      -0.09997607
H        2.12187939      -0.03604495      -1.06007955
H        2.33807821      -0.97029819       0.42625228
H        2.35131776       0.78733250       0.49767986
H       -2.40115819      -0.14883220       0.95660452
H       -0.15270201       1.72442974      -0.55736399
12
Frame=10 idx=007778 GeodesicLength=0.873146069368241 rxn_smarts="[C:1]([c:2]1[n:3][n:4]([H:11])[c:5](=[O:6])[n:7]1[H:12])([H:8])([H:9])[H:10]>>[C:1]([C:2](/[N:3]=[N:4]\[C:5](=[O:6])[H:11])=[N:7]\[H:12])([H:8])([H:9])[H:10]"
C        1.89108057      -0.07379009      -0.00200106
C        0.42838777      -0.05553757       0.24412617
N       -0.20829058      -1.18551864       0.67746214
N       -1.46384206      -1.13728695       0.39114371
C       -1.88511332       0.06346977      -0.25270240
O       -2.57912250       0.19844636      -1.23484763
N       -0.41636666       0.89197758      -0.07034082
H        2.10342251      -0.09374729      -1.07176748
H        2.34082196      -0.95376848       0.45499659
H        2.36210077       0.80602914       0.43823171
H       -2.44137792      -0.20753142       0.94691926
H       -0.13170052       1.74725760      -0.52122019
12
Frame=11 idx=007778 GeodesicLength=0.9599417262047666 rxn_smarts="[C:1]([c:2]1[n:3][n:4]([H:11])[c:5](=[O:6])[n:7]1[H:12])([H:8])([H:9])[H:10]>>[C:1]([C:2](/[N:3]=[N:4]\[C:5](=[O:6])[H:11])=[N:7]\[H:12])([H:8])([H:9])[H:10]"
C        1.89026886      -0.07675143      -0.00955389
C        0.43107459      -0.04312908       0.25870336
N       -0.20921515      -1.17537623       0.68090097
N       -1.46310848      -1.12680669       0.38479540
C       -1.89069285       0.07041268      -0.25108411
O       -2.55876744       0.19919253      -1.25022544
N       -0.40833455       0.91532122      -0.04139520
H        2.08430455      -0.15090677      -1.08068600
H        2.34418953      -0.93573781       0.48219500
H        2.37138951       0.82220394       0.37765508
H       -2.48094981      -0.26823464       0.93413233
H       -0.11015877       1.76981228      -0.48543750
12
Frame=12 idx=007778 GeodesicLength=1.046775752892345 rxn_smarts="[C:1]([c:2]1[n:3][n:4]([H:11])[c:5](=[O:6])[n:7]1[H:12])([H:8])([H:9])[H:10]>>[C:1]([C:2](/[N:3]=[N:4]\[C:5](=[O:6])[H:11])=[N:7]\[H:12])([H:8])([H:9])[H:10]"
C        1.88893964      -0.07965154      -0.01733426
C        0.43384746      -0.03064805       0.27290666
N       -0.21041731      -1.16409014       0.68593360
N       -1.46230977      -1.11549874       0.37946976
C       -1.89652332       0.07780165      -0.24843153
O       -2.53758244       0.20067912      -1.26408582
N       -0.39964563       0.93849969      -0.01300093
H        2.06415543      -0.20752531      -1.08673844
H        2.34767581      -0.91595815       0.50779935
H        2.37903203       0.83580809       0.31565529
H       -2.51953131      -0.33135056       0.91771418
H       -0.08764060       1.79193395      -0.44988786
12
Frame=13 idx=007778 GeodesicLength=1.1335299106727477 rxn_smarts="[C:1]([c:2]1[n:3][n:4]([H:11])[c:5](=[O:6])[n:7]1[H:12])([H:8])([H:9])[H:10]>>[C:1]([C:2](/[N:3]=[N:4]\[C:5](=[O:6])[H:11])=[N:7]\[H:12])([H:8])([H:9])[H:10]"
C        1.88757763      -0.08261938      -0.02507102
C        0.43676599      -0.01829695       0.28616961
N       -0.21155952      -1.15211737       0.69207789
N       -1.46158111      -1.10340163       0.37552985
C       -1.90324899       0.08577389      -0.24467513
O       -2.51707573       0.20313767      -1.27629682
N       -0.39055677       0.96170321       0.01432254
H        2.04419026      -0.26321990      -1.09004853
H        2.35194782      -0.89511888       0.53190324
H        2.38502327       0.84688968       0.25353353
H       -2.55686508      -0.39652149       0.89803586
H       -0.06461776       1.81379115      -0.41548103
12
Frame=14 idx=007778 GeodesicLength=1.2201050406873837 rxn_smarts="[C:1]([c:2]1[n:3][n:4]([H:11])[c:5](=[O:6])[n:7]1[H:12])([H:8])([H:9])[H:10]>>[C:1]([C:2](/[N:3]=[N:4]\[C:5](=[O:6])[H:11])=[N:7]\[H:12])([H:8])([H:9])[H:10]"
C        1.88598640      -0.08548454      -0.03268977
C        0.43961795      -0.00622813       0.29789530
N       -0.21302269      -1.13944587       0.69854750
N       -1.46123329      -1.09022996       0.37320685
C       -1.91074263       0.09424613      -0.23946518
O       -2.49715264       0.20658430      -1.28594714
N       -0.38077674       0.98457799       0.04018212
H        2.02507438      -0.31739414      -1.09029937
H        2.35621800      -0.87297850       0.55443281
H        2.38893944       0.85540027       0.19176729
H       -2.59234788      -0.46377157       0.87508811
H       -0.04056029       1.83472402      -0.38271852
12
Frame=15 idx=007778 GeodesicLength=1.3066176756106676 rxn_smarts="[C:1]([c:2]1[n:3][n:4]([H:11])[c:5](=[O:6])[n:7]1[H:12])([H:8])([H:9])[H:10]>>[C:1]([C:2](/[N:3]=[N:4]\[C:5](=[O:6])[H:11])=[N:7]\[H:12])([H:8])([H:9])[H:10]"
C        1.88425898      -0.08835056      -0.04020980
C        0.44245893       0.00572952       0.30836528
N       -0.21466525      -1.12610384       0.70557381
N       -1.46132866      -1.07604244       0.37268597
C       -1.91925286       0.10321071      -0.23285389
O       -2.47818409       0.21091236      -1.29333466
N       -0.37036941       1.00745797       0.06476782
H        2.00652922      -0.37028557      -1.08782252
H        2.36070534      -0.84986244       0.57545461
H        2.39123109       0.86144856       0.13045972
H       -2.62577629      -0.53323576       0.84840639
H       -0.01560700       1.85512148      -0.35149273
12
Frame=16 idx=007778 GeodesicLength=1.3929805956626504 rxn_smarts="[C:1]([c:2]1[n:3][n:4]([H:11])[c:5](=[O:6])[n:7]1[H:12])([H:8])([H:9])[H:10]>>[C:1]([C:2](/[N:3]=[N:4]\[C:5](=[O:6])[H:11])=[N:7]\[H:12])([H:8])([H:9])[H:10]"
C        1.88227645      -0.09131599      -0.04775812
C        0.44523762       0.01771659       0.31795759
N       -0.21648192      -1.11201658       0.71347094
N       -1.46187467      -1.06076961       0.37424257
C       -1.92875523       0.11263727      -0.22490623
O       -2.45982542       0.21608580      -1.29876882
N       -0.35941506       1.03052141       0.08841263
H        1.98820991      -0.42229590      -1.08291712
H        2.36541093      -0.82577424       0.59504154
H        2.39185213       0.86506316       0.06914093
H       -2.65680793      -0.60509664       0.81738041
H        0.01017319       1.87524472      -0.32129632
