9
Frame=0 idx=002790 GeodesicLength=0.0 rxn_smarts="[O:1]=[C:2]1[C:3]([H:7])([H:8])[N:4]=[C:5]([H:9])[O:6]1>>[O:1]=[C:2]1[C:3]([H:7])([H:8])[N:4]([H:9])[C-:5]=[O+:6]1"
O       -1.60249902       1.52279016       0.49846210
C       -0.66963344       0.85805744       0.20313582
C       -0.54655645      -0.61694044      -0.09025397
N        0.85647950      -0.78101520      -0.46519331
C        1.46707471       0.39587887      -0.34041894
O        0.61150468       1.37607054       0.05248409
H       -0.80669965      -1.22821517       0.77368929
H       -1.19742944      -0.90445123      -0.91595304
H        1.88775908      -0.62217496       0.28404799
9
Frame=1 idx=002790 GeodesicLength=0.029368005884221025 rxn_smarts="[O:1]=[C:2]1[C:3]([H:7])([H:8])[N:4]=[C:5]([H:9])[O:6]1>>[O:1]=[C:2]1[C:3]([H:7])([H:8])[N:4]([H:9])[C-:5]=[O+:6]1"
O       -1.60677704       1.52411704       0.49033194
C       -0.67178409       0.85885603       0.20281654
C       -0.54751928      -0.61670513      -0.08886063
N        0.85532588      -0.77813907      -0.46105727
C        1.46407138       0.39682233      -0.33999247
O        0.61060607       1.37555055       0.06227952
H       -0.81034420      -1.22546547       0.77610893
H       -1.19711980      -0.90524252      -0.91532873
H        1.90354107      -0.62979377       0.27370216
9
Frame=2 idx=002790 GeodesicLength=0.0587347195991722 rxn_smarts="[O:1]=[C:2]1[C:3]([H:7])([H:8])[N:4]=[C:5]([H:9])[O:6]1>>[O:1]=[C:2]1[C:3]([H:7])([H:8])[N:4]([H:9])[C-:5]=[O+:6]1"
O       -1.61104940       1.52548987       0.48204367
C       -0.67398477       0.85967930       0.20244073
C       -0.54850399      -0.61646986      -0.08740167
N        0.85421682      -0.77528968      -0.45659374
C        1.46104050       0.39779771      -0.33936130
O        0.60965041       1.37495882       0.07226849
H       -0.81415048      -1.22265701       0.77857667
H       -1.19669679      -0.90607596      -0.91472603
H        1.91947770      -0.63743320       0.26275319
9
Frame=3 idx=002790 GeodesicLength=0.08810127702305588 rxn_smarts="[O:1]=[C:2]1[C:3]([H:7])([H:8])[N:4]=[C:5]([H:9])[O:6]1>>[O:1]=[C:2]1[C:3]([H:7])([H:8])[N:4]([H:9])[C-:5]=[O+:6]1"
O       -1.61529694       1.52689628       0.47364921
C       -0.67622837       0.86052446       0.20200925
C       -0.54950953      -0.61623518      -0.08588210
N        0.85316016      -0.77247531      -0.45176958
C        1.45798753       0.39879856      -0.33851600
O        0.60862408       1.37430838       0.08237872
H       -0.81813624      -1.21979410       0.78107600
H       -1.19614563      -0.90694389      -0.91416146
H        1.93554495      -0.64507920       0.25121595
9
Frame=4 idx=002790 GeodesicLength=0.11749813268731843 rxn_smarts="[O:1]=[C:2]1[C:3]([H:7])([H:8])[N:4]=[C:5]([H:9])[O:6]1>>[O:1]=[C:2]1[C:3]([H:7])([H:8])[N:4]([H:9])[C-:5]=[O+:6]1"
O       -1.61951086       1.52832805       0.46520521
C       -0.67851200       0.86139191       0.20152626
C       -0.55053417      -0.61600087      -0.08430746
N        0.85216716      -0.76970506      -0.44655479
C        1.45491973       0.39981858      -0.33744937
O        0.60751371       1.37361385       0.09253005
H       -0.82231669      -1.21688285       0.78359246
H       -1.19545156      -0.90783633      -0.91365467
H        1.95172468      -0.65272728       0.23911230
9
Frame=5 idx=002790 GeodesicLength=0.14686281187867145 rxn_smarts="[O:1]=[C:2]1[C:3]([H:7])([H:8])[N:4]=[C:5]([H:9])[O:6]1>>[O:1]=[C:2]1[C:3]([H:7])([H:8])[N:4]([H:9])[C-:5]=[O+:6]1"
O       -1.62365552       1.52976096       0.45675538
C       -0.68081469       0.86227164       0.20099381
C       -0.55157291      -0.61576794      -0.08268173
N        0.85123966      -0.76698291      -0.44091474
C        1.45184207       0.40085142      -0.33615612
O        0.60630356       1.37289754       0.10265721
H       -0.82670626      -1.21392754       0.78610270
H       -1.19459514      -0.90874699      -0.91321227
H        1.96795923      -0.66035619       0.22645577
9
Frame=6 idx=002790 GeodesicLength=0.17615786790974727 rxn_smarts="[O:1]=[C:2]1[C:3]([H:7])([H:8])[N:4]=[C:5]([H:9])[O:6]1>>[O:1]=[C:2]1[C:3]([H:7])([H:8])[N:4]([H:9])[C-:5]=[O+:6]1"
O       -1.62774698       1.53119645       0.44837623
C       -0.68314054       0.86316845       0.20041978
C       -0.55262032      -0.61553740      -0.08101351
N        0.85041388      -0.76433293      -0.43483067
C        1.44878178       0.40187901      -0.33464483
O        0.60498404       1.37218333       0.11267306
H       -0.83131502      -1.21093372       0.78860455
H       -1.19356782      -0.90966416      -0.91287048
H        1.98421098      -0.66795902       0.21328587
9
Frame=7 idx=002790 GeodesicLength=0.20551530829021764 rxn_smarts="[O:1]=[C:2]1[C:3]([H:7])([H:8])[N:4]=[C:5]([H:9])[O:6]1>>[O:1]=[C:2]1[C:3]([H:7])([H:8])[N:4]([H:9])[C-:5]=[O+:6]1"
O       -1.63180044       1.53260831       0.44015882
C       -0.68549704       0.86408592       0.19980767
C       -0.55367479      -0.61530116      -0.07931494
N        0.84971706      -0.76173717      -0.42829901
C        1.44576372       0.40291498      -0.33290349
O        0.60355550       1.37149392       0.12244137
H       -0.83614828      -1.20790527       0.79109140
H       -1.19236954      -0.91057696      -0.91265474
H        2.00045381      -0.67558256       0.19967291
9
Frame=8 idx=002790 GeodesicLength=0.23465134404913368 rxn_smarts="[O:1]=[C:2]1[C:3]([H:7])([H:8])[N:4]=[C:5]([H:9])[O:6]1>>[O:1]=[C:2]1[C:3]([H:7])([H:8])[N:4]([H:9])[C-:5]=[O+:6]1"
O       -1.63569689       1.53395817       0.43215038
C       -0.68784356       0.86500993       0.19910577
C       -0.55473760      -0.61506824      -0.07758678
N        0.84901109      -0.75920833      -0.42124260
C        1.44273241       0.40388963      -0.33076684
O        0.60200767       1.37085349       0.13184952
H       -0.84121752      -1.20486348       0.79346242
H       -1.19093074      -0.91147478      -0.91251413
H        2.01667513      -0.68309639       0.18554226
9
Frame=9 idx=002790 GeodesicLength=0.26374790591578234 rxn_smarts="[O:1]=[C:2]1[C:3]([H:7])([H:8])[N:4]=[C:5]([H:9])[O:6]1>>[O:1]=[C:2]1[C:3]([H:7])([H:8])[N:4]([H:9])[C-:5]=[O+:6]1"
O       -1.63955979       1.53528830       0.42427404
C       -0.69021044       0.86595049       0.19837900
C       -0.55580015      -0.61483540      -0.07581985
N        0.84842629      -0.75675900      -0.41368913
C        1.43974317       0.40484213      -0.32838687
O        0.60035714       1.37027100       0.14104190
H       -0.84651880      -1.20177753       0.79580175
H       -1.18929273      -0.91237854      -0.91249745
H        2.03285531      -0.69060144       0.17089662
9
Frame=10 idx=002790 GeodesicLength=0.2928127508164542 rxn_smarts="[O:1]=[C:2]1[C:3]([H:7])([H:8])[N:4]=[C:5]([H:9])[O:6]1>>[O:1]=[C:2]1[C:3]([H:7])([H:8])[N:4]([H:9])[C-:5]=[O+:6]1"
O       -1.64339085       1.53659452       0.41646623
C       -0.69259161       0.86690664       0.19761435
C       -0.55685298      -0.61459682      -0.07399807
N        0.84795606      -0.75435297      -0.40563021
C        1.43680451       0.40579157      -0.32572540
O        0.59859105       1.36973259       0.15006007
H       -0.85204495      -1.19865676       0.79812638
H       -1.18743530      -0.91328390      -0.91257467
H        2.04896408      -0.69813485       0.15566133
9
Frame=11 idx=002790 GeodesicLength=0.3218371201141153 rxn_smarts="[O:1]=[C:2]1[C:3]([H:7])([H:8])[N:4]=[C:5]([H:9])[O:6]1>>[O:1]=[C:2]1[C:3]([H:7])([H:8])[N:4]([H:9])[C-:5]=[O+:6]1"
O       -1.64719947       1.53789328       0.40864062
C       -0.69499140       0.86787792       0.19682377
C       -0.55789895      -0.61435801      -0.07210423
N        0.84758210      -0.75200223      -0.39701140
C        1.43389435       0.40672616      -0.32274038
O        0.59672784       1.36924437       0.15898612
H       -0.85781748      -1.19548997       0.80043254
H       -1.18533752      -0.91420898      -0.91273085
H        2.06504053      -0.70568255       0.13970381
9
Frame=12 idx=002790 GeodesicLength=0.3508865654459978 rxn_smarts="[O:1]=[C:2]1[C:3]([H:7])([H:8])[N:4]=[C:5]([H:9])[O:6]1>>[O:1]=[C:2]1[C:3]([H:7])([H:8])[N:4]([H:9])[C-:5]=[O+:6]1"
O       -1.65100470       1.53919471       0.40071155
C       -0.69741550       0.86886761       0.19600386
C       -0.55893397      -0.61411680      -0.07011992
N        0.84730570      -0.74968947      -0.38780654
C        1.43101751       0.40765899      -0.31939734
O        0.59476213       1.36879487       0.16790289
H       -0.86383758      -1.19226641       0.80274157
H       -1.18298269      -0.91516491      -0.91294850
H        2.08108911      -0.71327860       0.12291243
9
Frame=13 idx=002790 GeodesicLength=0.3800161132930869 rxn_smarts="[O:1]=[C:2]1[C:3]([H:7])([H:8])[N:4]=[C:5]([H:9])[O:6]1>>[O:1]=[C:2]1[C:3]([H:7])([H:8])[N:4]([H:9])[C-:5]=[O+:6]1"
O       -1.65482665       1.54051739       0.39255737
C       -0.69987015       0.86987726       0.19517081
C       -0.55995364      -0.61387277      -0.06801910
N        0.84712950      -0.74740317      -0.37796281
C        1.42816932       0.40860265      -0.31564834
O        0.59269268       1.36837512       0.17691334
H       -0.87011873      -1.18897767       0.80507333
H       -1.18034387      -0.91616633      -0.91320881
H        2.09712154      -0.72095249       0.10512422
9
Frame=14 idx=002790 GeodesicLength=0.40896161997021063 rxn_smarts="[O:1]=[C:2]1[C:3]([H:7])([H:8])[N:4]=[C:5]([H:9])[O:6]1>>[O:1]=[C:2]1[C:3]([H:7])([H:8])[N:4]([H:9])[C-:5]=[O+:6]1"
O       -1.65864292       1.54183561       0.38425386
C       -0.70234234       0.87090162       0.19430040
C       -0.56094507      -0.61362885      -0.06580843
N        0.84706765      -0.74515687      -0.36744604
C        1.42538549       0.40952258      -0.31143308
O        0.59052096       1.36801502       0.18592154
H       -0.87666525      -1.18562207       0.80740935
H       -1.17738688      -0.91721426      -0.91352566
H        2.11300835      -0.72865279       0.08632808
9
Frame=15 idx=002790 GeodesicLength=0.4379580581572351 rxn_smarts="[O:1]=[C:2]1[C:3]([H:7])([H:8])[N:4]=[C:5]([H:9])[O:6]1>>[O:1]=[C:2]1[C:3]([H:7])([H:8])[N:4]([H:9])[C-:5]=[O+:6]1"
O       -1.66248166       1.54316544       0.37569134
C       -0.70484629       0.87195133       0.19338978
C       -0.56190346      -0.61338141      -0.06346204
N        0.84712520      -0.74292957      -0.35618857
C        1.42265873       0.41044729      -0.30669992
O        0.58823472       1.36770797       0.19502835
H       -0.88349335      -1.18218426       0.80977185
H       -1.17407780      -0.91832828      -0.91388430
H        2.12878391      -0.73644852       0.06635349
9
Frame=16 idx=002790 GeodesicLength=0.46694491635487534 rxn_smarts="[O:1]=[C:2]1[C:3]([H:7])([H:8])[N:4]=[C:5]([H:9])[O:6]1>>[O:1]=[C:2]1[C:3]([H:7])([H:8])[N:4]([H:9])[C-:5]=[O+:6]1"
O       -1.66635445       1.54451957       0.36673966
C       -0.70738502       0.87302701       0.19243436
C       -0.56282086      -0.61313249      -0.06094684
N        0.84731248      -0.74071934      -0.34408926
C        1.42000169       0.41137283      -0.30134284
O        0.58582997       1.36745147       0.20433960
H       -0.89063841      -1.17864724       0.81218198
H       -1.17036359      -0.91953130      -0.91426733
H        2.14441819      -0.74434051       0.04495067
