14
Frame=0 idx=003043 GeodesicLength=0.0 rxn_smarts="[O:1]([C:2]([C:3]1([O:4][H:10])[C:5]([H:11])([H:12])[C:6]1([H:13])[H:14])([H:8])[H:9])[H:7]>>[C:3]1([O:4][H:10])=[C:6]([H:14])[C:5]1([H:11])[H:12].[H:7][H:13].[O:1]=[C:2]([H:8])[H:9]"
O        1.48691786      -0.89887796      -1.25619787
C        1.54409500       0.04437155      -0.45079253
C       -0.28945614       0.59986088       0.43284914
O       -0.03698554       1.84237748       0.91109656
C       -0.88991028      -0.67065929       0.93958488
C       -1.26443329       0.06922189      -0.30545620
H        0.03203648      -1.00625916      -1.75538366
H        1.66099358       1.07639263      -0.81357012
H        1.88398909      -0.15472332       0.57718380
H        0.71531683       1.80125977       1.50722834
H       -1.62042859      -0.67743595       1.74822496
H       -0.28791034      -1.57556429       0.86482296
H       -0.74854873      -0.80018715      -1.61216369
H       -2.18567593       0.35022293      -0.78742655
14
Frame=1 idx=003043 GeodesicLength=0.15118086950679904 rxn_smarts="[O:1]([C:2]([C:3]1([O:4][H:10])[C:5]([H:11])([H:12])[C:6]1([H:13])[H:14])([H:8])[H:9])[H:7]>>[C:3]1([O:4][H:10])=[C:6]([H:14])[C:5]1([H:11])[H:12].[H:7][H:13].[O:1]=[C:2]([H:8])[H:9]"
O        1.50229146      -0.93601491      -1.20040434
C        1.54464591       0.06632427      -0.46363028
C       -0.29251942       0.59897012       0.43344759
O       -0.02799456       1.82024773       0.95806614
C       -0.90918312      -0.66529850       0.93537280
C       -1.27799066       0.08361129      -0.30664347
H        0.07320787      -1.04378501      -1.74758367
H        1.63062641       1.07007063      -0.90571040
H        1.94902025      -0.04122775       0.55349177
H        0.72476712       1.74198205       1.55111167
H       -1.63411175      -0.66759408       1.74886868
H       -0.35107433      -1.59569624       0.84221175
H       -0.73196363      -0.82094565      -1.62636576
H       -2.19972154       0.38935607      -0.77223247
14
Frame=2 idx=003043 GeodesicLength=0.30185598777694883 rxn_smarts="[O:1]([C:2]([C:3]1([O:4][H:10])[C:5]([H:11])([H:12])[C:6]1([H:13])[H:14])([H:8])[H:9])[H:7]>>[C:3]1([O:4][H:10])=[C:6]([H:14])[C:5]1([H:11])[H:12].[H:7][H:13].[O:1]=[C:2]([H:8])[H:9]"
O        1.51897774      -0.96829842      -1.13811929
C        1.54495044       0.09015185      -0.47761024
C       -0.29503145       0.59744292       0.43618100
O       -0.01723459       1.79465688       1.00792164
C       -0.93006503      -0.66043085       0.93037337
C       -1.29066227       0.10008853      -0.30776435
H        0.11838062      -1.08617896      -1.73415637
H        1.59555319       1.05741486      -0.99939696
H        2.01293690       0.08163277       0.51648362
H        0.73553931       1.67782400       1.59582874
H       -1.65029760      -0.65853759       1.74787959
H       -0.41978091      -1.61529001       0.81766443
H       -0.71167710      -0.84336695      -1.63923604
H       -2.21158926       0.43289096      -0.75604915
14
Frame=3 idx=003043 GeodesicLength=0.45181065755519323 rxn_smarts="[O:1]([C:2]([C:3]1([O:4][H:10])[C:5]([H:11])([H:12])[C:6]1([H:13])[H:14])([H:8])[H:9])[H:7]>>[C:3]1([O:4][H:10])=[C:6]([H:14])[C:5]1([H:11])[H:12].[H:7][H:13].[O:1]=[C:2]([H:8])[H:9]"
O        1.53736629      -0.99438386      -1.06893141
C        1.54482160       0.11633017      -0.49293774
C       -0.29721639       0.59537209       0.44109178
O       -0.00425888       1.76476500       1.06152646
C       -0.95280521      -0.65597554       0.92431518
C       -1.30240202       0.11888033      -0.30894706
H        0.16819669      -1.13327136      -1.71402464
H        1.55590815       1.03774671      -1.09416949
H        2.07260925       0.21399949       0.46460136
H        0.74884891       1.60738008       1.64076615
H       -1.66926164      -0.65031185       1.74499521
H       -0.49377751      -1.63348326       0.79095797
H       -0.68705731      -0.86810500      -1.65024150
H       -2.22097193       0.48105700      -0.73900228
14
Frame=4 idx=003043 GeodesicLength=0.6009976583264577 rxn_smarts="[O:1]([C:2]([C:3]1([O:4][H:10])[C:5]([H:11])([H:12])[C:6]1([H:13])[H:14])([H:8])[H:9])[H:7]>>[C:3]1([O:4][H:10])=[C:6]([H:14])[C:5]1([H:11])[H:12].[H:7][H:13].[O:1]=[C:2]([H:8])[H:9]"
O        1.55790968      -1.01240900      -0.99274224
C        1.54391469       0.14544948      -0.50975546
C       -0.29939101       0.59290437       0.44831933
O        0.01145419       1.72946496       1.11973332
C       -0.97766633      -0.65178486       0.91698061
C       -1.31319524       0.14023598      -0.31025015
H        0.22336902      -1.18473892      -1.68578512
H        1.51191318       1.01056576      -1.18906978
H        2.12438740       0.35519783       0.39672174
H        0.76658133       1.52942785       1.68434773
H       -1.69153987      -0.64304218       1.73978958
H       -0.57270393      -1.64938137       0.76165058
H       -0.65747717      -0.89589056      -1.65868106
H       -2.22755593       0.53400064      -0.72125909
14
Frame=5 idx=003043 GeodesicLength=0.7492394364367138 rxn_smarts="[O:1]([C:2]([C:3]1([O:4][H:10])[C:5]([H:11])([H:12])[C:6]1([H:13])[H:14])([H:8])[H:9])[H:7]>>[C:3]1([O:4][H:10])=[C:6]([H:14])[C:5]1([H:11])[H:12].[H:7][H:13].[O:1]=[C:2]([H:8])[H:9]"
O        1.58115971      -1.02034442      -0.91088906
C        1.54197835       0.17761277      -0.52824638
C       -0.30191720       0.59028963       0.45757380
O        0.03030221       1.68789508       1.18226379
C       -1.00458805      -0.64765317       0.90814762
C       -1.32327357       0.16421061      -0.31164862
H        0.28447371      -1.23937969      -1.64855019
H        1.46543644       0.97559730      -1.28236970
H        2.16279469       0.50262793       0.31400058
H        0.79005516       1.44353481       1.72423137
H       -1.71666750      -0.63662449       1.73242041
H       -0.65552099      -1.66204459       0.72927986
H       -0.62268608      -0.92736279      -1.66389717
H       -2.23154689       0.59164103      -0.70231629
14
Frame=6 idx=003043 GeodesicLength=0.8966117498469677 rxn_smarts="[O:1]([C:2]([C:3]1([O:4][H:10])[C:5]([H:11])([H:12])[C:6]1([H:13])[H:14])([H:8])[H:9])[H:7]>>[C:3]1([O:4][H:10])=[C:6]([H:14])[C:5]1([H:11])[H:12].[H:7][H:13].[O:1]=[C:2]([H:8])[H:9]"
O        1.60705932      -1.01662135      -0.82488710
C        1.53855274       0.21261005      -0.54816410
C       -0.30519882       0.58781994       0.46850679
O        0.05260959       1.63950675       1.24768898
C       -1.03315158      -0.64334383       0.89776855
C       -1.33307019       0.19079188      -0.31289599
H        0.35174013      -1.29522376      -1.60186995
H        1.41893517       0.93294242      -1.37197537
H        2.18392472       0.65212299       0.21893443
H        0.81997580       1.35047081       1.75748463
H       -1.74393245      -0.63127582       1.72307183
H       -0.74101474      -1.67064503       0.69336849
H       -0.58282938      -0.96234573      -1.66559671
H       -2.23360033       0.65319069      -0.68143449
14
Frame=7 idx=003043 GeodesicLength=1.0430317952473023 rxn_smarts="[O:1]([C:2]([C:3]1([O:4][H:10])[C:5]([H:11])([H:12])[C:6]1([H:13])[H:14])([H:8])[H:9])[H:7]>>[C:3]1([O:4][H:10])=[C:6]([H:14])[C:5]1([H:11])[H:12].[H:7][H:13].[O:1]=[C:2]([H:8])[H:9]"
O        1.63565871      -1.00099511      -0.73888221
C        1.53370839       0.24912373      -0.56947651
C       -0.30933322       0.58571165       0.48018345
O        0.07775426       1.58495636       1.31314224
C       -1.06259583      -0.63870192       0.88584626
C       -1.34329437       0.21977747      -0.31358892
H        0.42457901      -1.35015595      -1.54668243
H        1.37677519       0.88353362      -1.45574108
H        2.18399025       0.79791170       0.11765733
H        0.85495628       1.25280082       1.78174345
H       -1.77117238      -0.62677898       1.71295459
H       -0.82708309      -1.67455099       0.65374740
H       -0.53904820      -1.00052055      -1.66389223
H       -2.23489501       0.71788814      -0.65701134
14
Frame=8 idx=003043 GeodesicLength=1.1894389444906417 rxn_smarts="[O:1]([C:2]([C:3]1([O:4][H:10])[C:5]([H:11])([H:12])[C:6]1([H:13])[H:14])([H:8])[H:9])[H:7]>>[C:3]1([O:4][H:10])=[C:6]([H:14])[C:5]1([H:11])[H:12].[H:7][H:13].[O:1]=[C:2]([H:8])[H:9]"
O        1.66659465      -0.97436990      -0.65459083
C        1.52732844       0.28605206      -0.59173703
C       -0.31435888       0.58411991       0.49235123
O        0.10561208       1.52494926       1.37637365
C       -1.09237686      -0.63370195       0.87242558
C       -1.35446898       0.25133078      -0.31318625
H        0.50256500      -1.40266999      -1.48319939
H        1.34078929       0.82790073      -1.53241576
H        2.16366652       0.93684134       0.01293182
H        0.89355809       1.15264804       1.79601209
H       -1.79767513      -0.62375807       1.70230620
H       -0.91299494      -1.67363089       0.61002975
H       -0.49196115      -1.04079355      -1.65927773
H       -2.23627813       0.78508224      -0.62802333
14
Frame=9 idx=003043 GeodesicLength=1.3353961411225226 rxn_smarts="[O:1]([C:2]([C:3]1([O:4][H:10])[C:5]([H:11])([H:12])[C:6]1([H:13])[H:14])([H:8])[H:9])[H:7]>>[C:3]1([O:4][H:10])=[C:6]([H:14])[C:5]1([H:11])[H:12].[H:7][H:13].[O:1]=[C:2]([H:8])[H:9]"
O        1.69965608      -0.93851097      -0.57524910
C        1.51952067       0.32168225      -0.61474498
C       -0.31980887       0.58265650       0.50439472
O        0.13489900       1.46072039       1.43502362
C       -1.12180352      -0.62833794       0.85746743
C       -1.36684011       0.28544437      -0.31127914
H        0.58448897      -1.45165468      -1.41246181
H        1.31322733       0.76733751      -1.60111550
H        2.12302364       1.06526428      -0.09020260
H        0.93369602       1.05336789       1.79992774
H       -1.82163012      -0.62220172       1.69180281
H       -0.99741014      -1.66748917       0.56209455
H       -0.44286431      -1.08246948      -1.65241479
H       -2.23815465       0.85419078      -0.59324296
14
Frame=10 idx=003043 GeodesicLength=1.4816382918462998 rxn_smarts="[O:1]([C:2]([C:3]1([O:4][H:10])[C:5]([H:11])([H:12])[C:6]1([H:13])[H:14])([H:8])[H:9])[H:7]>>[C:3]1([O:4][H:10])=[C:6]([H:14])[C:5]1([H:11])[H:12].[H:7][H:13].[O:1]=[C:2]([H:8])[H:9]"
O        1.73311975      -0.89605406      -0.50083759
C        1.51076541       0.35476160      -0.63775009
C       -0.32593821       0.58186526       0.51548539
O        0.16442804       1.39535343       1.48627079
C       -1.14977701      -0.62285708       0.84100545
C       -1.38165206       0.32205114      -0.30701234
H        0.66919333      -1.49555498      -1.33647968
H        1.29812947       0.70252063      -1.66190262
H        2.06664923       1.18023965      -0.19031664
H        0.97173660       0.95772531       1.79506323
H       -1.84065965      -0.62362461       1.68260226
H       -1.08017619      -1.65643415       0.50972766
H       -0.39303676      -1.12359271      -1.64501914
H       -2.24278195       0.92360057      -0.55083669
14
Frame=11 idx=003043 GeodesicLength=1.6284380515440762 rxn_smarts="[O:1]([C:2]([C:3]1([O:4][H:10])[C:5]([H:11])([H:12])[C:6]1([H:13])[H:14])([H:8])[H:9])[H:7]>>[C:3]1([O:4][H:10])=[C:6]([H:14])[C:5]1([H:11])[H:12].[H:7][H:13].[O:1]=[C:2]([H:8])[H:9]"
O        1.76648443      -0.84882968      -0.43161338
C        1.50115255       0.38443322      -0.66062246
C       -0.33251578       0.58163594       0.52545453
O        0.19306754       1.33050717       1.52963870
C       -1.17596570      -0.61742505       0.82277681
C       -1.39910008       0.36145715      -0.29984626
H        0.75602937      -1.53431022      -1.25578909
H        1.29597071       0.63406119      -1.71497147
H        1.99740339       1.28085145      -0.28731742
H        1.00624509       0.86744529       1.78301853
H       -1.85405669      -0.62899095       1.67442995
H       -1.16121206      -1.64022529       0.45260508
H       -0.34317349      -1.16371430      -1.63792846
H       -2.25032927       0.99310409      -0.49983506
14
Frame=12 idx=003043 GeodesicLength=1.7763429396879717 rxn_smarts="[O:1]([C:2]([C:3]1([O:4][H:10])[C:5]([H:11])([H:12])[C:6]1([H:13])[H:14])([H:8])[H:9])[H:7]>>[C:3]1([O:4][H:10])=[C:6]([H:14])[C:5]1([H:11])[H:12].[H:7][H:13].[O:1]=[C:2]([H:8])[H:9]"
O        1.80035573      -0.79809634      -0.36775619
C        1.49109745       0.41026151      -0.68336906
C       -0.33925382       0.58178213       0.53457604
O        0.22030267       1.26716730       1.56587382
C       -1.20077649      -0.61215630       0.80239370
C       -1.41896656       0.40419506      -0.28935472
H        0.84499494      -1.56851559      -1.16991568
H        1.30445687       0.56292977      -1.76005552
H        1.91796796       1.36727026      -0.38319938
H        1.03696032       0.78319182       1.76574570
H       -1.86271436      -0.63917505       1.66624267
H       -1.24081425      -1.61867675       0.39050101
H       -0.29341854      -1.20322650      -1.63173730
H       -2.26019193       1.06304870      -0.43994509
14
Frame=13 idx=003043 GeodesicLength=1.924589336487743 rxn_smarts="[O:1]([C:2]([C:3]1([O:4][H:10])[C:5]([H:11])([H:12])[C:6]1([H:13])[H:14])([H:8])[H:9])[H:7]>>[C:3]1([O:4][H:10])=[C:6]([H:14])[C:5]1([H:11])[H:12].[H:7][H:13].[O:1]=[C:2]([H:8])[H:9]"
O        1.83403043      -0.74521368      -0.30909179
C        1.48015799       0.43123418      -0.70612466
C       -0.34583721       0.58181671       0.54244535
O        0.24516676       1.20556169       1.59519400
C       -1.22414022      -0.60659286       0.77952384
C       -1.44098994       0.45056408      -0.27505619
H        0.93555181      -1.59774535      -1.07929870
H        1.32487181       0.49033559      -1.79748229
H        1.82776596       1.43803877      -0.47764693
H        1.06394158       0.70595724       1.74401524
H       -1.86630806      -0.65422761       1.65685993
H       -1.31722784      -1.59077736       0.32397344
H       -0.24493282      -1.24161564      -1.62660779
H       -2.27205027       1.13266425      -0.37070344
14
Frame=14 idx=003043 GeodesicLength=2.073618913388512 rxn_smarts="[O:1]([C:2]([C:3]1([O:4][H:10])[C:5]([H:11])([H:12])[C:6]1([H:13])[H:14])([H:8])[H:9])[H:7]>>[C:3]1([O:4][H:10])=[C:6]([H:14])[C:5]1([H:11])[H:12].[H:7][H:13].[O:1]=[C:2]([H:8])[H:9]"
O        1.86762336      -0.69059265      -0.25473717
C        1.46901720       0.44751195      -0.72869064
C       -0.35258907       0.58256356       0.54900682
O        0.26730096       1.14766681       1.61827514
C       -1.24608802      -0.60084286       0.75356489
C       -1.46550812       0.50065100      -0.25634598
H        1.02811237      -1.62215239      -0.98370904
H        1.35365573       0.41659570      -1.82683552
H        1.73243717       1.49254550      -0.57351698
H        1.08625190       0.63577843       1.72008192
H       -1.86511873      -0.67545917       1.64519905
H       -1.39124721      -1.55673254       0.25267583
H       -0.19773639      -1.27906445      -1.62410698
H       -2.28611115       1.20153110      -0.29086136
14
Frame=15 idx=003043 GeodesicLength=2.223511707435626 rxn_smarts="[O:1]([C:2]([C:3]1([O:4][H:10])[C:5]([H:11])([H:12])[C:6]1([H:13])[H:14])([H:8])[H:9])[H:7]>>[C:3]1([O:4][H:10])=[C:6]([H:14])[C:5]1([H:11])[H:12].[H:7][H:13].[O:1]=[C:2]([H:8])[H:9]"
O        1.90134442      -0.63378257      -0.20412353
C        1.45735726       0.45902985      -0.75148214
C       -0.35942257       0.58404830       0.55416592
O        0.28657601       1.09320523       1.63609883
C       -1.26684841      -0.59447239       0.72386813
C       -1.49223768       0.55475308      -0.23255770
H        1.12323029      -1.64124138      -0.88178632
H        1.38955509       0.34175005      -1.84854954
H        1.63248478       1.53030721      -0.67249007
H        1.10423009       0.57180769       1.69493876
H       -1.85934601      -0.70317132       1.62956019
H       -1.46313606      -1.51554435       0.17632427
H       -0.15217456      -1.31585458      -1.62439818
H       -2.30161266       1.26916518      -0.19956862
14
Frame=16 idx=003043 GeodesicLength=2.373804855099043 rxn_smarts="[O:1]([C:2]([C:3]1([O:4][H:10])[C:5]([H:11])([H:12])[C:6]1([H:13])[H:14])([H:8])[H:9])[H:7]>>[C:3]1([O:4][H:10])=[C:6]([H:14])[C:5]1([H:11])[H:12].[H:7][H:13].[O:1]=[C:2]([H:8])[H:9]"
O        1.93537118      -0.57417247      -0.15705262
C        1.44504896       0.46572092      -0.77467170
C       -0.36632596       0.58650364       0.55775305
O        0.30297699       1.04199233       1.64940826
C       -1.28658073      -0.58693298       0.68992465
C       -1.52082143       0.61263090      -0.20310532
H        1.22140556      -1.65394698      -0.77228451
H        1.42974866       0.26626321      -1.86266012
H        1.52977229       1.55029872      -0.77552596
H        1.11801305       0.51302056       1.66941457
H       -1.84931844      -0.73720345       1.60812608
H       -1.53270579      -1.46648180       0.09533259
H       -0.10893834      -1.35210466      -1.62801954
H       -2.31764599       1.33441206      -0.09663942
