11
Frame=0 idx=011326 GeodesicLength=0.0 rxn_smarts="[C:1]([C:2]#[C:3][C:4](=[O:5])[C:6]#[C:7][H:11])([H:8])([H:9])[H:10]>>[C:1](=[C:2]=[C:3]([C:4](=[O:5])[C:6]#[C:7][H:11])[H:9])([H:8])[H:10]"
C       -1.20947148       0.90228175      -1.44458485
C        0.22288992       0.49471004      -1.46872765
C       -0.38707849      -0.11962238      -0.44207670
C       -0.02653972      -0.24733697       0.98473655
O       -0.79090950       0.02054151       1.87730959
C        1.32357743      -0.72912964       1.20751735
C        2.43235759      -1.13930345       1.39101953
H       -1.44257769       1.92819296      -1.16699923
H       -1.60988066      -0.01056324      -0.41585857
H       -1.93309176       0.40045253      -2.07998898
H        3.42072438      -1.50022306       1.55765300
11
Frame=1 idx=011326 GeodesicLength=0.12247666273708799 rxn_smarts="[C:1]([C:2]#[C:3][C:4](=[O:5])[C:6]#[C:7][H:11])([H:8])([H:9])[H:10]>>[C:1](=[C:2]=[C:3]([C:4](=[O:5])[C:6]#[C:7][H:11])[H:9])([H:8])[H:10]"
C       -1.22289601       0.90537685      -1.46446371
C        0.20861565       0.52170807      -1.43729378
C       -0.38013278      -0.09777502      -0.40904549
C       -0.01564398      -0.23989812       1.01325255
O       -0.78226380       0.00311171       1.91097041
C        1.34294320      -0.70314393       1.22819798
C        2.43918860      -1.15127018       1.39887578
H       -1.47708007       1.93395709      -1.21756856
H       -1.62463600      -0.01483944      -0.42331423
H       -1.91032613       0.38525946      -2.12491902
H        3.42223131      -1.54248650       1.52530808
11
Frame=2 idx=011326 GeodesicLength=0.24481230098885454 rxn_smarts="[C:1]([C:2]#[C:3][C:4](=[O:5])[C:6]#[C:7][H:11])([H:8])([H:9])[H:10]>>[C:1](=[C:2]=[C:3]([C:4](=[O:5])[C:6]#[C:7][H:11])[H:9])([H:8])[H:10]"
C       -1.23696296       0.90834126      -1.48482190
C        0.19167767       0.54918707      -1.40491910
C       -0.37533049      -0.07441611      -0.37448860
C       -0.00380328      -0.23371009       1.04204099
O       -0.77061364      -0.01691607       1.94625787
C        1.36269406      -0.68057660       1.24600786
C        2.45278475      -1.15017635       1.39871209
H       -1.51110360       1.93879613      -1.26978359
H       -1.64030198      -0.01891452      -0.43059933
H       -1.88576839       0.37080122      -2.17001815
H        3.41672786      -1.59241594       1.50161185
11
Frame=3 idx=011326 GeodesicLength=0.3670755190235499 rxn_smarts="[C:1]([C:2]#[C:3][C:4](=[O:5])[C:6]#[C:7][H:11])([H:8])([H:9])[H:10]>>[C:1](=[C:2]=[C:3]([C:4](=[O:5])[C:6]#[C:7][H:11])[H:9])([H:8])[H:10]"
C       -1.24733263       0.91068976      -1.50623283
C        0.17460984       0.57112638      -1.36910840
C       -0.37432281      -0.05111015      -0.33546124
C        0.00468208      -0.22931018       1.07474102
O       -0.76075630      -0.03540797       1.98526370
C        1.37617794      -0.66824883       1.26709617
C        2.45944676      -1.15911473       1.40213614
H       -1.53627017       1.94376477      -1.32673176
H       -1.65817588      -0.01945192      -0.43707748
H       -1.85600180       0.35779908      -2.21571007
H        3.41794296      -1.62073621       1.46108475
11
Frame=4 idx=011326 GeodesicLength=0.4891477384648359 rxn_smarts="[C:1]([C:2]#[C:3][C:4](=[O:5])[C:6]#[C:7][H:11])([H:8])([H:9])[H:10]>>[C:1](=[C:2]=[C:3]([C:4](=[O:5])[C:6]#[C:7][H:11])[H:9])([H:8])[H:10]"
C       -1.25901542       0.91266788      -1.52839298
C        0.15438497       0.59678385      -1.33187830
C       -0.37507715      -0.02418673      -0.29450903
C        0.01488509      -0.22434282       1.10770913
O       -0.74769193      -0.05735630       2.02592720
C        1.39158462      -0.65552192       1.28476718
C        2.47229221      -1.15812082       1.39699557
H       -1.56367156       1.94685750      -1.38570743
H       -1.67640232      -0.02077637      -0.44381769
H       -1.82320547       0.34381026      -2.26172909
H        3.41191694      -1.65981453       1.43063543
11
Frame=5 idx=011326 GeodesicLength=0.611168951723678 rxn_smarts="[C:1]([C:2]#[C:3][C:4](=[O:5])[C:6]#[C:7][H:11])([H:8])([H:9])[H:10]>>[C:1](=[C:2]=[C:3]([C:4](=[O:5])[C:6]#[C:7][H:11])[H:9])([H:8])[H:10]"
C       -1.26837441       0.91344318      -1.55157437
C        0.13278382       0.62109937      -1.29110831
C       -0.37909277       0.00510018      -0.24900933
C        0.02325529      -0.21949946       1.14400314
O       -0.73496385      -0.07886508       2.07016657
C        1.40388162      -0.64700201       1.30398211
C        2.48129775      -1.16184612       1.39201475
H       -1.58614749       1.94834107      -1.44900089
H       -1.69593520      -0.02075419      -0.45029997
H       -1.78411747       0.32909030      -2.30815412
H        3.40741271      -1.68910724       1.38898041
11
Frame=6 idx=011326 GeodesicLength=0.7328543465680911 rxn_smarts="[C:1]([C:2]#[C:3][C:4](=[O:5])[C:6]#[C:7][H:11])([H:8])([H:9])[H:10]>>[C:1](=[C:2]=[C:3]([C:4](=[O:5])[C:6]#[C:7][H:11])[H:9])([H:8])[H:10]"
C       -1.27622307       0.91352340      -1.57574371
C        0.10845867       0.64377510      -1.24818213
C       -0.38735395       0.03734372      -0.19953156
C        0.03032322      -0.21562658       1.18219809
O       -0.72117207      -0.10172574       2.11747639
C        1.41348430      -0.64411315       1.32148746
C        2.48903959      -1.16725872       1.38067386
H       -1.60324558       1.94884708      -1.51646009
H       -1.71760810      -0.01802535      -0.45588370
H       -1.74070891       0.31412780      -2.35359815
H        3.40500590      -1.71086758       1.34756355
11
Frame=7 idx=011326 GeodesicLength=0.8544398008803354 rxn_smarts="[C:1]([C:2]#[C:3][C:4](=[O:5])[C:6]#[C:7][H:11])([H:8])([H:9])[H:10]>>[C:1](=[C:2]=[C:3]([C:4](=[O:5])[C:6]#[C:7][H:11])[H:9])([H:8])[H:10]"
C       -1.28090597       0.91227780      -1.60068137
C        0.08202202       0.66198792      -1.20252019
C       -0.40059265       0.07184496      -0.14501920
C        0.03420884      -0.21414050       1.22319580
O       -0.70802435      -0.12506222       2.16852681
C        1.41885754      -0.64663632       1.33930505
C        2.49397422      -1.17361999       1.36610461
H       -1.61071929       1.94831965      -1.58841316
H       -1.74203347      -0.01190553      -0.46032995
H       -1.69195896       0.29870776      -2.39748709
H        3.40517206      -1.72177352       1.29731868
11
Frame=8 idx=011326 GeodesicLength=0.97547710449263 rxn_smarts="[C:1]([C:2]#[C:3][C:4](=[O:5])[C:6]#[C:7][H:11])([H:8])([H:9])[H:10]>>[C:1](=[C:2]=[C:3]([C:4](=[O:5])[C:6]#[C:7][H:11])[H:9])([H:8])[H:10]"
C       -1.28432081       0.90811674      -1.62680145
C        0.05256952       0.69330113      -1.14997733
C       -0.41585974       0.11873575      -0.08367959
C        0.03967815      -0.20494862       1.26796583
O       -0.69319201      -0.15050050       2.22329709
C        1.42305367      -0.64968016       1.35494511
C        2.49514134      -1.18354789       1.34450819
H       -1.62467795       1.94015379      -1.66566356
H       -1.76334125      -0.00944343      -0.46558183
H       -1.62842993       0.27571849      -2.44065781
H        3.39937899      -1.73790530       1.24164535
11
Frame=9 idx=011326 GeodesicLength=1.096830787595251 rxn_smarts="[C:1]([C:2]#[C:3][C:4](=[O:5])[C:6]#[C:7][H:11])([H:8])([H:9])[H:10]>>[C:1](=[C:2]=[C:3]([C:4](=[O:5])[C:6]#[C:7][H:11])[H:9])([H:8])[H:10]"
C       -1.28381098       0.90310426      -1.65188396
C        0.01981451       0.70948222      -1.09865880
C       -0.43749384       0.15945273      -0.02057755
C        0.03947902      -0.20520533       1.31187237
O       -0.67791167      -0.17151533       2.27983449
C        1.42267718      -0.65696002       1.36966321
C        2.49399583      -1.19029513       1.32011137
H       -1.61880486       1.93381753      -1.74130911
H       -1.78995296      -0.00284332      -0.46951244
H       -1.56570362       0.25836028      -2.48011209
H        3.39771138      -1.73739788       1.18057253
11
Frame=10 idx=011326 GeodesicLength=1.2166662569587963 rxn_smarts="[C:1]([C:2]#[C:3][C:4](=[O:5])[C:6]#[C:7][H:11])([H:8])([H:9])[H:10]>>[C:1](=[C:2]=[C:3]([C:4](=[O:5])[C:6]#[C:7][H:11])[H:9])([H:8])[H:10]"
C       -1.28109649       0.89475445      -1.67684225
C       -0.01774679       0.73991831      -1.04048085
C       -0.46171715       0.20924895       0.04739374
C        0.04076589      -0.19802098       1.35744730
O       -0.66031714      -0.19403005       2.33798282
C        1.42120915      -0.66263085       1.38023351
C        2.49004377      -1.19508336       1.28661218
H       -1.61959693       1.91838026      -1.81826626
H       -1.81241313      -0.00179350      -0.47428350
H       -1.48516864       0.23549502      -2.51646992
H        3.38603746      -1.74623826       1.11667322
11
Frame=11 idx=011326 GeodesicLength=1.3367952078998888 rxn_smarts="[C:1]([C:2]#[C:3][C:4](=[O:5])[C:6]#[C:7][H:11])([H:8])([H:9])[H:10]>>[C:1](=[C:2]=[C:3]([C:4](=[O:5])[C:6]#[C:7][H:11])[H:9])([H:8])[H:10]"
C       -1.27648875       0.88669089      -1.70041724
C       -0.05937390       0.75332295      -0.98709907
C       -0.48957033       0.24284687       0.11090538
C        0.03819363      -0.20063001       1.39877149
O       -0.64021532      -0.20676529       2.39526454
C        1.41725347      -0.67149015       1.38941664
C        2.48518699      -1.19703411       1.25505178
H       -1.60203115       1.90724792      -1.88780651
H       -1.84224827       0.00429696      -0.47802906
H       -1.41040068       0.22138035      -2.54958559
H        3.37969433      -1.73986637       1.05352765
11
Frame=12 idx=011326 GeodesicLength=1.4565937172400505 rxn_smarts="[C:1]([C:2]#[C:3][C:4](=[O:5])[C:6]#[C:7][H:11])([H:8])([H:9])[H:10]>>[C:1](=[C:2]=[C:3]([C:4](=[O:5])[C:6]#[C:7][H:11])[H:9])([H:8])[H:10]"
C       -1.27017901       0.87610242      -1.72380700
C       -0.10798346       0.77673584      -0.92926335
C       -0.51982102       0.27562224       0.17536261
C        0.03751144      -0.19856709       1.43995327
O       -0.61655236      -0.21961539       2.45258210
C        1.41415535      -0.67604425       1.39437849
C        2.47868025      -1.19596392       1.21745549
H       -1.58883585       1.88989494      -1.95574824
H       -1.87197795       0.00725694      -0.48287660
H       -1.32027136       0.20653221      -2.57906561
H        3.36527396      -1.74195395       0.99102882
11
Frame=13 idx=011326 GeodesicLength=1.5763654310236932 rxn_smarts="[C:1]([C:2]#[C:3][C:4](=[O:5])[C:6]#[C:7][H:11])([H:8])([H:9])[H:10]>>[C:1](=[C:2]=[C:3]([C:4](=[O:5])[C:6]#[C:7][H:11])[H:9])([H:8])[H:10]"
C       -1.26361958       0.86696990      -1.74663363
C       -0.15974023       0.77319590      -0.88142459
C       -0.55209677       0.28640595       0.23232747
C        0.03349735      -0.20836562       1.47619963
O       -0.59005887      -0.22249339       2.50815480
C        1.41013079      -0.68374550       1.39992593
C        2.47435129      -1.19061534       1.18671198
H       -1.55115972       1.88142691      -2.01420254
H       -1.91446445       0.02177822      -0.48628196
H       -1.24640588       0.20170103      -2.60677111
H        3.35956606      -1.72625806       0.93199401
11
Frame=14 idx=011326 GeodesicLength=1.6956902966433365 rxn_smarts="[C:1]([C:2]#[C:3][C:4](=[O:5])[C:6]#[C:7][H:11])([H:8])([H:9])[H:10]>>[C:1](=[C:2]=[C:3]([C:4](=[O:5])[C:6]#[C:7][H:11])[H:9])([H:8])[H:10]"
C       -1.25400520       0.85443046      -1.76955140
C       -0.21964290       0.78056358      -0.82854925
C       -0.58722687       0.29830544       0.29148210
C        0.03120371      -0.21404485       1.51255820
O       -0.56141094      -0.23207018       2.56278823
C        1.40686972      -0.68702218       1.40043912
C        2.46813585      -1.18233036       1.14856815
H       -1.51527012       1.86552062      -2.07478528
H       -1.96074182       0.04139187      -0.48882700
H       -1.15561685       0.19191780      -2.62661715
H        3.34770542      -1.71666220       0.87249429
11
Frame=15 idx=011326 GeodesicLength=1.8151013997560421 rxn_smarts="[C:1]([C:2]#[C:3][C:4](=[O:5])[C:6]#[C:7][H:11])([H:8])([H:9])[H:10]>>[C:1](=[C:2]=[C:3]([C:4](=[O:5])[C:6]#[C:7][H:11])[H:9])([H:8])[H:10]"
C       -1.24264905       0.84083132      -1.79205921
C       -0.28489549       0.77717433      -0.77920235
C       -0.62472620       0.29981744       0.34789323
C        0.02709682      -0.22634687       1.54599662
O       -0.53023517      -0.24017513       2.61550426
C        1.40301811      -0.69088453       1.39859277
C        2.46208716      -1.17102784       1.11051157
H       -1.46342292       1.85078672      -2.13203942
H       -2.01788143       0.07554217      -0.48974873
H       -1.06839176       0.18165296      -2.63992870
H        3.33999994      -1.69737058       0.81447996
11
Frame=16 idx=011326 GeodesicLength=1.9344782981568733 rxn_smarts="[C:1]([C:2]#[C:3][C:4](=[O:5])[C:6]#[C:7][H:11])([H:8])([H:9])[H:10]>>[C:1](=[C:2]=[C:3]([C:4](=[O:5])[C:6]#[C:7][H:11])[H:9])([H:8])[H:10]"
C       -1.23011762       0.82568103      -1.81358495
C       -0.35570375       0.76447280      -0.73350222
C       -0.66431552       0.29141536       0.40102905
C        0.02420081      -0.23713028       1.57784305
O       -0.49632927      -0.24421991       2.66597179
C        1.40013717      -0.69104780       1.39524605
C        2.45601275      -1.15593516       1.07231677
H       -1.40339763       1.83624836      -2.17928775
H       -2.08089208       0.11282995      -0.49380766
H       -0.97958477       0.17543024      -2.64955836
H        3.32998991      -1.67774460       0.75733422
