16
Frame=0 idx=009360 GeodesicLength=0.0 rxn_smarts="[C:1]([N:2]1[C@@:3]2([H:11])[C@@:4]3([H:12])[C:5]([H:13])([H:14])[C@:6]1([H:15])[C@@:7]23[H:16])([H:8])([H:9])[H:10]>>[C:1]([N:2]([C@@:3]1([H:11])[C@@:4]2([H:12])[C:5]([H:13])([H:14])[C:6][C@@:7]12[H:16])[H:15])([H:8])([H:9])[H:10]"
C        1.91136902       0.41170271       0.06274585
N        0.97352531      -0.56815062      -0.42782212
C       -0.02569812      -1.05155347       0.47786368
C       -1.15329160      -0.07334803       0.79697789
C       -1.04221739       1.06645258      -0.20865616
C       -0.67369521       0.04030605      -1.27198471
C       -1.24988936      -1.05510675      -0.35005149
H        1.46067003       1.15513012       0.73000227
H        2.37942750       0.92369179      -0.77999181
H        2.69999659      -0.10498139       0.61820289
H        0.24160644      -1.79928815       1.21929831
H       -1.66896972      -0.09774267       1.74887032
H       -0.38642249       1.92274714      -0.03752357
H       -2.03975475       1.43083439      -0.46680972
H        0.50059438      -0.33496393      -1.54206166
H       -1.92725067      -1.86572972      -0.56906001
16
Frame=1 idx=009360 GeodesicLength=0.06429003695941995 rxn_smarts="[C:1]([N:2]1[C@@:3]2([H:11])[C@@:4]3([H:12])[C:5]([H:13])([H:14])[C@:6]1([H:15])[C@@:7]23[H:16])([H:8])([H:9])[H:10]>>[C:1]([N:2]([C@@:3]1([H:11])[C@@:4]2([H:12])[C:5]([H:13])([H:14])[C:6][C@@:7]12[H:16])[H:15])([H:8])([H:9])[H:10]"
C        1.91529165       0.40979265       0.06462227
N        0.97120355      -0.56157419      -0.43214816
C       -0.02364783      -1.04733103       0.47798495
C       -1.15395506      -0.07133067       0.79423296
C       -1.04948583       1.06899337      -0.20854625
C       -0.69146451       0.03664821      -1.26824227
C       -1.24913920      -1.06381273      -0.34888128
H        1.46830788       1.15747867       0.72994879
H        2.39309486       0.91813728      -0.77477101
H        2.69646418      -0.11310886       0.62458120
H        0.24616780      -1.79305341       1.22013413
H       -1.67637765      -0.09768826       1.74218834
H       -0.38148867       1.91654668      -0.04277949
H       -2.04526345       1.44165222      -0.45976918
H        0.50140626      -0.32116941      -1.55558323
H       -1.92111395      -1.88018051      -0.56297176
16
Frame=2 idx=009360 GeodesicLength=0.12851428251358155 rxn_smarts="[C:1]([N:2]1[C@@:3]2([H:11])[C@@:4]3([H:12])[C:5]([H:13])([H:14])[C@:6]1([H:15])[C@@:7]23[H:16])([H:8])([H:9])[H:10]>>[C:1]([N:2]([C@@:3]1([H:11])[C@@:4]2([H:12])[C:5]([H:13])([H:14])[C:6][C@@:7]12[H:16])[H:15])([H:8])([H:9])[H:10]"
C        1.91921232       0.40782668       0.06649037
N        0.96884374      -0.55492386      -0.43641857
C       -0.02162231      -1.04305920       0.47814213
C       -1.15470296      -0.06932636       0.79149094
C       -1.05673451       1.07152516      -0.20842354
C       -0.70924751       0.03290707      -1.26432538
C       -1.24827195      -1.07253441      -0.34767437
H        1.47604066       1.15979314       0.72987617
H        2.40665842       0.91237556      -0.76956743
H        2.69287921      -0.12125670       0.63084659
H        0.25069152      -1.78676500       1.22100187
H       -1.68384483      -0.09770663       1.73545561
H       -0.37672571       1.91022660      -0.04815684
H       -2.05058653       1.45255314      -0.45276540
H        0.50217499      -0.30703060      -1.56907038
H       -1.91476457      -1.89460459      -0.55690177
16
Frame=3 idx=009360 GeodesicLength=0.19266474538437403 rxn_smarts="[C:1]([N:2]1[C@@:3]2([H:11])[C@@:4]3([H:12])[C:5]([H:13])([H:14])[C@:6]1([H:15])[C@@:7]23[H:16])([H:8])([H:9])[H:10]>>[C:1]([N:2]([C@@:3]1([H:11])[C@@:4]2([H:12])[C:5]([H:13])([H:14])[C:6][C@@:7]12[H:16])[H:15])([H:8])([H:9])[H:10]"
C        1.92312325       0.40580955       0.06834982
N        0.96645148      -0.54821263      -0.44061909
C       -0.01962641      -1.03874562       0.47833972
C       -1.15553317      -0.06733508       0.78875396
C       -1.06395176       1.07404514      -0.20829044
C       -0.72703048       0.02908051      -1.26023143
C       -1.24728593      -1.08126586      -0.34643414
H        1.48386267       1.16206189       0.72980197
H        2.42007008       0.90643662      -0.76439200
H        2.68925891      -0.12940739       0.63697801
H        0.25516425      -1.78043520       1.22190466
H       -1.69136343      -0.09779337       1.72867688
H       -0.37213157       1.90379125      -0.05364622
H       -2.05570835       1.46353282      -0.44581122
H        0.50291919      -0.29258292      -1.58251947
H       -1.90821872      -1.90897972      -0.55086099
16
Frame=4 idx=009360 GeodesicLength=0.2567344905931145 rxn_smarts="[C:1]([N:2]1[C@@:3]2([H:11])[C@@:4]3([H:12])[C:5]([H:13])([H:14])[C@:6]1([H:15])[C@@:7]23[H:16])([H:8])([H:9])[H:10]>>[C:1]([N:2]([C@@:3]1([H:11])[C@@:4]2([H:12])[C:5]([H:13])([H:14])[C:6][C@@:7]12[H:16])[H:15])([H:8])([H:9])[H:10]"
C        1.92701640       0.40374633       0.07020093
N        0.96403232      -0.54145375      -0.44473640
C       -0.01766483      -1.03439849       0.47858158
C       -1.15644278      -0.06535669       0.78602429
C       -1.07112613       1.07655034      -0.20814985
C       -0.74480081       0.02516625      -1.25595846
C       -1.24618037      -1.09000112      -0.34516390
H        1.49176688       1.16427250       0.72974557
H        2.43328243       0.90035452      -0.75925452
H        2.68562099      -0.13754455       0.64295518
H        0.25957344      -1.77407683       1.22284484
H       -1.69892376      -0.09794316       1.72185790
H       -0.36770363       1.89724511      -0.05923975
H       -2.06061395       1.47458636      -0.43891940
H        0.50365950      -0.27786353      -1.59592901
H       -1.90149568      -1.92328330      -0.54485898
16
Frame=5 idx=009360 GeodesicLength=0.320718665716826 rxn_smarts="[C:1]([N:2]1[C@@:3]2([H:11])[C@@:4]3([H:12])[C:5]([H:13])([H:14])[C@:6]1([H:15])[C@@:7]23[H:16])([H:8])([H:9])[H:10]>>[C:1]([N:2]([C@@:3]1([H:11])[C@@:4]2([H:12])[C:5]([H:13])([H:14])[C:6][C@@:7]12[H:16])[H:15])([H:8])([H:9])[H:10]"
C        1.93088366       0.40164223       0.07204460
N        0.96159182      -0.53466052      -0.44875831
C       -0.01574209      -1.03002628       0.47887088
C       -1.15742811      -0.06339062       0.78330445
C       -1.07824666       1.07903770      -0.20800500
C       -0.76254736       0.02116228      -1.25150487
C       -1.24495527      -1.09873438      -0.34386683
H        1.49974516       1.16641196       0.72972750
H        2.44624946       0.89416642      -0.75416358
H        2.68198324      -0.14565324       0.64875908
H        0.26390738      -1.76770325       1.22382384
H       -1.70651475      -0.09814984       1.71500556
H       -0.36343887       1.89059323      -0.06493093
H       -2.06528910       1.48570826      -0.43210247
H        0.50441848      -0.26291076      -1.60930014
H       -1.89461700      -1.93749319      -0.53890377
16
Frame=6 idx=009360 GeodesicLength=0.3846168571096081 rxn_smarts="[C:1]([N:2]1[C@@:3]2([H:11])[C@@:4]3([H:12])[C:5]([H:13])([H:14])[C@:6]1([H:15])[C@@:7]23[H:16])([H:8])([H:9])[H:10]>>[C:1]([N:2]([C@@:3]1([H:11])[C@@:4]2([H:12])[C:5]([H:13])([H:14])[C:6][C@@:7]12[H:16])[H:15])([H:8])([H:9])[H:10]"
C        1.93471704       0.39950282       0.07388230
N        0.95913594      -0.52784614      -0.45267403
C       -0.01386267      -1.02563787       0.47921049
C       -1.15848493      -0.06143563       0.78059760
C       -1.08530304       1.08150437      -0.20785944
C       -0.78025998       0.01706692      -1.24686940
C       -1.24361166      -1.10746044      -0.34254610
H        1.50778835       1.16846647       0.72976994
H        2.45892632       0.88791327      -0.74912619
H        2.67836415      -0.15372043       0.65437071
H        0.26815487      -1.76132842       1.22484275
H       -1.71412421      -0.09840573       1.70812872
H       -0.35933408       1.88384159      -0.07071361
H       -2.06972046       1.49689247      -0.42537350
H        0.50522137      -0.24776447      -1.62263805
H       -1.88760701      -1.95158879      -0.53300220
16
Frame=7 idx=009360 GeodesicLength=0.4483580786625709 rxn_smarts="[C:1]([N:2]1[C@@:3]2([H:11])[C@@:4]3([H:12])[C:5]([H:13])([H:14])[C@:6]1([H:15])[C@@:7]23[H:16])([H:8])([H:9])[H:10]>>[C:1]([N:2]([C@@:3]1([H:11])[C@@:4]2([H:12])[C:5]([H:13])([H:14])[C:6][C@@:7]12[H:16])[H:15])([H:8])([H:9])[H:10]"
C        1.93851084       0.39733182       0.07571659
N        0.95666774      -0.52102308      -0.45647566
C       -0.01202754      -1.02124085       0.47960119
C       -1.15960655      -0.05949350       0.77790181
C       -1.09228919       1.08394550      -0.20772279
C       -0.79792494       0.01287594      -1.24205811
C       -1.24215287      -1.11617108      -0.34120218
H        1.51588811       1.17042165       0.72989692
H        2.47128138       0.88163805      -0.74414526
H        2.67477956      -0.16174060       0.65977589
H        0.27231122      -1.75496435       1.22589863
H       -1.72173069      -0.09870143       1.70123064
H       -0.35537939       1.87698564      -0.07658565
H       -2.07390820       1.50812110      -0.41875073
H        0.50607698      -0.23244305      -1.63593088
H       -1.88049645      -1.96554177      -0.52715041
16
Frame=8 idx=009360 GeodesicLength=0.5119988426360809 rxn_smarts="[C:1]([N:2]1[C@@:3]2([H:11])[C@@:4]3([H:12])[C:5]([H:13])([H:14])[C@:6]1([H:15])[C@@:7]23[H:16])([H:8])([H:9])[H:10]>>[C:1]([N:2]([C@@:3]1([H:11])[C@@:4]2([H:12])[C:5]([H:13])([H:14])[C:6][C@@:7]12[H:16])[H:15])([H:8])([H:9])[H:10]"
C        1.94226068       0.39513290       0.07754679
N        0.95418900      -0.51419537      -0.46016248
C       -0.01024134      -1.01683935       0.48004189
C       -1.16079204      -0.05756165       0.77522477
C       -1.09920228       1.08636140      -0.20759273
C       -0.81555021       0.00859089      -1.23706717
C       -1.24058202      -1.12486435      -0.33983659
H        1.52403861       1.17227593       0.73011339
H        2.48330728       0.87535582      -0.73922588
H        2.67123331      -0.16971022       0.66497310
H        0.27637112      -1.74861651       1.22699112
H       -1.72933750      -0.09903630       1.69432117
H       -0.35157859       1.87003842      -0.08254636
H       -2.07784400       1.51939733      -0.41222974
H        0.50702064      -0.21697428      -1.64919993
H       -1.87329267      -1.97935467      -0.52135136
16
Frame=9 idx=009360 GeodesicLength=0.5755883287250403 rxn_smarts="[C:1]([N:2]1[C@@:3]2([H:11])[C@@:4]3([H:12])[C:5]([H:13])([H:14])[C@:6]1([H:15])[C@@:7]23[H:16])([H:8])([H:9])[H:10]>>[C:1]([N:2]([C@@:3]1([H:11])[C@@:4]2([H:12])[C:5]([H:13])([H:14])[C:6][C@@:7]12[H:16])[H:15])([H:8])([H:9])[H:10]"
C        1.94595960       0.39290683       0.07937424
N        0.95169558      -0.50735572      -0.46374100
C       -0.00850504      -1.01243115       0.48052776
C       -1.16203547      -0.05563269       0.77256784
C       -1.10604600       1.08875205      -0.20747133
C       -0.83314724       0.00422674      -1.23189666
C       -1.23890525      -1.13353611      -0.33844927
H        1.53223297       1.17401779       0.73042594
H        2.49499915       0.86908681      -0.73434969
H        2.66772564      -0.17763470       0.66995628
H        0.28033811      -1.74228180       1.22811630
H       -1.73693166      -0.09940136       1.68740861
H       -0.34793327       1.86299816      -0.08859192
H       -2.08153455       1.53071041      -0.40580744
H        0.50809312      -0.20140008      -1.66246942
H       -1.86600570      -1.99302518      -0.51560023
16
Frame=10 idx=009360 GeodesicLength=0.6390555571181352 rxn_smarts="[C:1]([N:2]1[C@@:3]2([H:11])[C@@:4]3([H:12])[C:5]([H:13])([H:14])[C@:6]1([H:15])[C@@:7]23[H:16])([H:8])([H:9])[H:10]>>[C:1]([N:2]([C@@:3]1([H:11])[C@@:4]2([H:12])[C:5]([H:13])([H:14])[C:6][C@@:7]12[H:16])[H:15])([H:8])([H:9])[H:10]"
C        1.94961308       0.39065403       0.08119352
N        0.94918952      -0.50051316      -0.46720843
C       -0.00681743      -1.00802054       0.48105831
C       -1.16333457      -0.05371861       0.76994077
C       -1.11282458       1.09111309      -0.20735329
C       -0.85071741      -0.00023284      -1.22654095
C       -1.23712106      -1.14217811      -0.33704185
H        1.54047039       1.17568104       0.73079662
H        2.50640888       0.86278041      -0.72954939
H        2.66423257      -0.18550572       0.67477429
H        0.28421351      -1.73596679       1.22926876
H       -1.74452652      -0.09981805       1.68048616
H       -0.34445138       1.85587034      -0.09472456
H       -2.08498218       1.54206561      -0.39947857
H        0.50927476      -0.18565863      -1.67572846
H       -1.85862757      -2.00655207      -0.50989293
16
Frame=11 idx=009360 GeodesicLength=0.7024607412619922 rxn_smarts="[C:1]([N:2]1[C@@:3]2([H:11])[C@@:4]3([H:12])[C:5]([H:13])([H:14])[C@:6]1([H:15])[C@@:7]23[H:16])([H:8])([H:9])[H:10]>>[C:1]([N:2]([C@@:3]1([H:11])[C@@:4]2([H:12])[C:5]([H:13])([H:14])[C:6][C@@:7]12[H:16])[H:15])([H:8])([H:9])[H:10]"
C        1.95322152       0.38837171       0.08300080
N        0.94666459      -0.49365437      -0.47057687
C       -0.00517833      -1.00360291       0.48162764
C       -1.16468836      -0.05181356       0.76735092
C       -1.11955059       1.09344612      -0.20723143
C       -0.86828308      -0.00477030      -1.22099554
C       -1.23523355      -1.15078684      -0.33561637
H        1.54875116       1.17727982       0.73119557
H        2.51757906       0.85640094      -0.72481465
H        2.66073274      -0.19332683       0.67945438
H        0.28800305      -1.72966344       1.23044796
H       -1.75212432      -0.10029011       1.67356482
H       -0.34114393       1.84865975      -0.10094596
H       -2.08820103       1.55345567      -0.39322284
H        0.51059425      -0.16975505      -1.68900484
H       -1.85114316      -2.01995058      -0.50423360
16
Frame=12 idx=009360 GeodesicLength=0.7658021788679389 rxn_smarts="[C:1]([N:2]1[C@@:3]2([H:11])[C@@:4]3([H:12])[C:5]([H:13])([H:14])[C@:6]1([H:15])[C@@:7]23[H:16])([H:8])([H:9])[H:10]>>[C:1]([N:2]([C@@:3]1([H:11])[C@@:4]2([H:12])[C:5]([H:13])([H:14])[C:6][C@@:7]12[H:16])[H:15])([H:8])([H:9])[H:10]"
C        1.95678419       0.38605810       0.08479208
N        0.94411527      -0.48677621      -0.47385192
C       -0.00358721      -0.99917759       0.48223049
C       -1.16609529      -0.04991934       0.76480466
C       -1.12622974       1.09574945      -0.20710258
C       -0.88585878      -0.00938485      -1.21525418
C       -1.23324475      -1.15935777      -0.33417399
H        1.55707557       1.17883142       0.73159514
H        2.52854421       0.84991684      -0.72014970
H        2.65720325      -0.20109854       0.68402340
H        0.29171105      -1.72336870       1.23164898
H       -1.75973488      -0.10082640       1.66664276
H       -0.33801713       1.84136861      -0.10726279
H       -2.09119290       1.56488348      -0.38702312
H        0.51206506      -0.15366740      -1.70230186
H       -1.84353791      -2.03323111      -0.49861736
16
Frame=13 idx=009360 GeodesicLength=0.8290658839232415 rxn_smarts="[C:1]([N:2]1[C@@:3]2([H:11])[C@@:4]3([H:12])[C:5]([H:13])([H:14])[C@:6]1([H:15])[C@@:7]23[H:16])([H:8])([H:9])[H:10]>>[C:1]([N:2]([C@@:3]1([H:11])[C@@:4]2([H:12])[C:5]([H:13])([H:14])[C:6][C@@:7]12[H:16])[H:15])([H:8])([H:9])[H:10]"
C        1.96029530       0.38371771       0.08657250
N        0.94154508      -0.47988450      -0.47703189
C       -0.00204762      -0.99474902       0.48286581
C       -1.16754725      -0.04803501       0.76230154
C       -1.13285955       1.09801826      -0.20697769
C       -0.90343767      -0.01408428      -1.20932267
C       -1.23116222      -1.16788864      -0.33271179
H        1.56543443       1.18031127       0.73203026
H        2.53926752       0.84338473      -0.71554564
H        2.65366857      -0.20882149       0.68845409
H        0.29533195      -1.71709367       1.23286346
H       -1.76733361      -0.10141284       1.65972675
H       -0.33506406       1.83399672      -0.11366319
H       -2.09396023       1.57632973      -0.38090674
H        0.51372681      -0.13741969      -1.71563038
H       -1.83585745      -2.04636928      -0.49302440
16
Frame=14 idx=009360 GeodesicLength=0.8922756729573378 rxn_smarts="[C:1]([N:2]1[C@@:3]2([H:11])[C@@:4]3([H:12])[C:5]([H:13])([H:14])[C@:6]1([H:15])[C@@:7]23[H:16])([H:8])([H:9])[H:10]>>[C:1]([N:2]([C@@:3]1([H:11])[C@@:4]2([H:12])[C:5]([H:13])([H:14])[C:6][C@@:7]12[H:16])[H:15])([H:8])([H:9])[H:10]"
C        1.96375360       0.38134816       0.08834034
N        0.93895035      -0.47297739      -0.48012247
C       -0.00055818      -0.99031900       0.48353091
C       -1.16904436      -0.04615934       0.75984999
C       -1.13944561       1.10025110      -0.20685373
C       -0.92103844      -0.01886686      -1.20319612
C       -1.22898816      -1.17637652      -0.33123250
H        1.57382718       1.18172921       0.73248756
H        2.54977121       0.83678378      -0.71100363
H        2.65011520      -0.21649918       0.69276380
H        0.29887210      -1.71083745       1.23409324
H       -1.77492952      -0.10205207       1.65282237
H       -0.33229299       1.82654639      -0.12016272
H       -2.09650412       1.58780121      -0.37485804
H        0.51560062      -0.12099521      -1.72900405
H       -1.82808889      -2.05937684      -0.48745493
16
Frame=15 idx=009360 GeodesicLength=0.9554351987651509 rxn_smarts="[C:1]([N:2]1[C@@:3]2([H:11])[C@@:4]3([H:12])[C:5]([H:13])([H:14])[C@:6]1([H:15])[C@@:7]23[H:16])([H:8])([H:9])[H:10]>>[C:1]([N:2]([C@@:3]1([H:11])[C@@:4]2([H:12])[C:5]([H:13])([H:14])[C:6][C@@:7]12[H:16])[H:15])([H:8])([H:9])[H:10]"
C        1.96716014       0.37894737       0.09009285
N        0.93632574      -0.46604543      -0.48313028
C        0.00088122      -0.98588286       0.48422106
C       -1.17058394      -0.04429065       0.75745613
C       -1.14599931       1.10244500      -0.20672771
C       -0.93867585      -0.02372974      -1.19686676
C       -1.22672706      -1.18481561      -0.32973424
H        1.58225506       1.18310281       0.73293493
H        2.56009752       0.83007049      -0.70652109
H        2.64651891      -0.22413321       0.69698010
H        0.30233619      -1.70459570       1.23532990
H       -1.78252270      -0.10275025       1.64593267
H       -0.32971360       1.81901808      -0.12676296
H       -2.09883703       1.59928860      -0.36886602
H        0.51770400      -0.10436738      -1.74243175
H       -1.82021931      -2.07226152      -0.48190684
16
Frame=16 idx=009360 GeodesicLength=1.0185545855932105 rxn_smarts="[C:1]([N:2]1[C@@:3]2([H:11])[C@@:4]3([H:12])[C:5]([H:13])([H:14])[C@:6]1([H:15])[C@@:7]23[H:16])([H:8])([H:9])[H:10]>>[C:1]([N:2]([C@@:3]1([H:11])[C@@:4]2([H:12])[C:5]([H:13])([H:14])[C:6][C@@:7]12[H:16])[H:15])([H:8])([H:9])[H:10]"
C        1.97051419       0.37651162       0.09182813
N        0.93366515      -0.45908248      -0.48606572
C        0.00227062      -0.98143899       0.48493067
C       -1.17216277      -0.04242794       0.75512810
C       -1.15253156       1.10459953      -0.20659883
C       -0.95636721      -0.02867425      -1.19033100
C       -1.22438453      -1.19320347      -0.32821473
H        1.59071963       1.18444649       0.73334909
H        2.57027984       0.82321108      -0.70209517
H        2.64285776      -0.23172732       0.70113131
H        0.30572991      -1.69836940       1.23656486
H       -1.79011016      -0.10351284       1.63906569
H       -0.32733522       1.81141573      -0.13347304
H       -2.10096868       1.61079075      -0.36292362
H        0.52006096      -0.08750413      -1.75592408
H       -1.81223794      -2.08503439      -0.47637167
