17
Frame=0 idx=009566 GeodesicLength=0.0 rxn_smarts="[C:1]1([H:8])([H:9])[C:2]([H:10])([H:11])[C:3]12[C:4]([H:12])([H:13])[C@@:5]1([H:14])[C:6]([H:15])([H:16])[C@@:7]21[H:17]>>[C:1]1([H:8])([H:9])[C:2]([H:10])([H:11])[C:3]12[C:4]([H:12])([H:13])[C@:5]([C:6]([H:15])([H:16])[H:17])([H:14])[C:7]2"
C       -2.02489677      -0.45465357      -0.18298169
C       -1.50199661       0.89962241      -0.53817542
C       -0.55816172      -0.16584366      -0.07998661
C        0.57573977      -0.86678321      -0.82886513
C        1.36519439      -0.71798820       0.47422254
C        1.68413157       0.73474853       0.75162616
C        0.15070913      -0.24760021       1.26373464
H       -2.34433501      -1.10761218      -0.98563080
H       -2.56629386      -0.56493882       0.74749810
H       -1.46937595       1.17546123      -1.58497286
H       -1.70001407       1.71629472       0.14471196
H        0.33937941      -1.90471748      -1.06547120
H        0.99139556      -0.38454429      -1.71693238
H        2.08505473      -1.44557435       0.83354807
H        1.68466016       1.39215100      -0.11262930
H        2.51238216       0.86645638       1.44013634
H        0.77642707       1.07552171       1.44016753
17
Frame=1 idx=009566 GeodesicLength=0.06434108363000794 rxn_smarts="[C:1]1([H:8])([H:9])[C:2]([H:10])([H:11])[C:3]12[C:4]([H:12])([H:13])[C@@:5]1([H:14])[C:6]([H:15])([H:16])[C@@:7]21[H:17]>>[C:1]1([H:8])([H:9])[C:2]([H:10])([H:11])[C:3]12[C:4]([H:12])([H:13])[C@:5]([C:6]([H:15])([H:16])[H:17])([H:14])[C:7]2"
C       -2.02753529      -0.46120668      -0.18023087
C       -1.51547015       0.89438521      -0.54396961
C       -0.56172252      -0.16207957      -0.08308788
C        0.57447443      -0.85865973      -0.83216197
C        1.36303387      -0.71287107       0.47182583
C        1.69997275       0.73352721       0.75575773
C        0.15111567      -0.22950824       1.25591939
H       -2.34423081      -1.12097948      -0.97838096
H       -2.56600049      -0.57069466       0.75204463
H       -1.48730030       1.16470078      -1.59230899
H       -1.71638363       1.71320453       0.13543383
H        0.34233236      -1.89594424      -1.07593696
H        0.98829421      -0.36964995      -1.71730633
H        2.06261128      -1.45553472       0.84041031
H        1.72756278       1.38958692      -0.10927976
H        2.52504485       0.84945278       1.45109301
H        0.78420099       1.09227090       1.45017858
17
Frame=2 idx=009566 GeodesicLength=0.12859811812154354 rxn_smarts="[C:1]1([H:8])([H:9])[C:2]([H:10])([H:11])[C:3]12[C:4]([H:12])([H:13])[C@@:5]1([H:14])[C:6]([H:15])([H:16])[C@@:7]21[H:17]>>[C:1]1([H:8])([H:9])[C:2]([H:10])([H:11])[C:3]12[C:4]([H:12])([H:13])[C@:5]([C:6]([H:15])([H:16])[H:17])([H:14])[C:7]2"
C       -2.03011078      -0.46790038      -0.17728470
C       -1.52926873       0.88891972      -0.54990734
C       -0.56536813      -0.15814419      -0.08632590
C        0.57322893      -0.85013837      -0.83561728
C        1.36075278      -0.70762053       0.46940061
C        1.71613796       0.73204920       0.75993004
C        0.15159349      -0.21066495       1.24774738
H       -2.34393821      -1.13470063      -0.97071630
H       -2.56544977      -0.57649836       0.75689727
H       -1.50571489       1.15345149      -1.59980985
H       -1.73316377       1.70996045       0.12586009
H        0.34539737      -1.88667765      -1.08677401
H        0.98522403      -0.35415033      -1.71765331
H        2.03930603      -1.46514127       0.84722874
H        1.77169326       1.38595879      -0.10559992
H        2.53740562       0.83191494       1.46243563
H        0.79227479       1.10938209       1.46018885
17
Frame=3 idx=009566 GeodesicLength=0.19276703711257764 rxn_smarts="[C:1]1([H:8])([H:9])[C:2]([H:10])([H:11])[C:3]12[C:4]([H:12])([H:13])[C@@:5]1([H:14])[C:6]([H:15])([H:16])[C@@:7]21[H:17]>>[C:1]1([H:8])([H:9])[C:2]([H:10])([H:11])[C:3]12[C:4]([H:12])([H:13])[C@:5]([C:6]([H:15])([H:16])[H:17])([H:14])[C:7]2"
C       -2.03260859      -0.47473685      -0.17413031
C       -1.54340132       0.88321151      -0.55599101
C       -0.56909863      -0.15402729      -0.08970728
C        0.57200605      -0.84119898      -0.83924028
C        1.35834226      -0.70223030       0.46694701
C        1.73263068       0.73029614       0.76414211
C        0.15215237      -0.19102965       1.23918540
H       -2.34343042      -1.14878443      -0.96261184
H       -2.56461579      -0.58234447       0.76207304
H       -1.52462960       1.14168429      -1.60747475
H       -1.75037272       1.70654874       0.11598108
H        0.34857988      -1.87689028      -1.09799832
H        0.98218799      -0.33801527      -1.71796966
H        2.01510022      -1.47435123       0.85398280
H        1.81706862       1.38116891      -0.10155491
H        2.54942546       0.81383176       1.47417188
H        0.80066355       1.12686741       1.47019504
17
Frame=4 idx=009566 GeodesicLength=0.25685335531901643 rxn_smarts="[C:1]1([H:8])([H:9])[C:2]([H:10])([H:11])[C:3]12[C:4]([H:12])([H:13])[C@@:5]1([H:14])[C:6]([H:15])([H:16])[C@@:7]21[H:17]>>[C:1]1([H:8])([H:9])[C:2]([H:10])([H:11])[C:3]12[C:4]([H:12])([H:13])[C@:5]([C:6]([H:15])([H:16])[H:17])([H:14])[C:7]2"
C       -2.03501334      -0.48171747      -0.17075356
C       -1.55787693       0.87724535      -0.56222349
C       -0.57291398      -0.14971718      -0.09324010
C        0.57080874      -0.83181966      -0.84304235
C        1.35579262      -0.69669271       0.46446227
C        1.74945409       0.72824602       0.76839367
C        0.15280378      -0.17055847       1.23019493
H       -2.34267641      -1.16324001      -0.95403705
H       -2.56346878      -0.58822505       0.76759095
H       -1.54405705       1.12936545      -1.61530226
H       -1.76802906       1.70295445       0.10578342
H        0.35188678      -1.86655088      -1.10962761
H        0.97918936      -0.32121144      -1.71825213
H        1.98995399      -1.48311912       0.86065547
H        1.86370306       1.37511549      -0.09710667
H        2.56106339       0.79518850       1.48630720
H        0.80937973       1.14473672       1.48019731
17
Frame=5 idx=009566 GeodesicLength=0.3208451450829561 rxn_smarts="[C:1]1([H:8])([H:9])[C:2]([H:10])([H:11])[C:3]12[C:4]([H:12])([H:13])[C@@:5]1([H:14])[C:6]([H:15])([H:16])[C@@:7]21[H:17]>>[C:1]1([H:8])([H:9])[C:2]([H:10])([H:11])[C:3]12[C:4]([H:12])([H:13])[C@:5]([C:6]([H:15])([H:16])[H:17])([H:14])[C:7]2"
C       -2.03730827      -0.48884251      -0.16714009
C       -1.57270098       0.87100686      -0.56860749
C       -0.57681288      -0.14520384      -0.09693307
C        0.56963999      -0.82198006      -0.84703622
C        1.35309274      -0.69100210       0.46194376
C        1.76660641       0.72587845       0.77268190
C        0.15356050      -0.14921021       1.22073460
H       -2.34164964      -1.17807683      -0.94496369
H       -2.56197768      -0.59413232       0.77347222
H       -1.56400492       1.11646513      -1.62329305
H       -1.78614487       1.69916474       0.09525811
H        0.35532259      -1.85563120      -1.12168028
H        0.97623221      -0.30370899      -1.71849844
H        1.96383814      -1.49140154       0.86723163
H        1.91159345       1.36769515      -0.09220444
H        2.57227333       0.77597902       1.49884116
H        0.81843991       1.16300024       1.49019341
17
Frame=6 idx=009566 GeodesicLength=0.3847521534128373 rxn_smarts="[C:1]1([H:8])([H:9])[C:2]([H:10])([H:11])[C:3]12[C:4]([H:12])([H:13])[C@@:5]1([H:14])[C:6]([H:15])([H:16])[C@@:7]21[H:17]>>[C:1]1([H:8])([H:9])[C:2]([H:10])([H:11])[C:3]12[C:4]([H:12])([H:13])[C@:5]([C:6]([H:15])([H:16])[H:17])([H:14])[C:7]2"
C       -2.03947282      -0.49611119      -0.16327103
C       -1.58788296       0.86447767      -0.57514616
C       -0.58079413      -0.14047351      -0.10079751
C        0.56850302      -0.81165546      -0.85123806
C        1.35023361      -0.68514550       0.45938197
C        1.78408728       0.72316953       0.77700811
C        0.15443957      -0.12693548       1.21075504
H       -2.34031165      -1.19330221      -0.93535339
H       -2.56010388      -0.60005133       0.77974105
H       -1.58448623       1.10294173      -1.63144365
H       -1.80473877       1.69516120       0.08438984
H        0.35889497      -1.84409704      -1.13417651
H        0.97331787      -0.28547141      -1.71870967
H        1.93671275      -1.49914061       0.87368812
H        1.96074802       1.35877747      -0.08680363
H        2.58300006       0.75619124       1.51178736
H        0.82785328       1.18166488       1.50018812
17
Frame=7 idx=009566 GeodesicLength=0.4485472092324982 rxn_smarts="[C:1]1([H:8])([H:9])[C:2]([H:10])([H:11])[C:3]12[C:4]([H:12])([H:13])[C@@:5]1([H:14])[C:6]([H:15])([H:16])[C@@:7]21[H:17]>>[C:1]1([H:8])([H:9])[C:2]([H:10])([H:11])[C:3]12[C:4]([H:12])([H:13])[C@:5]([C:6]([H:15])([H:16])[H:17])([H:14])[C:7]2"
C       -2.04148464      -0.50352209      -0.15912852
C       -1.60342913       0.85763950      -0.58184181
C       -0.58485485      -0.13551219      -0.10484677
C        0.56740066      -0.80082120      -0.85566621
C        1.34720602      -0.67910854       0.45676581
C        1.80189057       0.72009863       0.78136996
C        0.15546011      -0.10368768       1.20020309
H       -2.33862553      -1.20892516      -0.92516991
H       -2.55780337      -0.60596555       0.78642250
H       -1.60551136       1.08875603      -1.63975398
H       -1.82382155       1.69092970       0.07316589
H        0.36260782      -1.83191392      -1.14713529
H        0.97044891      -0.26646452      -1.71888833
H        1.90854446      -1.50628660       0.88001745
H        2.01114531       1.34823948      -0.08084462
H        2.59318794       0.73581950       1.52514457
H        0.83763863       1.20072459       1.51018615
17
Frame=8 idx=009566 GeodesicLength=0.5122244425508046 rxn_smarts="[C:1]1([H:8])([H:9])[C:2]([H:10])([H:11])[C:3]12[C:4]([H:12])([H:13])[C@@:5]1([H:14])[C:6]([H:15])([H:16])[C@@:7]21[H:17]>>[C:1]1([H:8])([H:9])[C:2]([H:10])([H:11])[C:3]12[C:4]([H:12])([H:13])[C@:5]([C:6]([H:15])([H:16])[H:17])([H:14])[C:7]2"
C       -2.04331717      -0.51107236      -0.15469307
C       -1.61934461       0.85047599      -0.58869665
C       -0.58899272      -0.13030403      -0.10909336
C        0.56633480      -0.78945002      -0.86033934
C        1.34400070      -0.67287327       0.45408175
C        1.82000507       0.71664322       0.78576954
C        0.15664119      -0.07941618       1.18902388
H       -2.33654503      -1.22495394      -0.91437286
H       -2.55502855      -0.61185826       0.79354432
H       -1.62709018       1.07386668      -1.64822143
H       -1.84340699       1.68645480       0.06157418
H        0.36646445      -1.81904608      -1.16057644
H        0.96762449      -0.24665362      -1.71903905
H        1.87930946      -1.51276999       0.88619717
H        2.06277763       1.33592453      -0.07427954
H        2.60276577       0.71485920       1.53891928
H        0.84780169       1.22017334       1.52020163
17
Frame=9 idx=009566 GeodesicLength=0.5758422716983467 rxn_smarts="[C:1]1([H:8])([H:9])[C:2]([H:10])([H:11])[C:3]12[C:4]([H:12])([H:13])[C@@:5]1([H:14])[C:6]([H:15])([H:16])[C@@:7]21[H:17]>>[C:1]1([H:8])([H:9])[C:2]([H:10])([H:11])[C:3]12[C:4]([H:12])([H:13])[C@:5]([C:6]([H:15])([H:16])[H:17])([H:14])[C:7]2"
C       -2.04493492      -0.51873820      -0.14993062
C       -1.63564880       0.84294696      -0.59570929
C       -0.59319974      -0.12482739      -0.11356768
C        0.56531840      -0.77750225      -0.86530072
C        1.34059523      -0.66642068       0.45129968
C        1.83842000       0.71276544       0.79024089
C        0.15800974      -0.05405486       1.17711044
H       -2.33402404      -1.24136320      -0.90288924
H       -2.55170769      -0.61766495       0.80115000
H       -1.64924972       1.05819554      -1.65683004
H       -1.86352354       1.68168835       0.04959378
H        0.37048917      -1.80545832      -1.17456403
H        0.96485489      -0.22597218      -1.71917474
H        1.84901364      -1.51857348       0.89224489
H        2.11561321       1.32164059      -0.06710871
H        2.61164910       0.69331244       1.55317022
H        0.85832506       1.24002623       1.53026517
17
Frame=10 idx=009566 GeodesicLength=0.639354741533779 rxn_smarts="[C:1]1([H:8])([H:9])[C:2]([H:10])([H:11])[C:3]12[C:4]([H:12])([H:13])[C@@:5]1([H:14])[C:6]([H:15])([H:16])[C@@:7]21[H:17]>>[C:1]1([H:8])([H:9])[C:2]([H:10])([H:11])[C:3]12[C:4]([H:12])([H:13])[C@:5]([C:6]([H:15])([H:16])[H:17])([H:14])[C:7]2"
C       -2.04630560      -0.52652443      -0.14482228
C       -1.65232048       0.83504779      -0.60288399
C       -0.59746548      -0.11907281      -0.11827589
C        0.56435267      -0.76496832      -0.87056219
C        1.33699549      -0.65973775       0.44840874
C        1.85711202       0.70845172       0.79474881
C        0.15959681      -0.02757593       1.16441929
H       -2.33100726      -1.25818188      -0.89068321
H       -2.54779010      -0.62338343       0.80926800
H       -1.67197344       1.04171601      -1.66558510
H       -1.88414711       1.67664073       0.03721498
H        0.37467217      -1.79111785      -1.18908699
H        0.96214105      -0.20441982      -1.71930159
H        1.81757071      -1.52358387       0.89810146
H        2.16957240       1.30528421      -0.05920303
H        2.61976787       0.67118292       1.56784082
H        0.86922827       1.26024269       1.54040217
17
Frame=11 idx=009566 GeodesicLength=0.7027422171043896 rxn_smarts="[C:1]1([H:8])([H:9])[C:2]([H:10])([H:11])[C:3]12[C:4]([H:12])([H:13])[C@@:5]1([H:14])[C:6]([H:15])([H:16])[C@@:7]21[H:17]>>[C:1]1([H:8])([H:9])[C:2]([H:10])([H:11])[C:3]12[C:4]([H:12])([H:13])[C@:5]([C:6]([H:15])([H:16])[H:17])([H:14])[C:7]2"
C       -2.04739321      -0.53441189      -0.13934177
C       -1.66934151       0.82676045      -0.61022252
C       -0.60177530      -0.11302954      -0.12323748
C        0.56344554      -0.75183591      -0.87615332
C        1.33319532      -0.65281381       0.44538470
C        1.87605303       0.70368006       0.79928819
C        0.16143399       0.00004935       1.15086871
H       -2.32744753      -1.27540164      -0.87769720
H       -2.54321226      -0.62896465       0.81793381
H       -1.69524897       1.02437819      -1.67447936
H       -1.90525314       1.67129924       0.02442104
H        0.37901570      -1.77600759      -1.20416553
H        0.95949106      -0.18198402      -1.71943392
H        1.78496108      -1.52775416       0.90375175
H        2.22451542       1.28676888      -0.05047167
H        2.62705540       0.64848611       1.58290048
H        0.88050539       1.28078092       1.55065409
17
Frame=12 idx=009566 GeodesicLength=0.7660062086944731 rxn_smarts="[C:1]1([H:8])([H:9])[C:2]([H:10])([H:11])[C:3]12[C:4]([H:12])([H:13])[C@@:5]1([H:14])[C:6]([H:15])([H:16])[C@@:7]21[H:17]>>[C:1]1([H:8])([H:9])[C:2]([H:10])([H:11])[C:3]12[C:4]([H:12])([H:13])[C@:5]([C:6]([H:15])([H:16])[H:17])([H:14])[C:7]2"
C       -2.04815335      -0.54237838      -0.13345617
C       -1.68669305       0.81806317      -0.61772305
C       -0.60611041      -0.10668503      -0.12847315
C        0.56260890      -0.73809417      -0.88210583
C        1.32919236      -0.64563826       0.44220175
C        1.89520396       0.69842833       0.80386220
C        0.16355812       0.02885093       1.13636847
H       -2.32328537      -1.29300653      -0.86386452
H       -2.53790200      -0.63435021       0.82718708
H       -1.71906186       1.00612555      -1.68350096
H       -1.92681919       1.66564487       0.01119560
H        0.38352607      -1.76011136      -1.21982124
H        0.95691576      -0.15865545      -1.71958871
H        1.75114628      -1.53099852       0.90915264
H        2.28031362       1.26598060      -0.04085092
H        2.63342653       0.62524024       1.59832820
H        0.89213363       1.30158421       1.56108860
17
Frame=13 idx=009566 GeodesicLength=0.8291182891987909 rxn_smarts="[C:1]1([H:8])([H:9])[C:2]([H:10])([H:11])[C:3]12[C:4]([H:12])([H:13])[C@@:5]1([H:14])[C:6]([H:15])([H:16])[C@@:7]21[H:17]>>[C:1]1([H:8])([H:9])[C:2]([H:10])([H:11])[C:3]12[C:4]([H:12])([H:13])[C@:5]([C:6]([H:15])([H:16])[H:17])([H:14])[C:7]2"
C       -2.04854410      -0.55039310      -0.12713793
C       -1.70433961       0.80894339      -0.62538189
C       -0.61044780      -0.10003100      -0.13400538
C        0.56185013      -0.72374718      -0.88845367
C        1.32498974      -0.63819555       0.43882558
C        1.91450874       0.69268660       0.80846299
C        0.16600798       0.05883496       1.12082793
H       -2.31847446      -1.31097049      -0.84913011
H       -2.53178797      -0.63947070       0.83706262
H       -1.74338014       0.98691446      -1.69263724
H       -1.94879340       1.65967373      -0.00247186
H        0.38819749      -1.74343217      -1.23606157
H        0.95442019      -0.13445386      -1.71979480
H        1.71614218      -1.53325101       0.91428419
H        2.33677458       1.24284905      -0.03026652
H        2.63880183       0.60149329       1.61407308
H        0.90407461       1.32254961       1.57180458
17
Frame=14 idx=009566 GeodesicLength=0.8920668757830773 rxn_smarts="[C:1]1([H:8])([H:9])[C:2]([H:10])([H:11])[C:3]12[C:4]([H:12])([H:13])[C@@:5]1([H:14])[C:6]([H:15])([H:16])[C@@:7]21[H:17]>>[C:1]1([H:8])([H:9])[C:2]([H:10])([H:11])[C:3]12[C:4]([H:12])([H:13])[C@:5]([C:6]([H:15])([H:16])[H:17])([H:14])[C:7]2"
C       -2.04851607      -0.55841370      -0.12036233
C       -1.72223417       0.79939061      -0.63319169
C       -0.61476128      -0.09306338      -0.13985510
C        0.56117595      -0.70881112      -0.89523054
C        1.32059657      -0.63046899       0.43521317
C        1.93389998       0.68645072       0.81308057
C        0.16882929       0.08999225       1.10415334
H       -2.31295371      -1.32925199      -0.83343347
H       -2.52479588      -0.64424030       0.84758874
H       -1.76815325       0.96670275      -1.70186524
H       -1.97111196       1.65338057      -0.01658596
H        0.39301877      -1.72598902      -1.25288075
H        0.95200747      -0.10942080      -1.72008948
H        1.67997657      -1.53442931       0.91910444
H        2.39366247       1.21731530      -0.01865517
H        2.64309264       0.57730053       1.63007821
H        0.91626664       1.34355590       1.58293129
17
Frame=15 idx=009566 GeodesicLength=0.9548477187288803 rxn_smarts="[C:1]1([H:8])([H:9])[C:2]([H:10])([H:11])[C:3]12[C:4]([H:12])([H:13])[C@@:5]1([H:14])[C:6]([H:15])([H:16])[C@@:7]21[H:17]>>[C:1]1([H:8])([H:9])[C:2]([H:10])([H:11])[C:3]12[C:4]([H:12])([H:13])[C@:5]([C:6]([H:15])([H:16])[H:17])([H:14])[C:7]2"
C       -2.04801941      -0.56638828      -0.11310466
C       -1.74031463       0.78940141      -0.64113929
C       -0.61901680      -0.08578257      -0.14604378
C        0.56059350      -0.69332042      -0.90247303
C        1.31603493      -0.62243743       0.43131400
C        1.95329468       0.67973547       0.81769789
C        0.17207158       0.12228773       1.08625060
H       -2.30667468      -1.34779150      -0.81672287
H       -2.51685065      -0.64856133       0.85879062
H       -1.79331461       0.94546071      -1.71115737
H       -1.99368622       1.64676915      -0.03114430
H        0.39797406      -1.70782555      -1.27026160
H        0.94967769      -0.08363041      -1.72052518
H        1.64271048      -1.53443946       0.92356729
H        2.45069751       1.18933640      -0.00596594
H        2.64620989       0.55274573       1.64627351
H        0.92861267       1.36444033       1.59464410
17
Frame=16 idx=009566 GeodesicLength=1.0174903952960137 rxn_smarts="[C:1]1([H:8])([H:9])[C:2]([H:10])([H:11])[C:3]12[C:4]([H:12])([H:13])[C@@:5]1([H:14])[C:6]([H:15])([H:16])[C@@:7]21[H:17]>>[C:1]1([H:8])([H:9])[C:2]([H:10])([H:11])[C:3]12[C:4]([H:12])([H:13])[C@:5]([C:6]([H:15])([H:16])[H:17])([H:14])[C:7]2"
C       -2.04700264      -0.57425438      -0.10534106
C       -1.75850846       0.77897919      -0.64920864
C       -0.62317576      -0.07819368      -0.15259304
C        0.56010973      -0.67732623      -0.91021756
C        1.31133677      -0.61408032       0.42706878
C        1.97259507       0.67257281       0.82229580
C        0.17578601       0.15566552       1.06702882
H       -2.29959317      -1.36651138      -0.79894852
H       -2.50788014      -0.65232064       0.87069062
H       -1.81878659       0.92316741      -1.72048056
H       -2.01641227       1.63984929      -0.04614098
H        0.40304349      -1.68901136      -1.28817420
H        0.94743123      -0.05718765      -1.72116626
H        1.60443653      -1.53318160       0.92761518
H        2.50758619       1.15890603       0.00782180
H        2.64806854       0.52792229       1.66258033
H        0.94096547       1.38500469       1.60716949
