15
Frame=0 idx=011905 GeodesicLength=0.0 rxn_smarts="[O:1]([C@@:2]1([H:9])[C:3]([H:10])([H:11])[C@:4]2([H:12])[C:5]([H:13])([H:14])[C@@:6]1([H:15])[O:7]2)[H:8]>>[O:1]([C@@:2]1([H:9])[C:3]([H:10])([H:11])[C@@:4]([C:5][H:13])([H:12])[O:7][C:6]1([H:14])[H:15])[H:8]"
O        2.01025619      -1.04674646      -0.22986153
C        0.89484699      -0.46469112       0.40377934
C        0.58196374       0.97452723      -0.05938478
C       -0.86572750       0.79127975      -0.54279350
C       -1.84733038       0.48884459       0.57826628
C       -0.40436492      -1.15358500      -0.02232706
O       -0.80249760      -0.49902475      -1.18673352
H        1.89004334      -0.96893318      -1.18041520
H        1.08078517      -0.55373451       1.47324617
H        0.67402780       1.71972278       0.72924146
H        1.25085824       1.25273783      -0.87628684
H       -1.24212176       1.56394391      -1.21626506
H       -1.52480254       1.02215077       1.49453427
H       -1.29792650      -0.88683247       0.74224904
H       -0.39801031      -2.23965942      -0.10724901
15
Frame=1 idx=011905 GeodesicLength=0.06976238649359318 rxn_smarts="[O:1]([C@@:2]1([H:9])[C:3]([H:10])([H:11])[C@:4]2([H:12])[C:5]([H:13])([H:14])[C@@:6]1([H:15])[O:7]2)[H:8]>>[O:1]([C@@:2]1([H:9])[C:3]([H:10])([H:11])[C@@:4]([C:5][H:13])([H:12])[O:7][C:6]1([H:14])[H:15])[H:8]"
O        2.00895707      -1.04107967      -0.24253350
C        0.89678124      -0.46595829       0.40272586
C        0.57909659       0.97462751      -0.05225788
C       -0.86284500       0.78728868      -0.55381048
C       -1.82297537       0.49076407       0.58140079
C       -0.40507833      -1.15408588      -0.01549705
O       -0.79826045      -0.50636440      -1.18825489
H        1.87435963      -0.96961639      -1.19172816
H        1.09180700      -0.55832703       1.47035197
H        0.65590386       1.71066885       0.74744628
H        1.25263271       1.26883996      -0.85920393
H       -1.23644737       1.55640160      -1.23216586
H       -1.52034254       1.04922466       1.48763313
H       -1.32110443      -0.90217769       0.74702758
H       -0.39248460      -2.24020599      -0.10113386
15
Frame=2 idx=011905 GeodesicLength=0.13957064059096017 rxn_smarts="[O:1]([C@@:2]1([H:9])[C:3]([H:10])([H:11])[C@:4]2([H:12])[C:5]([H:13])([H:14])[C@@:6]1([H:15])[O:7]2)[H:8]>>[O:1]([C@@:2]1([H:9])[C:3]([H:10])([H:11])[C@@:4]([C:5][H:13])([H:12])[O:7][C:6]1([H:14])[H:15])[H:8]"
O        2.00765540      -1.03543401      -0.25539005
C        0.89898760      -0.46720503       0.40159250
C        0.57644019       0.97472143      -0.04518619
C       -0.85982730       0.78336062      -0.56421723
C       -1.79842852       0.49203792       0.58471998
C       -0.40570528      -1.15445256      -0.00842426
O       -0.79388179      -0.51350016      -1.18951304
H        1.85871670      -0.97033108      -1.20296854
H        1.10326257      -0.56281745       1.46726386
H        0.63846810       1.70142963       0.76518852
H        1.25415398       1.28472396      -0.84218531
H       -1.23077438       1.54896476      -1.24726774
H       -1.51723430       1.07617618       1.47988763
H       -1.34476294      -0.91708318       0.75113051
H       -0.38707003      -2.24059103      -0.09463063
15
Frame=3 idx=011905 GeodesicLength=0.2094302656445024 rxn_smarts="[O:1]([C@@:2]1([H:9])[C:3]([H:10])([H:11])[C@:4]2([H:12])[C:5]([H:13])([H:14])[C@@:6]1([H:15])[O:7]2)[H:8]>>[O:1]([C@@:2]1([H:9])[C:3]([H:10])([H:11])[C@@:4]([C:5][H:13])([H:12])[O:7][C:6]1([H:14])[H:15])[H:8]"
O        2.00635422      -1.02980932      -0.26845253
C        0.90147915      -0.46843757       0.40037039
C        0.57400169       0.97480783      -0.03815060
C       -0.85668653       0.77949266      -0.57400534
C       -1.77370296       0.49270759       0.58825677
C       -0.40622890      -1.15469228      -0.00110413
O       -0.78937925      -0.52044109      -1.19049118
H        1.84310192      -0.97108431      -1.21415610
H        1.11517823      -0.56722079       1.46396545
H        0.62172131       1.69199869       0.78252294
H        1.25542998       1.30039736      -0.82522788
H       -1.22509740       1.54162535      -1.26158556
H       -1.51552784       1.10293889       1.47121216
H       -1.36886823      -0.93145765       0.75455808
H       -0.38177539      -2.24082536      -0.08771247
15
Frame=4 idx=011905 GeodesicLength=0.2793460330858507 rxn_smarts="[O:1]([C@@:2]1([H:9])[C:3]([H:10])([H:11])[C@:4]2([H:12])[C:5]([H:13])([H:14])[C@@:6]1([H:15])[O:7]2)[H:8]>>[O:1]([C@@:2]1([H:9])[C:3]([H:10])([H:11])[C@@:4]([C:5][H:13])([H:12])[O:7][C:6]1([H:14])[H:15])[H:8]"
O        2.00505337      -1.02420562      -0.28173816
C        0.90426570      -0.46965963       0.39905150
C        0.57178839       0.97488688      -0.03113583
C       -0.85343354       0.77568425      -0.58316849
C       -1.74881122       0.49282390       0.59204004
C       -0.40663427      -1.15480951       0.00646674
O       -0.78477329      -0.52719387      -1.19117360
H        1.82750316      -0.97188409      -1.22530534
H        1.12757487      -0.57154766       1.46044075
H        0.60566238       1.68237168       0.79949806
H        1.25646949       1.31586655      -0.80833047
H       -1.21940659       1.53437759      -1.27513602
H       -1.51526462       1.12940623       1.46152346
H       -1.39338220      -0.94519938       0.75732282
H       -0.37661163      -2.24091733      -0.08035545
15
Frame=5 idx=011905 GeodesicLength=0.34932337776716965 rxn_smarts="[O:1]([C@@:2]1([H:9])[C:3]([H:10])([H:11])[C@:4]2([H:12])[C:5]([H:13])([H:14])[C@@:6]1([H:15])[O:7]2)[H:8]>>[O:1]([C@@:2]1([H:9])[C:3]([H:10])([H:11])[C@@:4]([C:5][H:13])([H:12])[O:7][C:6]1([H:14])[H:15])[H:8]"
O        2.00374856      -1.01861941      -0.29525481
C        0.90734970      -0.47087152       0.39763003
C        0.56980428       0.97496114      -0.02412880
C       -0.85008060       0.77193750      -0.59171515
C       -1.72376997       0.49244363       0.59608886
C       -0.40690982      -1.15480636       0.01428783
O       -0.78008698      -0.53376678      -1.19155212
H        1.81190778      -0.97273742      -1.23642157
H        1.14046150      -0.57580306       1.45667676
H        0.59027688       1.67254703       0.81615965
H        1.25728646       1.33113740      -0.79148966
H       -1.21369563       1.52721847      -1.28794984
H       -1.51643458       1.15543600       1.45076185
H       -1.41826767      -0.95820199       0.75944532
H       -0.37158991      -2.24087462      -0.07253835
15
Frame=6 idx=011905 GeodesicLength=0.41935572754914124 rxn_smarts="[O:1]([C@@:2]1([H:9])[C:3]([H:10])([H:11])[C@:4]2([H:12])[C:5]([H:13])([H:14])[C@@:6]1([H:15])[O:7]2)[H:8]>>[O:1]([C@@:2]1([H:9])[C:3]([H:10])([H:11])[C@@:4]([C:5][H:13])([H:12])[O:7][C:6]1([H:14])[H:15])[H:8]"
O        2.00243164      -1.01304786      -0.30900301
C        0.91072845      -0.47206967       0.39610169
C        0.56805304       0.97503548      -0.01712216
C       -0.84663882       0.76825628      -0.59964892
C       -1.69860337       0.49162869       0.60040261
C       -0.40704747      -1.15468107       0.02235738
O       -0.77534204      -0.54016209      -1.19161944
H        1.79630385      -0.97365426      -1.24750255
H        1.15383748      -0.57998493       1.45266295
H        0.57555452       1.66253030       0.83253725
H        1.25789179       1.34621479      -0.77470857
H       -1.20794927       1.52014613      -1.30005563
H       -1.51901306       1.18083788       1.43888562
H       -1.44348201      -0.97035045       0.76095632
H       -0.36672472      -2.24069920      -0.06424355
15
Frame=7 idx=011905 GeodesicLength=0.4894416592707398 rxn_smarts="[O:1]([C@@:2]1([H:9])[C:3]([H:10])([H:11])[C@:4]2([H:12])[C:5]([H:13])([H:14])[C@@:6]1([H:15])[O:7]2)[H:8]>>[O:1]([C@@:2]1([H:9])[C:3]([H:10])([H:11])[C@@:4]([C:5][H:13])([H:12])[O:7][C:6]1([H:14])[H:15])[H:8]"
O        2.00109135      -1.00748558      -0.32297413
C        0.91439239      -0.47324628       0.39446498
C        0.56653605       0.97511756      -0.01011415
C       -0.84311871       0.76464739      -0.60698460
C       -1.67334135       0.49044900       0.60497306
C       -0.40704328      -1.15442897       0.03066882
O       -0.77056297      -0.54638149      -1.19137356
H        1.78068402      -0.97464635      -1.25853687
H        1.16768960      -0.58408337       1.44839321
H        0.56148122       1.65233398       0.84864980
H        1.25829941       1.36110287      -0.75799276
H       -1.20214930       1.51316116      -1.31149342
H       -1.52294144       1.20537915       1.42588116
H       -1.46898510      -0.98152943       0.76189966
H       -0.36203189      -2.24038964      -0.05546119
15
Frame=8 idx=011905 GeodesicLength=0.5595729247697881 rxn_smarts="[O:1]([C@@:2]1([H:9])[C:3]([H:10])([H:11])[C@:4]2([H:12])[C:5]([H:13])([H:14])[C@@:6]1([H:15])[O:7]2)[H:8]>>[O:1]([C@@:2]1([H:9])[C:3]([H:10])([H:11])[C@@:4]([C:5][H:13])([H:12])[O:7][C:6]1([H:14])[H:15])[H:8]"
O        1.99971417      -1.00192501      -0.33714521
C        0.91832256      -0.47438957       0.39272176
C        0.56524945       0.97521777      -0.00310749
C       -0.83953148       0.76111805      -0.61374998
C       -1.64802780       0.48897217       0.60976654
C       -0.40689800      -1.15404343       0.03921006
O       -0.76577156      -0.55242690      -1.19082239
H        1.76504387      -0.97572632      -1.26950138
H        1.18198631      -0.58808240       1.44386672
H        0.54802823       1.64198032       0.86450683
H        1.25852242       1.37580610      -0.74135084
H       -1.19627933       1.50626490      -1.32231541
H       -1.52809454       1.22880453       1.41178611
H       -1.49473823      -0.99162548       0.76232446
H       -0.35752607      -2.23994474      -0.04618976
15
Frame=9 idx=011905 GeodesicLength=0.6296389510435678 rxn_smarts="[O:1]([C@@:2]1([H:9])[C:3]([H:10])([H:11])[C@:4]2([H:12])[C:5]([H:13])([H:14])[C@@:6]1([H:15])[O:7]2)[H:8]>>[O:1]([C@@:2]1([H:9])[C:3]([H:10])([H:11])[C@@:4]([C:5][H:13])([H:12])[O:7][C:6]1([H:14])[H:15])[H:8]"
O        1.99828308      -0.99634913      -0.35145415
C        0.92247216      -0.47548954       0.39088441
C        0.56416550       0.97534040       0.00388482
C       -0.83589842       0.75767115      -0.61996931
C       -1.62277787       0.48723917       0.61469157
C       -0.40662266      -1.15352945       0.04794502
O       -0.76098758      -0.55829494      -1.18999362
H        1.74939788      -0.97690609      -1.28033944
H        1.19664604      -0.59196341       1.43910089
H        0.53514953       1.63150091       0.88009257
H        1.25854836       1.39031807      -0.72479116
H       -1.19033917       1.49945767      -1.33256278
H       -1.53417058       1.25110672       1.39674518
H       -1.52068035      -1.00074394       0.76225659
H       -0.35318590      -2.23935761      -0.03649059
15
Frame=10 idx=011905 GeodesicLength=0.6997309825341589 rxn_smarts="[O:1]([C@@:2]1([H:9])[C:3]([H:10])([H:11])[C@:4]2([H:12])[C:5]([H:13])([H:14])[C@@:6]1([H:15])[O:7]2)[H:8]>>[O:1]([C@@:2]1([H:9])[C:3]([H:10])([H:11])[C@@:4]([C:5][H:13])([H:12])[O:7][C:6]1([H:14])[H:15])[H:8]"
O        1.99678702      -0.99075549      -0.36588310
C        0.92683003      -0.47652103       0.38895493
C        0.56329155       0.97550735       0.01084901
C       -0.83222428       0.75432158      -0.62570062
C       -1.59759288       0.48533650       0.61973166
C       -0.40621683      -1.15286451       0.05686695
O       -0.75623012      -0.56399191      -1.18889829
H        1.73374315      -0.97820206      -1.29103142
H        1.21164541      -0.59568910       1.43409718
H        0.52283281       1.62093220       0.89539901
H        1.25841281       1.40464911      -0.70833809
H       -1.18429453       1.49274290      -1.34232527
H       -1.54110795       1.27175518       1.38083675
H       -1.54681778      -1.00859768       0.76176525
H       -0.34905841      -2.23862306      -0.02632396
15
Frame=11 idx=011905 GeodesicLength=0.7698291471795515 rxn_smarts="[O:1]([C@@:2]1([H:9])[C:3]([H:10])([H:11])[C@:4]2([H:12])[C:5]([H:13])([H:14])[C@@:6]1([H:15])[O:7]2)[H:8]>>[O:1]([C@@:2]1([H:9])[C:3]([H:10])([H:11])[C@@:4]([C:5][H:13])([H:12])[O:7][C:6]1([H:14])[H:15])[H:8]"
O        1.99521252      -0.98513382      -0.38037312
C        0.93135702      -0.47746289       0.38694437
C        0.56261076       0.97573222       0.01775911
C       -0.82852074       0.75107707      -0.63099867
C       -1.57254982       0.48331743       0.62480354
C       -0.40569025      -1.15203997       0.06594451
O       -0.75151160      -0.56951980      -1.18756899
H        1.71809791      -0.97963231      -1.30152581
H        1.22690961      -0.59922160       1.42887406
H        0.51104031       1.61031943       0.91039398
H        1.25812361       1.41879853      -0.69201902
H       -1.17812819       1.48612168      -1.35167903
H       -1.54867034       1.29050266       1.36426843
H       -1.57313290      -1.01512498       0.76089407
H       -0.34514789      -2.23773365      -0.01571745
15
Frame=12 idx=011905 GeodesicLength=0.839924577102218 rxn_smarts="[O:1]([C@@:2]1([H:9])[C:3]([H:10])([H:11])[C@:4]2([H:12])[C:5]([H:13])([H:14])[C@@:6]1([H:15])[O:7]2)[H:8]>>[O:1]([C@@:2]1([H:9])[C:3]([H:10])([H:11])[C@@:4]([C:5][H:13])([H:12])[O:7][C:6]1([H:14])[H:15])[H:8]"
O        1.99355027      -0.97947281      -0.39486991
C        0.93601461      -0.47829714       0.38486369
C        0.56210169       0.97602605       0.02459279
C       -0.82479979       0.74793931      -0.63592403
C       -1.54771935       0.48121623       0.62982395
C       -0.40505188      -1.15105163       0.07514375
O       -0.74683854      -0.57488621      -1.18604267
H        1.70248307      -0.98121117      -1.31177667
H        1.24236397      -0.60253021       1.42345096
H        0.49972865       1.59970476       0.92505050
H        1.25768591       1.43276955      -0.67585307
H       -1.17182805       1.47958931      -1.36070194
H       -1.55662401       1.30715122       1.34725821
H       -1.59961138      -1.02026015       0.75968760
H       -0.34145515      -2.23668712      -0.00470316
15
Frame=13 idx=011905 GeodesicLength=0.9100026061676598 rxn_smarts="[O:1]([C@@:2]1([H:9])[C:3]([H:10])([H:11])[C@:4]2([H:12])[C:5]([H:13])([H:14])[C@@:6]1([H:15])[O:7]2)[H:8]>>[O:1]([C@@:2]1([H:9])[C:3]([H:10])([H:11])[C@@:4]([C:5][H:13])([H:12])[O:7][C:6]1([H:14])[H:15])[H:8]"
O        1.99179613      -0.97375882      -0.40932086
C        0.94076573      -0.47901189       0.38272216
C        0.56173885       0.97639336       0.03132992
C       -0.82107330       0.74490286      -0.64053418
C       -1.52318019       0.47905260       0.63470958
C       -0.40430722      -1.14990507       0.08442455
O       -0.74221513      -0.58010252      -1.18435870
H        1.68693008      -0.98294706      -1.32173827
H        1.25793356      -0.60559243       1.41784717
H        0.48884986       1.58912161       0.93934404
H        1.25709844       1.44656399      -0.65985619
H       -1.16538866       1.47313663      -1.36946124
H       -1.56473635       1.32163172       1.33003712
H       -1.62624472      -1.02399674       0.75818668
H       -0.33796708      -2.23548824       0.00666822
15
Frame=14 idx=011905 GeodesicLength=0.9800599903085456 rxn_smarts="[O:1]([C@@:2]1([H:9])[C:3]([H:10])([H:11])[C@:4]2([H:12])[C:5]([H:13])([H:14])[C@@:6]1([H:15])[O:7]2)[H:8]>>[O:1]([C@@:2]1([H:9])[C:3]([H:10])([H:11])[C@@:4]([C:5][H:13])([H:12])[O:7][C:6]1([H:14])[H:15])[H:8]"
O        1.98994824      -0.96798312      -0.42368085
C        0.94557823      -0.47959633       0.38052889
C        0.56149914       0.97683978       0.03795158
C       -0.81735164       0.74196321      -0.64488356
C       -1.49898953       0.47684322       0.63938607
C       -0.40346249      -1.14860329       0.09375171
O       -0.73764096      -0.58517919      -1.18255435
H        1.67146532      -0.98485018      -1.33137513
H        1.27355256      -0.60838890       1.41208249
H        0.47836532       1.57860272       0.95325236
H        1.25636054       1.46018656      -0.64404350
H       -1.15880244       1.46675427      -1.37802235
H       -1.57282271       1.33385332       1.31281740
H       -1.65302424      -1.02630259       0.75643433
H       -0.33467535      -2.23413949       0.01835490
15
Frame=15 idx=011905 GeodesicLength=1.050092495877843 rxn_smarts="[O:1]([C@@:2]1([H:9])[C:3]([H:10])([H:11])[C@:4]2([H:12])[C:5]([H:13])([H:14])[C@@:6]1([H:15])[O:7]2)[H:8]>>[O:1]([C@@:2]1([H:9])[C:3]([H:10])([H:11])[C@@:4]([C:5][H:13])([H:12])[O:7][C:6]1([H:14])[H:15])[H:8]"
O        1.98801033      -0.96213572      -0.43791590
C        0.95042631      -0.48004704       0.37829015
C        0.56135822       0.97736324       0.04444484
C       -0.81364416       0.73910862      -0.64901955
C       -1.47520070       0.47458687       0.64379170
C       -0.40251796      -1.14715976       0.10308899
O       -0.73311450      -0.59013159      -1.18066406
H        1.65611932      -0.98692452      -1.34066107
H        1.28916689      -0.61091247       1.40617272
H        0.46823114       1.56816528       0.96676614
H        1.25546614       1.47364252      -0.62841905
H       -1.15206875       1.46042805      -1.38643664
H       -1.58072693       1.34385809       1.29578931
H       -1.67994720      -1.02718907       0.75446855
H       -0.33155814      -2.23265248       0.03030385
15
Frame=16 idx=011905 GeodesicLength=1.120096237456247 rxn_smarts="[O:1]([C@@:2]1([H:9])[C:3]([H:10])([H:11])[C@:4]2([H:12])[C:5]([H:13])([H:14])[C@@:6]1([H:15])[O:7]2)[H:8]>>[O:1]([C@@:2]1([H:9])[C:3]([H:10])([H:11])[C@@:4]([C:5][H:13])([H:12])[O:7][C:6]1([H:14])[H:15])[H:8]"
O        1.98598941      -0.95620905      -0.45200195
C        0.95529103      -0.48036587       0.37601077
C        0.56129371       0.97795911       0.05080217
C       -0.80995909       0.73632565      -0.65298110
C       -1.45185320       0.47227875       0.64788220
C       -0.40147162      -1.14559096       0.11240408
O       -0.72863315      -0.59497576      -1.17871777
H        1.64092110      -0.98917146      -1.34957810
H        1.30473401      -0.61316407       1.40013225
H        0.45841219       1.55781907       0.97988270
H        1.25440679       1.48693764      -0.61298360
H       -1.14519173       1.45414337      -1.39474247
H       -1.58833640       1.35173589       1.27910587
H       -1.70701425      -1.02668136       0.75232308
H       -0.32858882      -2.23104094       0.04246188
