12
Frame=0 idx=007976 GeodesicLength=0.0 rxn_smarts="[N:1]([c:2]1[n:3][c:4]([H:10])[c:5]([H:11])[c:6]([H:12])[n:7]1)([H:8])[H:9]>>[N:1](=[C:2]1[N:3]=[C:4]([H:10])[C:5]([H:9])([H:11])[C:6]([H:12])=[N:7]1)[H:8]"
N        1.76132189      -0.48672372      -0.44315878
C        1.09947505      -0.08824265       0.62789210
N        0.32743366      -1.05621483       1.20560118
C       -0.80157564      -1.03392112       0.57199413
C       -0.96489708      -0.02604257      -0.45562775
C       -0.44455427       1.23128069       0.05158240
N        0.68357691       1.22176124       0.69498369
H        2.19368258       0.32134817      -0.88719309
H        0.49277694      -0.44646465      -0.96141581
H       -1.55314342      -1.78613420       0.78977485
H       -1.84707908      -0.02934236      -1.08034205
H       -0.94701758       2.17869605      -0.11409089
12
Frame=1 idx=007976 GeodesicLength=0.07589916624708316 rxn_smarts="[N:1]([c:2]1[n:3][c:4]([H:10])[c:5]([H:11])[c:6]([H:12])[n:7]1)([H:8])[H:9]>>[N:1](=[C:2]1[N:3]=[C:4]([H:10])[C:5]([H:9])([H:11])[C:6]([H:12])=[N:7]1)[H:8]"
N        1.77080321      -0.48379346      -0.43883758
C        1.10451249      -0.08715390       0.63018472
N        0.32661438      -1.05642742       1.20202185
C       -0.80798542      -1.03039794       0.57747818
C       -0.97103354      -0.02512807      -0.45386051
C       -0.45182079       1.23298133       0.05423825
N        0.68119446       1.22229523       0.68981456
H        2.21512938       0.32173194      -0.87447305
H        0.49453708      -0.45835203      -0.98395060
H       -1.54974656      -1.79604828       0.78152831
H       -1.86735232      -0.02253435      -1.05887980
H       -0.94485238       2.18282696      -0.12526434
12
Frame=2 idx=007976 GeodesicLength=0.15178125313253063 rxn_smarts="[N:1]([c:2]1[n:3][c:4]([H:10])[c:5]([H:11])[c:6]([H:12])[n:7]1)([H:8])[H:9]>>[N:1](=[C:2]1[N:3]=[C:4]([H:10])[C:5]([H:9])([H:11])[C:6]([H:12])=[N:7]1)[H:8]"
N        1.78004697      -0.48068846      -0.43468629
C        1.10961225      -0.08601622       0.63255809
N        0.32582060      -1.05667500       1.19824350
C       -0.81442122      -1.02689737       0.58302285
C       -0.97726972      -0.02419326      -0.45202228
C       -0.45926533       1.23470181       0.05714682
N        0.67876603       1.22278155       0.68454858
H        2.23663822       0.32211043      -0.86141072
H        0.49618205      -0.47057402      -1.00699589
H       -1.54631380      -1.80548637       0.77336111
H       -1.88706000      -0.01578307      -1.03734601
H       -0.94273605       2.18671999      -0.13641978
12
Frame=3 idx=007976 GeodesicLength=0.22765244368731757 rxn_smarts="[N:1]([c:2]1[n:3][c:4]([H:10])[c:5]([H:11])[c:6]([H:12])[n:7]1)([H:8])[H:9]>>[N:1](=[C:2]1[N:3]=[C:4]([H:10])[C:5]([H:9])([H:11])[C:6]([H:12])=[N:7]1)[H:8]"
N        1.78906290      -0.47738970      -0.43071468
C        1.11478247      -0.08482609       0.63501220
N        0.32506107      -1.05696175       1.19424600
C       -0.82086442      -1.02343533       0.58860225
C       -0.98359386      -0.02323950      -0.45012295
C       -0.46688293       1.23644063       0.06030566
N        0.67628809       1.22321583       0.67918360
H        2.25823358       0.32247992      -0.84798258
H        0.49771751      -0.48314201      -1.03059107
H       -1.54290149      -1.81438823       0.76535096
H       -1.90619784      -0.00910504      -1.01578940
H       -0.94070507       2.19035127      -0.14749999
12
Frame=4 idx=007976 GeodesicLength=0.30350542332734787 rxn_smarts="[N:1]([c:2]1[n:3][c:4]([H:10])[c:5]([H:11])[c:6]([H:12])[n:7]1)([H:8])[H:9]>>[N:1](=[C:2]1[N:3]=[C:4]([H:10])[C:5]([H:9])([H:11])[C:6]([H:12])=[N:7]1)[H:8]"
N        1.79786587      -0.47388375      -0.42693410
C        1.12003264      -0.08357892       0.63754183
N        0.32434461      -1.05728876       1.19000534
C       -0.82729515      -1.02002435       0.59418420
C       -0.98998937      -0.02226895      -0.44818315
C       -0.47466160       1.23819727       0.06369713
N        0.67375851       1.22359396       0.67370782
H        2.27994368       0.32283462      -0.83416822
H        0.49916152      -0.49607990      -1.05477388
H       -1.53958412      -1.82267076       0.75760126
H       -1.92474569      -0.00252049      -0.99428220
H       -0.93883089       2.19369005      -0.15839603
12
Frame=5 idx=007976 GeodesicLength=0.3793469168587421 rxn_smarts="[N:1]([c:2]1[n:3][c:4]([H:10])[c:5]([H:11])[c:6]([H:12])[n:7]1)([H:8])[H:9]>>[N:1](=[C:2]1[N:3]=[C:4]([H:10])[C:5]([H:9])([H:11])[C:6]([H:12])=[N:7]1)[H:8]"
N        1.80646610      -0.47015873      -0.42334917
C        1.12537033      -0.08226554       0.64014593
N        0.32367646      -1.05764547       1.18550971
C       -0.83369922      -1.01666396       0.59975264
C       -0.99644730      -0.02127723      -0.44621252
C       -0.48258964       1.23997682       0.06730430
N        0.67118235       1.22392039       0.66810351
H        2.30179294       0.32315025      -0.81994518
H        0.50052258      -0.50941344      -1.07958007
H       -1.53640578      -1.83030743       0.75016780
H       -1.94270003       0.00395605      -0.97287412
H       -0.93716879       2.19672829      -0.16902282
12
Frame=6 idx=007976 GeodesicLength=0.4551744569851654 rxn_smarts="[N:1]([c:2]1[n:3][c:4]([H:10])[c:5]([H:11])[c:6]([H:12])[n:7]1)([H:8])[H:9]>>[N:1](=[C:2]1[N:3]=[C:4]([H:10])[C:5]([H:9])([H:11])[C:6]([H:12])=[N:7]1)[H:8]"
N        1.81487343      -0.46620591      -0.41996408
C        1.13080343      -0.08087473       0.64282394
N        0.32306217      -1.05801754       1.18075077
C       -0.84006325      -1.01334861       0.60529608
C       -1.00295568      -0.02026033      -0.44422307
C       -0.49065160       1.24178489       0.07110634
N        0.66856419       1.22420098       0.66235089
H        2.32380618       0.32339536      -0.80529153
H        0.50181274      -0.52317513      -1.10504112
H       -1.53340263      -1.83728280       0.74309532
H       -1.96006703       0.01031517      -0.95161158
H       -0.93578195       2.19946866      -0.17929195
12
Frame=7 idx=007976 GeodesicLength=0.5309977769969259 rxn_smarts="[N:1]([c:2]1[n:3][c:4]([H:10])[c:5]([H:11])[c:6]([H:12])[n:7]1)([H:8])[H:9]>>[N:1](=[C:2]1[N:3]=[C:4]([H:10])[C:5]([H:9])([H:11])[C:6]([H:12])=[N:7]1)[H:8]"
N        1.82308967      -0.46201385      -0.41677849
C        1.13633799      -0.07939192       0.64558380
N        0.32250586      -1.05838586       1.17573101
C       -0.84637691      -1.01006604       0.61082030
C       -1.00950782      -0.01921252      -0.44221185
C       -0.49883745       1.24362926       0.07509637
N        0.66590897       1.22444586       0.65643790
H        2.34600119       0.32353779      -0.79017727
H        0.50302962      -0.53739501      -1.13118678
H       -1.53057597      -1.84365429       0.73636823
H       -1.97689212       0.01656539      -0.93048960
H       -0.93468302       2.20194118      -0.18919361
12
Frame=8 idx=007976 GeodesicLength=0.6068120504008288 rxn_smarts="[N:1]([c:2]1[n:3][c:4]([H:10])[c:5]([H:11])[c:6]([H:12])[n:7]1)([H:8])[H:9]>>[N:1](=[C:2]1[N:3]=[C:4]([H:10])[C:5]([H:9])([H:11])[C:6]([H:12])=[N:7]1)[H:8]"
N        1.83113317      -0.45757937      -0.41378471
C        1.14197956      -0.07780432       0.64842401
N        0.32200775      -1.05872948       1.17044326
C       -0.85263151      -1.00680347       0.61631163
C       -1.01609396      -0.01812570      -0.44019598
C       -0.50712453       1.24551834       0.07923714
N        0.66322462       1.22466313       0.65033259
H        2.36839065       0.32353762      -0.77459755
H        0.50419404      -0.55212596      -1.15804205
H       -1.52795531      -1.84938910       0.73003152
H       -1.99316056       0.02269307      -0.90957144
H       -0.93396392       2.20414524      -0.19858842
12
Frame=9 idx=007976 GeodesicLength=0.6826083931916879 rxn_smarts="[N:1]([c:2]1[n:3][c:4]([H:10])[c:5]([H:11])[c:6]([H:12])[n:7]1)([H:8])[H:9]>>[N:1](=[C:2]1[N:3]=[C:4]([H:10])[C:5]([H:9])([H:11])[C:6]([H:12])=[N:7]1)[H:8]"
N        1.83899764      -0.45289318      -0.41098648
C        1.14772988      -0.07609904       0.65135213
N        0.32157008      -1.05902959       1.16489512
C       -0.85882066      -1.00354800       0.62178611
C       -1.02271734      -0.01699244      -0.43815958
C       -0.51550960       1.24745931       0.08353590
N        0.66051415       1.22486110       0.64402709
H        2.39098084       0.32336111      -0.75852406
H        0.50530738      -0.56738586      -1.18563242
H       -1.52552293      -1.85456359       0.72404636
H       -2.00891383       0.02870748      -0.88883706
H       -0.93361560       2.20612270      -0.20750311
12
Frame=10 idx=007976 GeodesicLength=0.7584046551698574 rxn_smarts="[N:1]([c:2]1[n:3][c:4]([H:10])[c:5]([H:11])[c:6]([H:12])[n:7]1)([H:8])[H:9]>>[N:1](=[C:2]1[N:3]=[C:4]([H:10])[C:5]([H:9])([H:11])[C:6]([H:12])=[N:7]1)[H:8]"
N        1.84670229      -0.44793732      -0.40837110
C        1.15359159      -0.07426049       0.65436955
N        0.32119808      -1.05927044       1.15907753
C       -0.86493563      -1.00029154       0.62723475
C       -1.02937355      -0.01580426      -0.43611123
C       -0.52397907       1.24945955       0.08797300
N        0.65777920       1.22504767       0.63750463
H        2.41377630       0.32296619      -0.74193983
H        0.50637511      -0.58323189      -1.21398752
H       -1.52328156      -1.85917899       0.71842633
H       -2.02416656       0.03460924      -0.86831038
H       -0.93368620       2.20789228      -0.21586572
12
Frame=11 idx=007976 GeodesicLength=0.8342020152402049 rxn_smarts="[N:1]([c:2]1[n:3][c:4]([H:10])[c:5]([H:11])[c:6]([H:12])[n:7]1)([H:8])[H:9]>>[N:1](=[C:2]1[N:3]=[C:4]([H:10])[C:5]([H:9])([H:11])[C:6]([H:12])=[N:7]1)[H:8]"
N        1.85425907      -0.44269386      -0.40592306
C        1.15956451      -0.07227190       0.65748555
N        0.32089335      -1.05943340       1.15299081
C       -0.87096995      -0.99702208       0.63266078
C       -1.03606355      -0.01455001      -0.43404554
C       -0.53252390       1.25152846       0.09254342
N        0.65502032       1.22523277       0.63075586
H        2.43676342       0.32230416      -0.72484428
H        0.50740244      -0.59971017      -1.24312667
H       -1.52121371      -1.86327072       0.71314902
H       -2.03893525       0.04040193      -0.84800101
H       -0.93419675       2.20948481      -0.22364488
12
Frame=12 idx=007976 GeodesicLength=0.9100037516235142 rxn_smarts="[N:1]([c:2]1[n:3][c:4]([H:10])[c:5]([H:11])[c:6]([H:12])[n:7]1)([H:8])[H:9]>>[N:1](=[C:2]1[N:3]=[C:4]([H:10])[C:5]([H:9])([H:11])[C:6]([H:12])=[N:7]1)[H:8]"
N        1.86167947      -0.43714532      -0.40362846
C        1.16564787      -0.07011928       0.66070817
N        0.32065990      -1.05950559       1.14663264
C       -0.87691596      -0.99373495       0.63806589
C       -1.04278860      -0.01322220      -0.43195704
C       -0.54113916       1.25367132       0.09724946
N        0.65223476       1.22542158       0.62377829
H        2.45993030       0.32134430      -0.70722144
H        0.50839430      -0.61686052      -1.27307645
H       -1.51929946      -1.86688227       0.70818821
H       -2.05325954       0.04609984      -0.82788887
H       -0.93514389       2.21093309      -0.23085042
12
Frame=13 idx=007976 GeodesicLength=0.9858007978228535 rxn_smarts="[N:1]([c:2]1[n:3][c:4]([H:10])[c:5]([H:11])[c:6]([H:12])[n:7]1)([H:8])[H:9]>>[N:1](=[C:2]1[N:3]=[C:4]([H:10])[C:5]([H:9])([H:11])[C:6]([H:12])=[N:7]1)[H:8]"
N        1.86898126      -0.43127811      -0.40146352
C        1.17183946      -0.06778811       0.66404711
N        0.32049818      -1.05947115       1.14000279
C       -0.88276821      -0.99042263       0.64344765
C       -1.04954874      -0.01181022      -0.42984343
C       -0.54981422       1.25589472       0.10208675
N        0.64942108       1.22561942       0.61656689
H        2.48324844       0.32005297      -0.68908575
H        0.50936791      -0.63473575      -1.30385374
H       -1.51752476      -1.87003129       0.70352531
H       -2.06715397       0.05170596      -0.80798280
H       -0.93654644       2.21226420      -0.23744726
12
Frame=14 idx=007976 GeodesicLength=1.0615966009816074 rxn_smarts="[N:1]([c:2]1[n:3][c:4]([H:10])[c:5]([H:11])[c:6]([H:12])[n:7]1)([H:8])[H:9]>>[N:1](=[C:2]1[N:3]=[C:4]([H:10])[C:5]([H:9])([H:11])[C:6]([H:12])=[N:7]1)[H:8]"
N        1.87617810      -0.42506645      -0.39941100
C        1.17813596      -0.06526190       0.66751124
N        0.32041313      -1.05931811       1.13309568
C       -0.88851812      -0.98708090       0.64880766
C       -1.05634989      -0.01030319      -0.42769392
C       -0.55854845       1.25820633       0.10706447
N        0.64657405       1.22583378       0.60912638
H        2.50669315       0.31839187      -0.67042800
H        0.51032657      -0.65338139      -1.33548419
H       -1.51586372      -1.87276463       0.69912670
H       -2.08064998       0.05723357      -0.78826016
H       -0.93839080       2.21351102      -0.24345487
12
Frame=15 idx=007976 GeodesicLength=1.1373809296923736 rxn_smarts="[N:1]([c:2]1[n:3][c:4]([H:10])[c:5]([H:11])[c:6]([H:12])[n:7]1)([H:8])[H:9]>>[N:1](=[C:2]1[N:3]=[C:4]([H:10])[C:5]([H:9])([H:11])[C:6]([H:12])=[N:7]1)[H:8]"
N        1.88329044      -0.41849103      -0.39744409
C        1.18453266      -0.06252597       0.67111080
N        0.32040699      -1.05903506       1.12590622
C       -0.89415838      -0.98370820       0.65414064
C       -1.06319497      -0.00869020      -0.42550367
C       -0.56733608       1.26061174       0.11218721
N        0.64368791       1.22606842       0.60146193
H        2.53022639       0.31633375      -0.65126108
H        0.51129013      -0.67285131      -1.36798661
H       -1.51429837      -1.87510958       0.69496697
H       -2.09377370       0.06269359      -0.76870700
H       -0.94067302       2.21470387      -0.24887133
12
Frame=16 idx=007976 GeodesicLength=1.213147942807034 rxn_smarts="[N:1]([c:2]1[n:3][c:4]([H:10])[c:5]([H:11])[c:6]([H:12])[n:7]1)([H:8])[H:9]>>[N:1](=[C:2]1[N:3]=[C:4]([H:10])[C:5]([H:9])([H:11])[C:6]([H:12])=[N:7]1)[H:8]"
N        1.89033750      -0.41153063      -0.39553349
C        1.19102360      -0.05956481       0.67485828
N        0.32048260      -1.05861100       1.11843047
C       -0.89968135      -0.98030306       0.65944523
C       -1.07008963      -0.00695979      -0.42326208
C       -0.57617459       1.26311744       0.11746651
N        0.64075584       1.22632852       0.59358430
H        2.55380682       0.31384958      -0.63160005
H        0.51227149      -0.69319559      -1.40138401
H       -1.51280462      -1.87710262       0.69101134
H       -2.10654984       0.06809803      -0.74930390
H       -0.94337782       2.21587393      -0.25371258
