12
Frame=0 idx=005832 GeodesicLength=0.0 rxn_smarts="[N:1]([C@@:2]([C:3]([O:4][H:12])([H:10])[H:11])([C:5]#[N:6])[H:9])([H:7])[H:8]>>[N:1]([C:5]1=[N:6][C@@:2]1([C:3]([O:4][H:12])([H:10])[H:11])[H:9])([H:7])[H:8]"
N        1.24201685       1.19234046       0.50173653
C        0.13069680      -0.54915526       0.27005537
C       -1.11327688      -0.54592808      -0.52750697
O       -2.28889928      -0.76362366       0.20421389
C        1.40329680      -0.10126792      -0.24634698
N        2.24220315      -0.58568580      -0.97557294
H        1.88143801       1.36973866       1.26751833
H        1.06713500       2.01873017      -0.05686941
H        0.09118200      -1.03079918       1.24686467
H       -1.15835169       0.35192055      -1.15576959
H       -0.99132150      -1.38788244      -1.22242198
H       -2.50611924       0.03161246       0.69409905
12
Frame=1 idx=005832 GeodesicLength=0.0671899105714709 rxn_smarts="[N:1]([C@@:2]([C:3]([O:4][H:12])([H:10])[H:11])([C:5]#[N:6])[H:9])([H:7])[H:8]>>[N:1]([C:5]1=[N:6][C@@:2]1([C:3]([O:4][H:12])([H:10])[H:11])[H:9])([H:7])[H:8]"
N        1.21228006       1.20088005       0.51394812
C        0.14345446      -0.55066413       0.25937193
C       -1.10598276      -0.55028369      -0.53362812
O       -2.27728795      -0.73690744       0.21426742
C        1.40691847      -0.08607810      -0.25908961
N        2.22381863      -0.61343918      -0.97888208
H        1.83798149       1.36988697       1.29221674
H        1.05929541       2.02826666      -0.04913463
H        0.11491396      -1.05520185       1.22480473
H       -1.14828434       0.33615588      -1.17821401
H       -1.00258953      -1.40748384      -1.21194302
H       -2.46451789       0.06486865       0.70628254
12
Frame=2 idx=005832 GeodesicLength=0.1345826992239229 rxn_smarts="[N:1]([C@@:2]([C:3]([O:4][H:12])([H:10])[H:11])([C:5]#[N:6])[H:9])([H:7])[H:8]>>[N:1]([C:5]1=[N:6][C@@:2]1([C:3]([O:4][H:12])([H:10])[H:11])[H:9])([H:7])[H:8]"
N        1.18265126       1.20857874       0.52552299
C        0.15648840      -0.55173754       0.24883648
C       -1.09856738      -0.55453081      -0.53935233
O       -2.26482941      -0.71044112       0.22408897
C        1.41110062      -0.07128986      -0.27187753
N        2.20408184      -0.64069957      -0.98230326
H        1.79398537       1.36894203       1.31627979
H        1.05143074       2.03725546      -0.04063873
H        0.13852646      -1.07748481       1.20298510
H       -1.13844315       0.32033653      -1.19979951
H       -1.01359272      -1.42619780      -1.20074833
H       -2.42283201       0.09726876       0.71700636
12
Frame=3 idx=005832 GeodesicLength=0.20254003056822883 rxn_smarts="[N:1]([C@@:2]([C:3]([O:4][H:12])([H:10])[H:11])([C:5]#[N:6])[H:9])([H:7])[H:8]>>[N:1]([C:5]1=[N:6][C@@:2]1([C:3]([O:4][H:12])([H:10])[H:11])[H:9])([H:7])[H:8]"
N        1.15321440       1.21538324       0.53659174
C        0.16976298      -0.55251931       0.23857362
C       -1.09099571      -0.55877178      -0.54470570
O       -2.25163877      -0.68399372       0.23362608
C        1.41589926      -0.05723906      -0.28455636
N        2.18291919      -0.66663650      -0.98651161
H        1.74955379       1.36682215       1.33988249
H        1.04349348       2.04569860      -0.03137101
H        0.16187051      -1.09775420       1.18177761
H       -1.12861727       0.30420381      -1.22091382
H       -1.02429784      -1.44438585      -1.18869207
H       -2.38116400       0.12919262       0.72629904
12
Frame=4 idx=005832 GeodesicLength=0.2705678340005482 rxn_smarts="[N:1]([C@@:2]([C:3]([O:4][H:12])([H:10])[H:11])([C:5]#[N:6])[H:9])([H:7])[H:8]>>[N:1]([C:5]1=[N:6][C@@:2]1([C:3]([O:4][H:12])([H:10])[H:11])[H:9])([H:7])[H:8]"
N        1.12398533       1.22127731       0.54713170
C        0.18317273      -0.55296019       0.22857353
C       -1.08337590      -0.56305212      -0.54960398
O       -2.23780630      -0.65744213       0.24290927
C        1.42112538      -0.04365933      -0.29700727
N        2.16088776      -0.69102324      -0.99135293
H        1.70467875       1.36355790       1.36280298
H        1.03550536       2.05341935      -0.02130353
H        0.18504395      -1.11651678       1.16083214
H       -1.11884325       0.28761533      -1.24141044
H       -1.03492034      -1.46209254      -1.17552185
H       -2.33945347       0.16087643       0.73395037
12
Frame=5 idx=005832 GeodesicLength=0.33965652519155254 rxn_smarts="[N:1]([C@@:2]([C:3]([O:4][H:12])([H:10])[H:11])([C:5]#[N:6])[H:9])([H:7])[H:8]>>[N:1]([C:5]1=[N:6][C@@:2]1([C:3]([O:4][H:12])([H:10])[H:11])[H:9])([H:7])[H:8]"
N        1.09501029       1.22627396       0.55729586
C        0.19673992      -0.55327487       0.21896592
C       -1.07562313      -0.56746240      -0.55409346
O       -2.22341673      -0.63055713       0.25186517
C        1.42699586      -0.03108024      -0.30913887
N        2.13753087      -0.71300541      -0.99757811
H        1.65933605       1.35906729       1.38543824
H        1.02754709       2.06056005      -0.01058520
H        0.20791449      -1.13383646       1.14062685
H       -1.10885552       0.27029908      -1.26176803
H       -1.04535562      -1.47962281      -1.16112296
H       -2.29782357       0.19263895       0.74009461
12
Frame=6 idx=005832 GeodesicLength=0.4084086162954962 rxn_smarts="[N:1]([C@@:2]([C:3]([O:4][H:12])([H:10])[H:11])([C:5]#[N:6])[H:9])([H:7])[H:8]>>[N:1]([C:5]1=[N:6][C@@:2]1([C:3]([O:4][H:12])([H:10])[H:11])[H:9])([H:7])[H:8]"
N        1.06652522       1.23042589       0.56677069
C        0.21013313      -0.55308795       0.20980551
C       -1.06789643      -0.57175942      -0.55802791
O       -2.20857106      -0.60425882       0.26028843
C        1.43302539      -0.01903761      -0.32079052
N        2.11366733      -0.73341513      -1.00408884
H        1.61413765       1.35360851       1.40675612
H        1.02008956       2.06676821       0.00051232
H        0.23014374      -1.14946579       1.12091992
H       -1.09901767       0.25303438      -1.28081364
H       -1.05551108      -1.49606911      -1.14595703
H       -2.25672580       0.22325683       0.74462495
12
Frame=7 idx=005832 GeodesicLength=0.4778662221378066 rxn_smarts="[N:1]([C@@:2]([C:3]([O:4][H:12])([H:10])[H:11])([C:5]#[N:6])[H:9])([H:7])[H:8]>>[N:1]([C:5]1=[N:6][C@@:2]1([C:3]([O:4][H:12])([H:10])[H:11])[H:9])([H:7])[H:8]"
N        1.03849135       1.23389182       0.57582125
C        0.22351653      -0.55265810       0.20113528
C       -1.06020397      -0.57605786      -0.56158099
O       -2.19346983      -0.57816945       0.26824117
C        1.43951585      -0.00797126      -0.33212545
N        2.08921995      -0.75194860      -1.01148920
H        1.56906712       1.34723799       1.42743426
H        1.01293561       2.07241716       0.01193959
H        0.25199565      -1.16370856       1.10213503
H       -1.08934342       0.23555758      -1.29929587
H       -1.06537746      -1.51193385      -1.13011062
H       -2.21634739       0.25334315       0.74789556
12
Frame=8 idx=005832 GeodesicLength=0.5476218010229267 rxn_smarts="[N:1]([C@@:2]([C:3]([O:4][H:12])([H:10])[H:11])([C:5]#[N:6])[H:9])([H:7])[H:8]>>[N:1]([C:5]1=[N:6][C@@:2]1([C:3]([O:4][H:12])([H:10])[H:11])[H:9])([H:7])[H:8]"
N        1.01085830       1.23676118       0.58448351
C        0.23683955      -0.55190651       0.19289535
C       -1.05261377      -0.58040095      -0.56472320
O       -2.17812176      -0.55219207       0.27581289
C        1.44623661       0.00249914      -0.34320063
N        2.06456364      -0.76884383      -1.01969717
H        1.52396774       1.33995152       1.44745708
H        1.00622288       2.07755434       0.02386051
H        0.27364479      -1.17690724       1.08394515
H       -1.07992434       0.21772927      -1.31724953
H       -1.07507860      -1.52734920      -1.11340257
H       -2.17659504       0.28310437       0.74981860
12
Frame=9 idx=005832 GeodesicLength=0.6182538920219917 rxn_smarts="[N:1]([C@@:2]([C:3]([O:4][H:12])([H:10])[H:11])([C:5]#[N:6])[H:9])([H:7])[H:8]>>[N:1]([C:5]1=[N:6][C@@:2]1([C:3]([O:4][H:12])([H:10])[H:11])[H:9])([H:7])[H:8]"
N        0.98366756       1.23893290       0.59280585
C        0.25007431      -0.55085765       0.18496135
C       -1.04506924      -0.58487483      -0.56737193
O       -2.16249008      -0.52610795       0.28292394
C        1.45320121       0.01235200      -0.35412353
N        2.03931292      -0.78329283      -1.02868861
H        1.47875657       1.33148463       1.46685520
H        1.00004978       2.08208411       0.03642744
H        0.29498411      -1.18906538       1.06610505
H       -1.07046107       0.19902001      -1.33482601
H       -1.08476622      -1.54243423      -1.09529372
H       -2.13725984       0.31275921       0.75022497
12
Frame=10 idx=005832 GeodesicLength=0.6887684062475095 rxn_smarts="[N:1]([C@@:2]([C:3]([O:4][H:12])([H:10])[H:11])([C:5]#[N:6])[H:9])([H:7])[H:8]>>[N:1]([C:5]1=[N:6][C@@:2]1([C:3]([O:4][H:12])([H:10])[H:11])[H:9])([H:7])[H:8]"
N        0.95701235       1.24066116       0.60066956
C        0.26310339      -0.54933088       0.17745360
C       -1.03769594      -0.58929087      -0.56959180
O       -2.14675363      -0.50061117       0.28959018
C        1.46014349       0.02182135      -0.36490733
N        2.01420018      -0.79662971      -1.03794669
H        1.43385777       1.32224545       1.48525145
H        0.99466289       2.08611010       0.04938588
H        0.31599908      -1.20010192       1.04881285
H       -1.06145492       0.18032187      -1.35149808
H       -1.09415294      -1.55674430      -1.07662320
H       -2.09892171       0.34154890       0.74940358
12
Frame=11 idx=005832 GeodesicLength=0.7600271315687671 rxn_smarts="[N:1]([C@@:2]([C:3]([O:4][H:12])([H:10])[H:11])([C:5]#[N:6])[H:9])([H:7])[H:8]>>[N:1]([C:5]1=[N:6][C@@:2]1([C:3]([O:4][H:12])([H:10])[H:11])[H:9])([H:7])[H:8]"
N        0.93089963       1.24189179       0.60819706
C        0.27597102      -0.54743873       0.17027384
C       -1.03042938      -0.59372810      -0.57138641
O       -2.13093064      -0.47543546       0.29572072
C        1.46722122       0.03070053      -0.37567299
N        1.98880911      -0.80816885      -1.04752776
H        1.38930837       1.31211426       1.50281958
H        0.98991430       2.08961190       0.06282289
H        0.33666064      -1.21006026       1.03201404
H       -1.05263332       0.16118894      -1.36755896
H       -1.10336291      -1.57043933      -1.05706906
H       -2.06142803       0.36976331       0.74736706
12
Frame=12 idx=005832 GeodesicLength=0.831351571490187 rxn_smarts="[N:1]([C@@:2]([C:3]([O:4][H:12])([H:10])[H:11])([C:5]#[N:6])[H:9])([H:7])[H:8]>>[N:1]([C:5]1=[N:6][C@@:2]1([C:3]([O:4][H:12])([H:10])[H:11])[H:9])([H:7])[H:8]"
N        0.90537238       1.24281724       0.61529233
C        0.28860797      -0.54506103       0.16348032
C       -1.02335095      -0.59807451      -0.57280559
O       -2.11517275      -0.45101270       0.30136641
C        1.47427184       0.03914582      -0.38643760
N        1.96358800      -0.81877458      -1.05709933
H        1.34527046       1.30138915       1.51937246
H        0.98607456       2.09265434       0.07656993
H        0.35697893      -1.21892221       1.01577477
H       -1.04430389       0.14218792      -1.38270739
H       -1.11220062      -1.58329226      -1.03718831
H       -2.02513596       0.39694279       0.74438199
12
Frame=13 idx=005832 GeodesicLength=0.9030225223652242 rxn_smarts="[N:1]([C@@:2]([C:3]([O:4][H:12])([H:10])[H:11])([C:5]#[N:6])[H:9])([H:7])[H:8]>>[N:1]([C:5]1=[N:6][C@@:2]1([C:3]([O:4][H:12])([H:10])[H:11])[H:9])([H:7])[H:8]"
N        0.88044372       1.24348150       0.62204777
C        0.30103839      -0.54222191       0.15700830
C       -1.01645212      -0.60236298      -0.57387848
O       -2.09954177      -0.42725017       0.30650840
C        1.48132820       0.04713230      -0.39733036
N        1.93844107      -0.82832058      -1.06665998
H        1.30180406       1.29005084       1.53503773
H        0.98311941       2.09529065       0.09072230
H        0.37699011      -1.22672984       1.00006090
H       -1.03641773       0.12312520      -1.39714047
H       -1.12070437      -1.59542503      -1.01687522
H       -1.99004899       0.42323001       0.74049912
12
Frame=14 idx=005832 GeodesicLength=0.974819956061469 rxn_smarts="[N:1]([C@@:2]([C:3]([O:4][H:12])([H:10])[H:11])([C:5]#[N:6])[H:9])([H:7])[H:8]>>[N:1]([C:5]1=[N:6][C@@:2]1([C:3]([O:4][H:12])([H:10])[H:11])[H:9])([H:7])[H:8]"
N        0.85613341       1.24395395       0.62837397
C        0.31320344      -0.53885988       0.15085962
C       -1.00973434      -0.60652804      -0.57461160
O       -2.08411121      -0.40439644       0.31115581
C        1.48832147       0.05470786      -0.40835739
N        1.91344573      -0.83707299      -1.07594968
H        1.25896832       1.27823816       1.54964240
H        0.98124044       2.09746940       0.10517096
H        0.39659030      -1.23342746       0.98486211
H       -1.02900352       0.10427863      -1.41066101
H       -1.12876590      -1.60668718      -0.99637786
H       -1.95628812       0.44832398       0.73589267
12
Frame=15 idx=005832 GeodesicLength=1.046747595969163 rxn_smarts="[N:1]([C@@:2]([C:3]([O:4][H:12])([H:10])[H:11])([C:5]#[N:6])[H:9])([H:7])[H:8]>>[N:1]([C:5]1=[N:6][C@@:2]1([C:3]([O:4][H:12])([H:10])[H:11])[H:9])([H:7])[H:8]"
N        0.83243575       1.24430673       0.63430054
C        0.32511246      -0.53498561       0.14500392
C       -1.00319994      -0.61056149      -0.57504929
O       -2.06895360      -0.38248591       0.31532790
C        1.49525503       0.06186044      -0.41958428
N        1.88864170      -0.84516740      -1.08489780
H        1.21683572       1.26604909       1.56322294
H        0.98043494       2.09921256       0.11991850
H        0.41578812      -1.23903202       0.97019765
H       -1.02208015       0.08570010      -1.42332645
H       -1.13636072      -1.61711170      -0.97581778
H       -1.92390932       0.47221520       0.73070416
12
Frame=16 idx=005832 GeodesicLength=1.1187419619709662 rxn_smarts="[N:1]([C@@:2]([C:3]([O:4][H:12])([H:10])[H:11])([C:5]#[N:6])[H:9])([H:7])[H:8]>>[N:1]([C:5]1=[N:6][C@@:2]1([C:3]([O:4][H:12])([H:10])[H:11])[H:9])([H:7])[H:8]"
N        0.80933633       1.24459753       0.63980735
C        0.33675891      -0.53059667       0.13941686
C       -0.99684247      -0.61443885      -0.57522008
O       -2.05411930      -0.36159374       0.31905738
C        1.50211720       0.06859379      -0.43104254
N        1.86407097      -0.85275222      -1.09339125
H        1.17542120       1.25358897       1.57575027
H        0.98074232       2.10049690       0.13492864
H        0.43455231      -1.24354825       0.95606630
H       -1.01564629       0.06750867      -1.43511644
H       -1.14344907      -1.62668425      -0.95534246
H       -1.89294211       0.49482812       0.72508596
