15
Frame=0 idx=005817 GeodesicLength=0.0 rxn_smarts="[C:1]([C:2]([N:3]([C:4]([H:12])([H:13])[H:14])[C:5](=[O:6])[H:15])([H:10])[H:11])([H:7])([H:8])[H:9]>>[C:1](/[C:2](=[N:3]/[C:5](=[O:6])[H:15])[H:11])([H:7])([H:8])[H:9].[C:4]([H:10])([H:12])([H:13])[H:14]"
C        2.02748423      -0.08140703       0.11308217
C        0.61686028       0.33936277      -0.25764029
N       -0.24217088       0.46570177       0.81304132
C       -1.35532108      -1.39851087      -0.35085325
C       -1.28095976       1.36916871       0.65730486
O       -1.48315272       2.08849635      -0.29917499
H        2.60911432      -0.32942314      -0.77579770
H        2.01009186      -0.94813454       0.77576471
H        2.53064169       0.73049884       0.63976936
H        0.17847146      -0.55916345      -0.91121081
H        0.55617117       1.15407404      -0.98796977
H       -0.56380608      -1.58356038       0.34589519
H       -1.59261941      -0.44234202      -0.77490044
H       -2.07228883      -2.19908494      -0.52825127
H       -1.93851630       1.39432394       1.54094097
15
Frame=1 idx=005817 GeodesicLength=0.1009894741879594 rxn_smarts="[C:1]([C:2]([N:3]([C:4]([H:12])([H:13])[H:14])[C:5](=[O:6])[H:15])([H:10])[H:11])([H:7])([H:8])[H:9]>>[C:1](/[C:2](=[N:3]/[C:5](=[O:6])[H:15])[H:11])([H:7])([H:8])[H:9].[C:4]([H:10])([H:12])([H:13])[H:14]"
C        2.03005327      -0.07311013       0.11623077
C        0.62093906       0.34063970      -0.26505774
N       -0.24970919       0.45350097       0.79661231
C       -1.34891827      -1.39769087      -0.35450755
C       -1.27452617       1.37404434       0.66039974
O       -1.45680573       2.12837322      -0.27206386
H        2.61528791      -0.32585495      -0.76907944
H        2.01379920      -0.93567192       0.78425115
H        2.52968324       0.74429399       0.63786046
H        0.17285770      -0.57928614      -0.92630147
H        0.56594061       1.16101506      -0.98920334
H       -0.56299584      -1.61100195       0.34237953
H       -1.60431522      -0.45799698      -0.80688447
H       -2.09604813      -2.18073655      -0.48148755
H       -1.95524244       1.35948220       1.52685145
15
Frame=2 idx=005817 GeodesicLength=0.20195669265165045 rxn_smarts="[C:1]([C:2]([N:3]([C:4]([H:12])([H:13])[H:14])[C:5](=[O:6])[H:15])([H:10])[H:11])([H:7])([H:8])[H:9]>>[C:1](/[C:2](=[N:3]/[C:5](=[O:6])[H:15])[H:11])([H:7])([H:8])[H:9].[C:4]([H:10])([H:12])([H:13])[H:14]"
C        2.03221448      -0.06479151       0.11919082
C        0.62481975       0.34218773      -0.27272693
N       -0.25727507       0.44181497       0.77965913
C       -1.34280364      -1.39726797      -0.35735374
C       -1.26810497       1.37868198       0.66399019
O       -1.42881650       2.16876438      -0.24174468
H        2.62098921      -0.32256225      -0.76246206
H        2.01675085      -0.92303032       0.79268734
H        2.52853560       0.75801015       0.63560047
H        0.16683118      -0.60021378      -0.94156949
H        0.57523757       1.16812059      -0.99064984
H       -0.56304763      -1.63827683       0.33941299
H       -1.61619127      -0.47567414      -0.83859776
H       -2.11680378      -2.16115214      -0.43565438
H       -1.97233578       1.32538912       1.51021794
15
Frame=3 idx=005817 GeodesicLength=0.30296994409674227 rxn_smarts="[C:1]([C:2]([N:3]([C:4]([H:12])([H:13])[H:14])[C:5](=[O:6])[H:15])([H:10])[H:11])([H:7])([H:8])[H:9]>>[C:1](/[C:2](=[N:3]/[C:5](=[O:6])[H:15])[H:11])([H:7])([H:8])[H:9].[C:4]([H:10])([H:12])([H:13])[H:14]"
C        2.03397497      -0.05638293       0.12194330
C        0.62849005       0.34402249      -0.28067262
N       -0.26490494       0.43063253       0.76214711
C       -1.33691495      -1.39729292      -0.35945365
C       -1.26170809       1.38305621       0.66801285
O       -1.39883924       2.20971044      -0.20779539
H        2.62624658      -0.31942920      -0.75595577
H        2.01898279      -0.91015401       0.80103064
H        2.52717128       0.77171661       0.63299317
H        0.16041920      -0.62205670      -0.95698710
H        0.58403022       1.17542166      -0.99232608
H       -0.56394639      -1.66538861       0.33705333
H       -1.62822528      -0.49560689      -0.87008187
H       -2.13485307      -2.14042780      -0.39071638
H       -1.98992314       1.29217914       1.49080847
15
Frame=4 idx=005817 GeodesicLength=0.40411541948543983 rxn_smarts="[C:1]([C:2]([N:3]([C:4]([H:12])([H:13])[H:14])[C:5](=[O:6])[H:15])([H:10])[H:11])([H:7])([H:8])[H:9]>>[C:1](/[C:2](=[N:3]/[C:5](=[O:6])[H:15])[H:11])([H:7])([H:8])[H:9].[C:4]([H:10])([H:12])([H:13])[H:14]"
C        2.03528095      -0.04783442       0.12445367
C        0.63188912       0.34616954      -0.28892024
N       -0.27266513       0.41997642       0.74405046
C       -1.33117531      -1.39782054      -0.36078123
C       -1.25531363       1.38722892       0.67240407
O       -1.36649315       2.25125752      -0.16971074
H        2.63102657      -0.31639778      -0.74960819
H        2.02046923      -0.89699620       0.80925957
H        2.52549879       0.78547318       0.63000735
H        0.15365702      -0.64496237      -0.97253436
H        0.59222240       1.18294335      -0.99425977
H       -0.56569045      -1.69236125       0.33545646
H       -1.64037946      -0.51803100      -0.90133805
H       -2.15026235      -2.11892192      -0.34695990
H       -2.00806461       1.26027655       1.46848090
15
Frame=5 idx=005817 GeodesicLength=0.5052281161017756 rxn_smarts="[C:1]([C:2]([N:3]([C:4]([H:12])([H:13])[H:14])[C:5](=[O:6])[H:15])([H:10])[H:11])([H:7])([H:8])[H:9]>>[C:1](/[C:2](=[N:3]/[C:5](=[O:6])[H:15])[H:11])([H:7])([H:8])[H:9].[C:4]([H:10])([H:12])([H:13])[H:14]"
C        2.03608377      -0.03904077       0.12671462
C        0.63495116       0.34862056      -0.29753349
N       -0.28070327       0.40988182       0.72525904
C       -1.32588094      -1.39878084      -0.36110206
C       -1.24897344       1.39138479       0.67700007
O       -1.33128707       2.29341055      -0.12685803
H        2.63522895      -0.31342108      -0.74333086
H        2.02115171      -0.88334101       0.81740527
H        2.52352634       0.79944342       0.62653368
H        0.14634301      -0.66914276      -0.98791620
H        0.59975477       1.19065955      -0.99654789
H       -0.56851896      -1.71898670       0.33490954
H       -1.65286427      -0.54318932      -0.93211127
H       -2.16272336      -2.09820558      -0.30578205
H       -2.02608838       1.23070737       1.44335963
15
Frame=6 idx=005817 GeodesicLength=0.6064752848816121 rxn_smarts="[C:1]([C:2]([N:3]([C:4]([H:12])([H:13])[H:14])[C:5](=[O:6])[H:15])([H:10])[H:11])([H:7])([H:8])[H:9]>>[C:1](/[C:2](=[N:3]/[C:5](=[O:6])[H:15])[H:11])([H:7])([H:8])[H:9].[C:4]([H:10])([H:12])([H:13])[H:14]"
C        2.03637896      -0.02995425       0.12867679
C        0.63768817       0.35145837      -0.30655833
N       -0.28899603       0.40036182       0.70572987
C       -1.32069131      -1.40026667      -0.36069256
C       -1.24258491       1.39548372       0.68177351
O       -1.29292195       2.33585364      -0.07869362
H        2.63893690      -0.31037066      -0.73723327
H        2.02104302      -0.86923820       0.82538290
H        2.52114623       0.81363545       0.62263770
H        0.13873399      -0.69465185      -1.00333059
H        0.60660452       1.19873994      -0.99914215
H       -0.57227333      -1.74539974       0.33536658
H       -1.66539879      -0.57133807      -0.96267103
H       -2.17297386      -2.07750388      -0.26611464
H       -2.04469161       1.20319038       1.41486885
15
Frame=7 idx=005817 GeodesicLength=0.7077063279394706 rxn_smarts="[C:1]([C:2]([N:3]([C:4]([H:12])([H:13])[H:14])[C:5](=[O:6])[H:15])([H:10])[H:11])([H:7])([H:8])[H:9]>>[C:1](/[C:2](=[N:3]/[C:5](=[O:6])[H:15])[H:11])([H:7])([H:8])[H:9].[C:4]([H:10])([H:12])([H:13])[H:14]"
C        2.03616609      -0.02051330       0.13031384
C        0.64010737       0.35472461      -0.31602841
N       -0.29757475       0.39144938       0.68539971
C       -1.31563843      -1.40217566      -0.35955604
C       -1.23605610       1.39963218       0.68672453
O       -1.25130518       2.37797250      -0.02484564
H        2.64214940      -0.30715520      -0.73130162
H        2.02012004      -0.85461643       0.83312301
H        2.51836304       0.82808911       0.61830094
H        0.13080770      -0.72155978      -1.01866046
H        0.61278897       1.20727799      -1.00200640
H       -0.57703610      -1.77147525       0.33692751
H       -1.67800486      -0.60272572      -0.99291730
H       -2.18115630      -2.05719918      -0.22828871
H       -2.06373089       1.17827475       1.38281504
15
Frame=8 idx=005817 GeodesicLength=0.8089033826355355 rxn_smarts="[C:1]([C:2]([N:3]([C:4]([H:12])([H:13])[H:14])[C:5](=[O:6])[H:15])([H:10])[H:11])([H:7])([H:8])[H:9]>>[C:1](/[C:2](=[N:3]/[C:5](=[O:6])[H:15])[H:11])([H:7])([H:8])[H:9].[C:4]([H:10])([H:12])([H:13])[H:14]"
C        2.03538460      -0.01066500       0.13158431
C        0.64217292       0.35848595      -0.32600166
N       -0.30649449       0.38316772       0.66418416
C       -1.31061946      -1.40452657      -0.35777183
C       -1.22930146       1.40391451       0.69179726
O       -1.20629794       2.41909501       0.03519520
H        2.64484668      -0.30368165      -0.72558801
H        2.01831323      -0.83945202       0.84056467
H        2.51507397       0.84283147       0.61354901
H        0.12267864      -0.74998367      -1.03392453
H        0.61825972       1.21643498      -1.00507686
H       -0.58280711      -1.79719127       0.33966735
H       -1.69051196      -0.63760306      -1.02289570
H       -2.18750517      -2.03732177      -0.19221364
H       -2.08319216       1.15649536       1.34693026
15
Frame=9 idx=005817 GeodesicLength=0.9098304200337223 rxn_smarts="[C:1]([C:2]([N:3]([C:4]([H:12])([H:13])[H:14])[C:5](=[O:6])[H:15])([H:10])[H:11])([H:7])([H:8])[H:9]>>[C:1](/[C:2](=[N:3]/[C:5](=[O:6])[H:15])[H:11])([H:7])([H:8])[H:9].[C:4]([H:10])([H:12])([H:13])[H:14]"
C        2.03408367      -0.00031602       0.13247961
C        0.64392658       0.36281344      -0.33659234
N       -0.31585776       0.37551015       0.64187295
C       -1.30586229      -1.40716499      -0.35535375
C       -1.22228413       1.40845884       0.69698004
O       -1.15796291       2.45842800       0.10171478
H        2.64706158      -0.29986502      -0.72001327
H        2.01561227      -0.82360938       0.84768570
H        2.51138806       0.85797433       0.60837214
H        0.11427210      -0.78005356      -1.04882408
H        0.62310865       1.22642535      -1.00830704
H       -0.58977615      -1.82226659       0.34364232
H       -1.70290549      -0.67614234      -1.05241284
H       -2.19230999      -2.01848421      -0.15825841
H       -2.10249420       1.13829200       1.30701420
15
Frame=10 idx=005817 GeodesicLength=1.0106069332720458 rxn_smarts="[C:1]([C:2]([N:3]([C:4]([H:12])([H:13])[H:14])[C:5](=[O:6])[H:15])([H:10])[H:11])([H:7])([H:8])[H:9]>>[C:1](/[C:2](=[N:3]/[C:5](=[O:6])[H:15])[H:11])([H:7])([H:8])[H:9].[C:4]([H:10])([H:12])([H:13])[H:14]"
C        2.03224699       0.01053005       0.13294829
C        0.64539535       0.36782248      -0.34778533
N       -0.32556943       0.36856904       0.61849972
C       -1.30112199      -1.41005062      -0.35246483
C       -1.21475278       1.41326053       0.70251992
O       -1.10674927       2.49463636       0.17470878
H        2.64880833      -0.29562480      -0.71470935
H        2.01198136      -0.80720018       0.85435749
H        2.50725268       0.87342329       0.60284420
H        0.10576312      -0.81174757      -1.06354599
H        0.62736672       1.23746453      -1.01152301
H       -0.59787193      -1.84673342       0.34888019
H       -1.71497387      -0.71861052      -1.08154970
H       -2.19587570      -1.99996281      -0.12596397
H       -2.12189958       1.12422364       1.26278359
15
Frame=11 idx=005817 GeodesicLength=1.1111245624575912 rxn_smarts="[C:1]([C:2]([N:3]([C:4]([H:12])([H:13])[H:14])[C:5](=[O:6])[H:15])([H:10])[H:11])([H:7])([H:8])[H:9]>>[C:1](/[C:2](=[N:3]/[C:5](=[O:6])[H:15])[H:11])([H:7])([H:8])[H:9].[C:4]([H:10])([H:12])([H:13])[H:14]"
C        2.02986744       0.02188578       0.13300687
C        0.64661680       0.37362227      -0.35961371
N       -0.33564413       0.36239400       0.59394623
C       -1.29639324      -1.41304271      -0.34926196
C       -1.20658618       1.41830479       0.70860622
O       -1.05343099       2.52644311       0.25359947
H        2.65010440      -0.29091948      -0.70963760
H        2.00733864      -0.79024874       0.86053501
H        2.50267855       0.88913714       0.59708281
H        0.09719604      -0.84508007      -1.07804839
H        0.63114031       1.24977437      -1.01457339
H       -0.60718056      -1.87042096       0.35533823
H       -1.72659085      -0.76514190      -1.11022719
H       -2.19839547      -1.98169184      -0.09543379
H       -2.14072075       1.11498425       1.21468119
15
Frame=12 idx=005817 GeodesicLength=1.2113110717719686 rxn_smarts="[C:1]([C:2]([N:3]([C:4]([H:12])([H:13])[H:14])[C:5](=[O:6])[H:15])([H:10])[H:11])([H:7])([H:8])[H:9]>>[C:1](/[C:2](=[N:3]/[C:5](=[O:6])[H:15])[H:11])([H:7])([H:8])[H:9].[C:4]([H:10])([H:12])([H:13])[H:14]"
C        2.02700389       0.03374361       0.13264924
C        0.64767032       0.38033937      -0.37208625
N       -0.34603785       0.35702782       0.56813757
C       -1.29168422      -1.41597376      -0.34588826
C       -1.19758936       1.42349904       0.71566752
O       -0.99901196       2.55258192       0.33762656
H        2.65099634      -0.28570823      -0.70481406
H        2.00168317      -0.77282158       0.86613298
H        2.49777577       0.90504051       0.59118453
H        0.08862168      -0.88004040      -1.09224402
H        0.63456728       1.26359655      -1.01727226
H       -0.61778806      -1.89314367       0.36296826
H       -1.73763554      -0.81584468      -1.13824405
H       -2.20014866      -1.96338622      -0.06669000
H       -2.15842280       1.11108973       1.16287224
15
Frame=13 idx=005817 GeodesicLength=1.3110618811658599 rxn_smarts="[C:1]([C:2]([N:3]([C:4]([H:12])([H:13])[H:14])[C:5](=[O:6])[H:15])([H:10])[H:11])([H:7])([H:8])[H:9]>>[C:1](/[C:2](=[N:3]/[C:5](=[O:6])[H:15])[H:11])([H:7])([H:8])[H:9].[C:4]([H:10])([H:12])([H:13])[H:14]"
C        2.02362360       0.04615242       0.13185263
C        0.64856192       0.38807498      -0.38533636
N       -0.35683607       0.35251889       0.54082251
C       -1.28705310      -1.41881149      -0.34247521
C       -1.18771917       1.42870947       0.72391599
O       -0.94386346       2.57246528       0.42644564
H        2.65146662      -0.27999247      -0.70024097
H        1.99489841      -0.75486391       0.87116307
H        2.49253666       0.92119059       0.58516690
H        0.08017931      -0.91678721      -1.10597122
H        0.63771939       1.27914115      -1.01957058
H       -0.62982782      -1.91467688       0.37179700
H       -1.74779492      -0.87080360      -1.16540486
H       -2.20144522      -1.94492756      -0.03969691
H       -2.17444613       1.11261033       1.10753236
15
Frame=14 idx=005817 GeodesicLength=1.4106362341886785 rxn_smarts="[C:1]([C:2]([N:3]([C:4]([H:12])([H:13])[H:14])[C:5](=[O:6])[H:15])([H:10])[H:11])([H:7])([H:8])[H:9]>>[C:1](/[C:2](=[N:3]/[C:5](=[O:6])[H:15])[H:11])([H:7])([H:8])[H:9].[C:4]([H:10])([H:12])([H:13])[H:14]"
C        2.01970556       0.05919715       0.13059972
C        0.64929482       0.39692834      -0.39939290
N       -0.36803745       0.34891743       0.51188617
C       -1.28239460      -1.42159550      -0.33920677
C       -1.17696984       1.43353561       0.73360603
O       -0.88811809       2.58501428       0.51999797
H        2.65152061      -0.27364702      -0.69592675
H        1.98695018      -0.73630636       0.87557302
H        2.48690607       0.93766254       0.57906650
H        0.07189893      -0.95539738      -1.11932308
H        0.64056768       1.29650330      -1.02139071
H       -0.64331178      -1.93497283       0.38181953
H       -1.75704508      -0.93048969      -1.19149963
H       -2.20236877      -1.92599671      -0.01440629
H       -2.18859825       1.12064683       1.04859720
15
Frame=15 idx=005817 GeodesicLength=1.510059502391401 rxn_smarts="[C:1]([C:2]([N:3]([C:4]([H:12])([H:13])[H:14])[C:5](=[O:6])[H:15])([H:10])[H:11])([H:7])([H:8])[H:9]>>[C:1](/[C:2](=[N:3]/[C:5](=[O:6])[H:15])[H:11])([H:7])([H:8])[H:9].[C:4]([H:10])([H:12])([H:13])[H:14]"
C        2.01518544       0.07296384       0.12886740
C        0.64984376       0.40699306      -0.41436892
N       -0.37975440       0.34625500       0.48106368
C       -1.27769190      -1.42434465      -0.33624227
C       -1.16537948       1.43759557       0.74497671
O       -0.83187855       2.58937808       0.61802961
H        2.65113205      -0.26659646      -0.69184767
H        1.97771504      -0.71703861       0.87934952
H        2.48079252       0.95455048       0.57289194
H        0.06386568      -0.99602088      -1.13217091
H        0.64308511       1.31581908      -1.02268235
H       -0.65830874      -1.95383405       0.39302949
H       -1.76520249      -0.99512110      -1.21616926
H       -2.20303669      -1.90647946       0.00912213
H       -2.20036736       1.13588010       0.98615091
15
Frame=16 idx=005817 GeodesicLength=1.6094093064986281 rxn_smarts="[C:1]([C:2]([N:3]([C:4]([H:12])([H:13])[H:14])[C:5](=[O:6])[H:15])([H:10])[H:11])([H:7])([H:8])[H:9]>>[C:1](/[C:2](=[N:3]/[C:5](=[O:6])[H:15])[H:11])([H:7])([H:8])[H:9].[C:4]([H:10])([H:12])([H:13])[H:14]"
C        2.01000180       0.08754439       0.12663759
C        0.65020422       0.41836721      -0.43039128
N       -0.39208599       0.34458879       0.44804226
C       -1.27292604      -1.42711185      -0.33375739
C       -1.15301237       1.44044517       0.75821197
O       -0.77552512       2.58459156       0.72019120
H        2.65027613      -0.25879331      -0.68796722
H        1.96704583      -0.69693120       0.88251219
H        2.47411508       0.97196564       0.56663633
H        0.05622289      -1.03884484      -1.14438330
H        0.64526224       1.33719531      -1.02343553
H       -0.67492285      -1.97103892       0.40547439
H       -1.77203985      -1.06486731      -1.23900192
H       -2.20362066      -1.88622296       0.03071222
H       -2.20899532       1.15911233       0.92051849
