17
Frame=0 idx=011930 GeodesicLength=0.0 rxn_smarts="[C:1]([C@@:2]1([H:11])[C@@:3]2([H:12])[C:4]([H:13])([H:14])[C:5]([H:15])=[C:6]([H:16])[C@@:7]12[H:17])([H:8])([H:9])[H:10]>>[C:1]([C:2]1=[C:7]([H:17])[C:6]([H:16])=[C:5]([H:15])[C:4]([H:13])([H:14])[C:3]1([H:11])[H:12])([H:8])([H:9])[H:10]"
C       -1.82839869       0.53827382       0.25195028
C       -1.26401809      -0.85812272       0.32727732
C        0.25911615      -0.98879960      -0.72431421
C        1.02076691       0.27237272      -1.12146952
C        1.39782518       0.89492623       0.19754292
C        0.94843388       0.18901901       1.22668068
C        0.14505132      -1.00134634       0.79994281
H       -1.13169512       1.37826733       0.14842123
H       -2.59923887       0.61200757      -0.51599819
H       -2.33973425       0.66481631       1.21203350
H       -0.89891258      -1.07002334      -1.02821977
H        0.56612710      -1.93598162      -1.15838160
H        0.41705054       0.95017433      -1.73364267
H        1.89905847       0.01545063      -1.71908236
H        1.94045445       1.83011683       0.26607775
H        1.09478997       0.44648323       2.26801529
H        0.37332355      -1.93763433       1.30316653
17
Frame=1 idx=011930 GeodesicLength=0.10918984766416363 rxn_smarts="[C:1]([C@@:2]1([H:11])[C@@:3]2([H:12])[C:4]([H:13])([H:14])[C:5]([H:15])=[C:6]([H:16])[C@@:7]12[H:17])([H:8])([H:9])[H:10]>>[C:1]([C:2]1=[C:7]([H:17])[C:6]([H:16])=[C:5]([H:15])[C:4]([H:13])([H:14])[C:3]1([H:11])[H:12])([H:8])([H:9])[H:10]"
C       -1.83111542       0.53807339       0.24579393
C       -1.24588621      -0.84802240       0.30740317
C        0.25017407      -0.98640241      -0.73230274
C        1.02489270       0.27277288      -1.11563155
C        1.39559541       0.89230532       0.20719559
C        0.94356610       0.18952509       1.23802350
C        0.14502389      -1.00161812       0.80968233
H       -1.16200202       1.38964481       0.08005272
H       -2.64692094       0.58232104      -0.47701447
H       -2.28481400       0.68766727       1.23082939
H       -0.91534380      -1.07782597      -1.05434538
H        0.56838261      -1.93367077      -1.15776900
H        0.43042192       0.95615975      -1.73055710
H        1.90715937       0.01497097      -1.70716059
H        1.94623516       1.82282038       0.27721457
H        1.09826700       0.44475092       2.27878242
H        0.37636417      -1.94347215       1.29980321
17
Frame=2 idx=011930 GeodesicLength=0.2181382910940804 rxn_smarts="[C:1]([C@@:2]1([H:11])[C@@:3]2([H:12])[C:4]([H:13])([H:14])[C:5]([H:15])=[C:6]([H:16])[C@@:7]12[H:17])([H:8])([H:9])[H:10]>>[C:1]([C:2]1=[C:7]([H:17])[C:6]([H:16])=[C:5]([H:15])[C:4]([H:13])([H:14])[C:3]1([H:11])[H:12])([H:8])([H:9])[H:10]"
C       -1.83307611       0.53818661       0.23957170
C       -1.22757588      -0.83748593       0.28790800
C        0.24141055      -0.98395789      -0.74060291
C        1.02858360       0.27347008      -1.10961578
C        1.39223045       0.89016259       0.21709002
C        0.93939796       0.18915928       1.24948780
C        0.14463513      -1.00208302       0.81951363
H       -1.19455715       1.39789040       0.01083277
H       -2.69095810       0.55234063      -0.43451397
H       -2.22858270       0.71359283       1.24482876
H       -0.93210941      -1.08602747      -1.07931738
H        0.57032175      -1.93122637      -1.15749028
H        0.44327371       0.96221705      -1.72725185
H        1.91498370       0.01516069      -1.69487568
H        1.95060435       1.81604962       0.28882463
H        1.10231494       0.44210029       2.28963078
H        0.37910323      -1.94954938       1.29597977
17
Frame=3 idx=011930 GeodesicLength=0.3268985137898586 rxn_smarts="[C:1]([C@@:2]1([H:11])[C@@:3]2([H:12])[C:4]([H:13])([H:14])[C:5]([H:15])=[C:6]([H:16])[C@@:7]12[H:17])([H:8])([H:9])[H:10]>>[C:1]([C:2]1=[C:7]([H:17])[C:6]([H:16])=[C:5]([H:15])[C:4]([H:13])([H:14])[C:3]1([H:11])[H:12])([H:8])([H:9])[H:10]"
C       -1.83429294       0.53861521       0.23323804
C       -1.20909305      -0.82656475       0.26882438
C        0.23285611      -0.98145137      -0.74923106
C        1.03181588       0.27452949      -1.10343648
C        1.38792445       0.88838704       0.22723558
C        0.93595000       0.18788483       1.26109162
C        0.14385032      -1.00274777       0.82944623
H       -1.22949622       1.40277354      -0.05908114
H       -2.73106131       0.52231657      -0.38863207
H       -2.17133839       0.74259486       1.25388141
H       -0.94925538      -1.09472943      -1.10302848
H        0.57204525      -1.92864984      -1.15753847
H        0.45551583       0.96851683      -1.72359084
H        1.92243135       0.01610852      -1.68238388
H        1.95380718       1.80967756       0.30091252
H        1.10680585       0.43860014       2.30058704
H        0.38153507      -1.95586144       1.29170559
17
Frame=4 idx=011930 GeodesicLength=0.43550425331997045 rxn_smarts="[C:1]([C@@:2]1([H:11])[C@@:3]2([H:12])[C:4]([H:13])([H:14])[C:5]([H:15])=[C:6]([H:16])[C@@:7]12[H:17])([H:8])([H:9])[H:10]>>[C:1]([C:2]1=[C:7]([H:17])[C:6]([H:16])=[C:5]([H:15])[C:4]([H:13])([H:14])[C:3]1([H:11])[H:12])([H:8])([H:9])[H:10]"
C       -1.83477408       0.53935766       0.22672418
C       -1.19044494      -0.81530129       0.25015851
C        0.22452854      -0.97885223      -0.75819671
C        1.03457666       0.27601157      -1.09709433
C        1.38292164       0.88683539       0.23764990
C        0.93320945       0.18569222       1.27284361
C        0.14262463      -1.00359845       0.83948347
H       -1.26692067       1.40401816      -0.12951241
H       -2.76700030       0.49248408      -0.33947237
H       -2.11333997       0.77464151       1.25779184
H       -0.96683242      -1.10401702      -1.12537329
H        0.57363139      -1.92591854      -1.15789332
H        0.46706928       0.97522870      -1.71940674
H        1.92940285       0.01789516      -1.66983328
H        1.95608073       1.80358033       0.31348944
H        1.11162420       0.43431561       2.31166411
H        0.38364300      -1.96237285       1.28697736
17
Frame=5 idx=011930 GeodesicLength=0.5439801107812244 rxn_smarts="[C:1]([C@@:2]1([H:11])[C@@:3]2([H:12])[C:4]([H:13])([H:14])[C:5]([H:15])=[C:6]([H:16])[C@@:7]12[H:17])([H:8])([H:9])[H:10]>>[C:1]([C:2]1=[C:7]([H:17])[C:6]([H:16])=[C:5]([H:15])[C:4]([H:13])([H:14])[C:3]1([H:11])[H:12])([H:8])([H:9])[H:10]"
C       -1.83455992       0.54037770       0.21994533
C       -1.17164339      -0.80375684       0.23189456
C        0.21642899      -0.97612373      -0.76750441
C        1.03680928       0.27798530      -1.09058078
C        1.37748987       0.88534277       0.24836220
C        0.93114487       0.18263868       1.28474094
C        0.14092227      -1.00458908       0.84962319
H       -1.30696165       1.40137869      -0.20010780
H       -2.79848607       0.46306158      -0.28733744
H       -2.05480368       0.80964706       1.25635836
H       -0.98488696      -1.11401053      -1.14626073
H        0.57514348      -1.92298706      -1.15852326
H        0.47778140       0.98252951      -1.71448687
H        1.93572914       0.02062572      -1.65739291
H        1.95781636       1.79749915       0.32659104
H        1.11664904       0.42936760       2.32286886
H        0.38542698      -1.96898651       1.28180973
17
Frame=6 idx=011930 GeodesicLength=0.6523523648003294 rxn_smarts="[C:1]([C@@:2]1([H:11])[C@@:3]2([H:12])[C:4]([H:13])([H:14])[C:5]([H:15])=[C:6]([H:16])[C@@:7]12[H:17])([H:8])([H:9])[H:10]>>[C:1]([C:2]1=[C:7]([H:17])[C:6]([H:16])=[C:5]([H:15])[C:4]([H:13])([H:14])[C:3]1([H:11])[H:12])([H:8])([H:9])[H:10]"
C       -1.83365873       0.54168426       0.21283923
C       -1.15269847      -0.79197795       0.21400639
C        0.20857941      -0.97323929      -0.77717468
C        1.03854399       0.28048895      -1.08391664
C        1.37197232       0.88370269       0.25938313
C        0.92966475       0.17874712       1.29679431
C        0.13868430      -1.00570410       0.85987026
H       -1.34963646       1.39456183      -0.27060860
H       -2.82536215       0.43440357      -0.23228403
H       -1.99594511       0.84745362       1.24937720
H       -1.00345244      -1.12477677      -1.16561029
H        0.57666259      -1.91984439      -1.15941056
H        0.48760805       0.99058843      -1.70866839
H        1.94135457       0.02434576      -1.64525931
H        1.95913544       1.79139811       0.34021170
H        1.12169716       0.42383396       2.33422767
H        0.38685079      -1.97566580       1.27622260
17
Frame=7 idx=011930 GeodesicLength=0.7606406623248625 rxn_smarts="[C:1]([C@@:2]1([H:11])[C@@:3]2([H:12])[C:4]([H:13])([H:14])[C:5]([H:15])=[C:6]([H:16])[C@@:7]12[H:17])([H:8])([H:9])[H:10]>>[C:1]([C:2]1=[C:7]([H:17])[C:6]([H:16])=[C:5]([H:15])[C:4]([H:13])([H:14])[C:3]1([H:11])[H:12])([H:8])([H:9])[H:10]"
C       -1.83208484       0.54324364       0.20534055
C       -1.13360726      -0.78001414       0.19644874
C        0.20098829      -0.97015012      -0.78722758
C        1.03976472       0.28356312      -1.07711337
C        1.36668202       0.88169992       0.27072608
C        0.92862316       0.17410221       1.30899833
C        0.13585083      -1.00688192       0.87021383
H       -1.39497784       1.38328634      -0.34061369
H       -2.84739668       0.40683831      -0.17449744
H       -1.93690148       0.88782370       1.23663713
H       -1.02253273      -1.13638880      -1.18334776
H        0.57825570      -1.91642930      -1.16053146
H        0.49644971       0.99955191      -1.70175774
H        1.94615572       0.02911918      -1.63362823
H        1.96031402       1.78507812       0.35436725
H        1.12653145       0.41784582       2.34575110
H        0.38788520      -1.98228799       1.27023425
17
Frame=8 idx=011930 GeodesicLength=0.8688651361646303 rxn_smarts="[C:1]([C@@:2]1([H:11])[C@@:3]2([H:12])[C:4]([H:13])([H:14])[C:5]([H:15])=[C:6]([H:16])[C@@:7]12[H:17])([H:8])([H:9])[H:10]>>[C:1]([C:2]1=[C:7]([H:17])[C:6]([H:16])=[C:5]([H:15])[C:4]([H:13])([H:14])[C:3]1([H:11])[H:12])([H:8])([H:9])[H:10]"
C       -1.82990280       0.54504235       0.19740006
C       -1.11440091      -0.76794291       0.17917703
C        0.19367924      -0.96683731      -0.79770610
C        1.04051394       0.28726096      -1.07021898
C        1.36195380       0.87916442       0.28238723
C        0.92781775       0.16881907       1.32136974
C        0.13233742      -1.00809430       0.88065617
H       -1.44302098       1.36733679      -0.40968682
H       -2.86446302       0.38072203      -0.11407747
H       -1.87785875       0.93047652       1.21793604
H       -1.04212720      -1.14894160      -1.19941488
H        0.58001507      -1.91274950      -1.16189052
H        0.50427190       1.00959878      -1.69362155
H        1.95011096       0.03500911      -1.62273539
H        1.96169315       1.77840761       0.36905110
H        1.13090001       0.41153205       2.35748763
H        0.38848043      -1.98880407       1.26388673
17
Frame=9 idx=011930 GeodesicLength=0.9770477947134764 rxn_smarts="[C:1]([C@@:2]1([H:11])[C@@:3]2([H:12])[C:4]([H:13])([H:14])[C:5]([H:15])=[C:6]([H:16])[C@@:7]12[H:17])([H:8])([H:9])[H:10]>>[C:1]([C:2]1=[C:7]([H:17])[C:6]([H:16])=[C:5]([H:15])[C:4]([H:13])([H:14])[C:3]1([H:11])[H:12])([H:8])([H:9])[H:10]"
C       -1.82720868       0.54696836       0.18888455
C       -1.09508357      -0.75579249       0.16209631
C        0.18661064      -0.96318809      -0.80855946
C        1.04069534       0.29161727      -1.06314588
C        1.35812267       0.87583005       0.29438389
C        0.92714753       0.16305931       1.33383430
C        0.12816231      -1.00920701       0.89114076
H       -1.49384722       1.34655341      -0.47712446
H       -2.87634945       0.35633777      -0.05165801
H       -1.81893886       0.97497935       1.19291130
H       -1.06228388      -1.16245351      -1.21370043
H        0.58193786      -1.90860755      -1.16333119
H        0.51081652       1.02080112      -1.68395253
H        1.95299602       0.04210967      -1.61260720
H        1.96373722       1.77093255       0.38430534
H        1.13475359       0.40500519       2.36932529
H        0.38873197      -1.99494539       1.25719743
17
Frame=10 idx=011930 GeodesicLength=1.085250271760517 rxn_smarts="[C:1]([C@@:2]1([H:11])[C@@:3]2([H:12])[C:4]([H:13])([H:14])[C:5]([H:15])=[C:6]([H:16])[C@@:7]12[H:17])([H:8])([H:9])[H:10]>>[C:1]([C:2]1=[C:7]([H:17])[C:6]([H:16])=[C:5]([H:15])[C:4]([H:13])([H:14])[C:3]1([H:11])[H:12])([H:8])([H:9])[H:10]"
C       -1.82402105       0.54906594       0.17981126
C       -1.07567776      -0.74366326       0.14516144
C        0.17983612      -0.95924818      -0.81991694
C        1.04044844       0.29664621      -1.05603012
C        1.35544337       0.87159326       0.30668385
C        0.92625755       0.15695453       1.34648930
C        0.12318990      -1.01025460       0.90168330
H       -1.54727755       1.32082964      -0.54245356
H       -2.88297331       0.33416971       0.01292959
H       -1.76031806       1.02096667       1.16145092
H       -1.08293336      -1.17701946      -1.22621575
H        0.58412975      -1.90414442      -1.16499918
H        0.51622922       1.03329277      -1.67279863
H        1.95494450       0.05040427      -1.60354189
H        1.96645190       1.76283090       0.40008611
H        1.13775314       0.39836474       2.38142925
H        0.38851721      -2.00078869       1.25023103
17
Frame=11 idx=011930 GeodesicLength=1.193592368721331 rxn_smarts="[C:1]([C@@:2]1([H:11])[C@@:3]2([H:12])[C:4]([H:13])([H:14])[C:5]([H:15])=[C:6]([H:16])[C@@:7]12[H:17])([H:8])([H:9])[H:10]>>[C:1]([C:2]1=[C:7]([H:17])[C:6]([H:16])=[C:5]([H:15])[C:4]([H:13])([H:14])[C:3]1([H:11])[H:12])([H:8])([H:9])[H:10]"
C       -1.82036221       0.55124514       0.17011114
C       -1.05619095      -0.73160871       0.12826651
C        0.17331309      -0.95494555      -0.83181005
C        1.03976257       0.30235242      -1.04884007
C        1.35409960       0.86629820       0.31929056
C        0.92491348       0.15068245       1.35932036
C        0.11737593      -1.01114837       0.91221897
H       -1.60321313       1.29003473      -0.60502590
H       -2.88413874       0.31460681       0.07938195
H       -1.70202569       1.06789447       1.12325888
H       -1.10408615      -1.19264681      -1.23691206
H        0.58655804      -1.89924522      -1.16686837
H        0.52045610       1.04707127      -1.66002824
H        1.95588491       0.05993247      -1.59553830
H        1.97004195       1.75390888       0.41642727
H        1.13975727       0.39172037       2.39377421
H        0.38785394      -2.00615256       1.24297313
17
Frame=12 idx=011930 GeodesicLength=1.302093152927064 rxn_smarts="[C:1]([C@@:2]1([H:11])[C@@:3]2([H:12])[C:4]([H:13])([H:14])[C:5]([H:15])=[C:6]([H:16])[C@@:7]12[H:17])([H:8])([H:9])[H:10]>>[C:1]([C:2]1=[C:7]([H:17])[C:6]([H:16])=[C:5]([H:15])[C:4]([H:13])([H:14])[C:3]1([H:11])[H:12])([H:8])([H:9])[H:10]"
C       -1.81627911       0.55348147       0.15985410
C       -1.03665223      -0.71971734       0.11136429
C        0.16706835      -0.95027195      -0.84433555
C        1.03874711       0.30871947      -1.04165101
C        1.35418426       0.85985889       0.33213758
C        0.92281522       0.14439650       1.37231699
C        0.11064513      -1.01187929       0.92270534
H       -1.66152786       1.25424514      -0.66409113
H       -2.87971147       0.29816043       0.14748420
H       -1.64421500       1.11512623       1.07828352
H       -1.12568536      -1.20935585      -1.24576590
H        0.58929240      -1.89392108      -1.16901694
H        0.52362018       1.06212104      -1.64569085
H        1.95596567       0.07067827      -1.58870020
H        1.97458676       1.74412264       0.43327291
H        1.14042607       0.38522945       2.40638240
H        0.38671989      -2.01099402       1.23545024
17
Frame=13 idx=011930 GeodesicLength=1.4108847255888934 rxn_smarts="[C:1]([C@@:2]1([H:11])[C@@:3]2([H:12])[C:4]([H:13])([H:14])[C:5]([H:15])=[C:6]([H:16])[C@@:7]12[H:17])([H:8])([H:9])[H:10]>>[C:1]([C:2]1=[C:7]([H:17])[C:6]([H:16])=[C:5]([H:15])[C:4]([H:13])([H:14])[C:3]1([H:11])[H:12])([H:8])([H:9])[H:10]"
C       -1.81188457       0.55566855       0.14898790
C       -1.01706394      -0.70803014       0.09435105
C        0.16104757      -0.94513061      -0.85746902
C        1.03737637       0.31572600      -1.03438110
C        1.35573099       0.85216322       0.34517985
C        0.91981553       0.13826037       1.38540030
C        0.10306144      -1.01238668       0.93306117
H       -1.72208106       1.21376542      -0.71871805
H       -2.86959461       0.28508443       0.21650290
H       -1.58703169       1.16195368       1.02623923
H       -1.14776578      -1.22700778      -1.25270862
H        0.59227688      -1.88801677      -1.17131838
H        0.52564168       1.07834567      -1.62972781
H        1.95515615       0.08263998      -1.58280599
H        1.98025418       1.73317354       0.45058036
H        1.13976527       0.37894247       2.41911525
H        0.38529558      -2.01515135       1.22771097
17
Frame=14 idx=011930 GeodesicLength=1.5199766001333743 rxn_smarts="[C:1]([C@@:2]1([H:11])[C@@:3]2([H:12])[C:4]([H:13])([H:14])[C:5]([H:15])=[C:6]([H:16])[C@@:7]12[H:17])([H:8])([H:9])[H:10]>>[C:1]([C:2]1=[C:7]([H:17])[C:6]([H:16])=[C:5]([H:15])[C:4]([H:13])([H:14])[C:3]1([H:11])[H:12])([H:8])([H:9])[H:10]"
C       -1.80706500       0.55783182       0.13771529
C       -0.99743397      -0.69664697       0.07719277
C        0.15528167      -0.93956234      -0.87138426
C        1.03584717       0.32325989      -1.02713738
C        1.35854412       0.84325245       0.35832951
C        0.91554815       0.13241571       1.39853987
C        0.09451317      -1.01269253       0.94318440
H       -1.78446455       1.16876677      -0.76813715
H       -2.85359174       0.27603460       0.28640297
H       -1.53059355       1.20756089       0.96738328
H       -1.17022117      -1.24557765      -1.25775916
H        0.59553177      -1.88162240      -1.17401849
H        0.52690705       1.09554469      -1.61236857
H        1.95377897       0.09564831      -1.57784663
H        1.98656961       1.72137608       0.46826966
H        1.13735389       0.37303486       2.43197657
H        0.38349441      -2.01862419       1.21965731
17
Frame=15 idx=011930 GeodesicLength=1.6296579339650195 rxn_smarts="[C:1]([C@@:2]1([H:11])[C@@:3]2([H:12])[C:4]([H:13])([H:14])[C:5]([H:15])=[C:6]([H:16])[C@@:7]12[H:17])([H:8])([H:9])[H:10]>>[C:1]([C:2]1=[C:7]([H:17])[C:6]([H:16])=[C:5]([H:15])[C:4]([H:13])([H:14])[C:3]1([H:11])[H:12])([H:8])([H:9])[H:10]"
C       -1.80178980       0.55991636       0.12608383
C       -0.97777260      -0.68566757       0.05980564
C        0.14970129      -0.93353855      -0.88616782
C        1.03420190       0.33125999      -1.01990649
C        1.36238777       0.83320036       0.37157277
C        0.90983152       0.12700761       1.41171581
C        0.08502048      -1.01281843       0.95299587
H       -1.84840136       1.11955212      -0.81160730
H       -2.83153993       0.27138945       0.35675019
H       -1.47495009       1.25121656       0.90169057
H       -1.19306730      -1.26496143      -1.26095943
H        0.59894773      -1.87469809      -1.17720189
H        0.52756883       1.11354848      -1.59378696
H        1.95195561       0.10962421      -1.57356784
H        1.99335200       1.70876798       0.48634938
H        1.13311750       0.36758172       2.44495526
H        0.38143644      -2.02138078       1.21127842
17
Frame=16 idx=011930 GeodesicLength=1.740126976698208 rxn_smarts="[C:1]([C@@:2]1([H:11])[C@@:3]2([H:12])[C:4]([H:13])([H:14])[C:5]([H:15])=[C:6]([H:16])[C@@:7]12[H:17])([H:8])([H:9])[H:10]>>[C:1]([C:2]1=[C:7]([H:17])[C:6]([H:16])=[C:5]([H:15])[C:4]([H:13])([H:14])[C:3]1([H:11])[H:12])([H:8])([H:9])[H:10]"
C       -1.79597689       0.56191135       0.11422976
C       -0.95808652      -0.67517633       0.04215476
C        0.14427187      -0.92702308      -0.90190516
C        1.03253769       0.33962778      -1.01270385
C        1.36689942       0.82212848       0.38484986
C        0.90249239       0.12212442       1.42485102
C        0.07460280      -1.01279855       0.96240382
H       -1.91358371       1.06648143      -0.84835224
H       -2.80329501       0.27158673       0.42705735
H       -1.42022546       1.29207033       0.82937568
H       -1.21627775      -1.28498226      -1.26232309
H        0.60246273      -1.86718708      -1.18097382
H        0.52788215       1.13211307      -1.57424600
H        1.94992782       0.12442516      -1.56969632
H        2.00025126       1.69544800       0.50476059
H        1.12689255       0.36264000       2.45797624
H        0.37922465      -2.02338945       1.20254139
