10
Frame=0 idx=000434 GeodesicLength=0.0 rxn_smarts="[O:1]([c:2]1[c:3]([H:8])[n:4]([H:9])[n:5][c:6]1[H:10])[H:7]>>[O:1]([C:2]1=[C:6]([H:10])[C@@:3]1([N:4]([N:5])[H:9])[H:8])[H:7]"
O        2.16376927      -0.24415006       0.29013598
C        0.92895329       0.17683554      -0.04019591
C       -0.24807880      -0.67144150      -0.16663129
N       -1.46187821      -0.17938127       0.32734741
N       -1.82300787       0.98581427       0.27082307
C        0.38264669       1.25502772      -0.45933101
H        2.06562854      -1.10753825       0.70692443
H       -0.29811847      -1.53281200      -0.82415132
H       -2.01103060      -0.88341221       0.84452789
H        0.30111618       2.20105775      -0.94944924
10
Frame=1 idx=000434 GeodesicLength=0.05827472933564449 rxn_smarts="[O:1]([c:2]1[c:3]([H:8])[n:4]([H:9])[n:5][c:6]1[H:10])[H:7]>>[O:1]([C:2]1=[C:6]([H:10])[C@@:3]1([N:4]([N:5])[H:9])[H:8])[H:7]"
O        2.16558090      -0.23365204       0.29444347
C        0.92577048       0.17574539      -0.02911791
C       -0.24855144      -0.66844186      -0.17058993
N       -1.46031393      -0.17827935       0.33563963
N       -1.80081638       0.99606998       0.28626632
C        0.36377363       1.24748622      -0.45531732
H        2.08112265      -1.10451941       0.69787334
H       -0.29931358      -1.53600423      -0.81955501
H       -2.03160906      -0.88647664       0.82027625
H        0.30435672       2.18807194      -0.95991885
10
Frame=2 idx=000434 GeodesicLength=0.1165656407223553 rxn_smarts="[O:1]([c:2]1[c:3]([H:8])[n:4]([H:9])[n:5][c:6]1[H:10])[H:7]>>[O:1]([C:2]1=[C:6]([H:10])[C@@:3]1([N:4]([N:5])[H:9])[H:8])[H:7]"
O        2.16737012      -0.22304853       0.29851862
C        0.92265307       0.17441489      -0.01851938
C       -0.24904424      -0.66552168      -0.17431773
N       -1.45838903      -0.17725298       0.34490683
N       -1.77900763       1.00558157       0.30110991
C        0.34540894       1.23967935      -0.45185278
H        2.09690930      -1.10104107       0.68835956
H       -0.30071289      -1.53966735      -0.81403361
H       -2.05250993      -0.88826450       0.79479377
H        0.30732231       2.17512031      -0.96896519
10
Frame=3 idx=000434 GeodesicLength=0.17491032718121563 rxn_smarts="[O:1]([c:2]1[c:3]([H:8])[n:4]([H:9])[n:5][c:6]1[H:10])[H:7]>>[O:1]([C:2]1=[C:6]([H:10])[C@@:3]1([N:4]([N:5])[H:9])[H:8])[H:7]"
O        2.16909056      -0.21249444       0.30208423
C        0.91961301       0.17274441      -0.00881480
C       -0.24959924      -0.66271123      -0.17804557
N       -1.45604758      -0.17637737       0.35513702
N       -1.75741400       1.01432867       0.31567127
C        0.32743703       1.23151854      -0.44912227
H        2.11269971      -1.09679570       0.67907876
H       -0.30238266      -1.54388988      -0.80762568
H       -2.07347983      -0.88877025       0.76803316
H        0.31008299       2.16244725      -0.97639611
10
Frame=4 idx=000434 GeodesicLength=0.23325401699355175 rxn_smarts="[O:1]([c:2]1[c:3]([H:8])[n:4]([H:9])[n:5][c:6]1[H:10])[H:7]>>[O:1]([C:2]1=[C:6]([H:10])[C@@:3]1([N:4]([N:5])[H:9])[H:8])[H:7]"
O        2.17069295      -0.20193751       0.30543011
C        0.91659266       0.17078376       0.00033050
C       -0.25024400      -0.66004897      -0.18178708
N       -1.45344865      -0.17581986       0.36611848
N       -1.73626181       1.02227944       0.32946091
C        0.30985086       1.22313152      -0.44678257
H        2.12856367      -1.09209083       0.66961632
H       -0.30424482      -1.54858530      -0.80056418
H       -2.09412873      -0.88772400       0.74058909
H        0.31262787       2.15001174      -0.98241158
10
Frame=5 idx=000434 GeodesicLength=0.29160763532141587 rxn_smarts="[O:1]([c:2]1[c:3]([H:8])[n:4]([H:9])[n:5][c:6]1[H:10])[H:7]>>[O:1]([C:2]1=[C:6]([H:10])[C@@:3]1([N:4]([N:5])[H:9])[H:8])[H:7]"
O        2.17208782      -0.19141660       0.30865386
C        0.91356415       0.16849929       0.00876558
C       -0.25101982      -0.65753175      -0.18577480
N       -1.45071544      -0.17562827       0.37744144
N       -1.71536534       1.02949068       0.34293216
C        0.29258753       1.21452482      -0.44488429
H        2.14429389      -1.08687844       0.66030313
H       -0.30625422      -1.55376464      -0.79300057
H       -2.11413156      -0.88516682       0.71272562
H        0.31495299       2.13787172      -0.98716213
10
Frame=6 idx=000434 GeodesicLength=0.35007359946194333 rxn_smarts="[O:1]([c:2]1[c:3]([H:8])[n:4]([H:9])[n:5][c:6]1[H:10])[H:7]>>[O:1]([C:2]1=[C:6]([H:10])[C@@:3]1([N:4]([N:5])[H:9])[H:8])[H:7]"
O        2.17318683      -0.18080480       0.31210961
C        0.91047204       0.16590368       0.01666234
C       -0.25190434      -0.65515447      -0.18995395
N       -1.44798001      -0.17578191       0.38875520
N       -1.69461619       1.03604442       0.35637559
C        0.27559417       1.20566822      -0.44333860
H        2.15997303      -1.08131080       0.65073042
H       -0.30823669      -1.55937543      -0.78486555
H       -2.13345759      -0.88101096       0.68444087
H        0.31696874       2.12582206      -0.99091591
10
Frame=7 idx=000434 GeodesicLength=0.40857014409708936 rxn_smarts="[O:1]([c:2]1[c:3]([H:8])[n:4]([H:9])[n:5][c:6]1[H:10])[H:7]>>[O:1]([C:2]1=[C:6]([H:10])[C@@:3]1([N:4]([N:5])[H:9])[H:8])[H:7]"
O        2.17391176      -0.17021006       0.31588645
C        0.90726517       0.16299052       0.02403881
C       -0.25296144      -0.65292677      -0.19464583
N       -1.44547812      -0.17636181       0.39942503
N       -1.67409847       1.04195121       0.36954812
C        0.25889431       1.19667828      -0.44206174
H        2.17541254      -1.07542365       0.64118474
H       -0.31020391      -1.56536120      -0.77659057
H       -2.15154931      -0.87536184       0.65687874
H        0.31880746       2.11402532      -0.99366374
10
Frame=8 idx=000434 GeodesicLength=0.4671301471489545 rxn_smarts="[O:1]([c:2]1[c:3]([H:8])[n:4]([H:9])[n:5][c:6]1[H:10])[H:7]>>[O:1]([C:2]1=[C:6]([H:10])[C@@:3]1([N:4]([N:5])[H:9])[H:8])[H:7]"
O        2.17421804      -0.15951722       0.32028863
C        0.90392327       0.15977575       0.03103615
C       -0.25416262      -0.65085517      -0.19974383
N       -1.44329134      -0.17728745       0.40926600
N       -1.65374854       1.04729910       0.38257955
C        0.24247893       1.18753773      -0.44102306
H        2.19075035      -1.06931378       0.63126507
H       -0.31207425      -1.57167366      -0.76810245
H       -2.16856663      -0.86832410       0.63003797
H        0.32047279       2.10235879      -0.99560402
10
Frame=9 idx=000434 GeodesicLength=0.5257860577134212 rxn_smarts="[O:1]([c:2]1[c:3]([H:8])[n:4]([H:9])[n:5][c:6]1[H:10])[H:7]>>[O:1]([C:2]1=[C:6]([H:10])[C@@:3]1([N:4]([N:5])[H:9])[H:8])[H:7]"
O        2.17413201      -0.14877098       0.32521761
C        0.90046338       0.15624609       0.03763625
C       -0.25549720      -0.64893635      -0.20523657
N       -1.44142565      -0.17851778       0.41822019
N       -1.63343156       1.05213577       0.39573229
C        0.22633420       1.17826015      -0.44019171
H        2.20599739      -1.06289319       0.62113226
H       -0.31386386      -1.57825878      -0.75940268
H       -2.18463946      -0.86003063       0.60378525
H        0.32193075       2.09076571      -0.99689290
10
Frame=10 idx=000434 GeodesicLength=0.5845127658836792 rxn_smarts="[O:1]([c:2]1[c:3]([H:8])[n:4]([H:9])[n:5][c:6]1[H:10])[H:7]>>[O:1]([C:2]1=[C:6]([H:10])[C@@:3]1([N:4]([N:5])[H:9])[H:8])[H:7]"
O        2.17368591      -0.13788010       0.33085223
C        0.89690013       0.15241891       0.04401972
C       -0.25693685      -0.64721053      -0.21090554
N       -1.43993189      -0.18000818       0.42635431
N       -1.61312057       1.05651403       0.40909061
C        0.21046034       1.16883370      -0.43948817
H        2.22140280      -1.05618254       0.61035910
H       -0.31555295      -1.58510208      -0.75035646
H       -2.20007666      -0.85048695       0.57779803
H        0.32316972       2.07910374      -0.99772384
10
Frame=11 idx=000434 GeodesicLength=0.6434063776942615 rxn_smarts="[O:1]([c:2]1[c:3]([H:8])[n:4]([H:9])[n:5][c:6]1[H:10])[H:7]>>[O:1]([C:2]1=[C:6]([H:10])[C@@:3]1([N:4]([N:5])[H:9])[H:8])[H:7]"
O        2.17275758      -0.12662315       0.33785461
C        0.89318526       0.14832061       0.05053449
C       -0.25844841      -0.64570147      -0.21642962
N       -1.43888662      -0.18165777       0.43367650
N       -1.59284783       1.06047353       0.42249953
C        0.19484768       1.15918544      -0.43881878
H        2.23733788      -1.04933319       0.59782808
H       -0.31707827      -1.59216497      -0.74066035
H       -2.21509249      -0.83963904       0.55179240
H        0.32422523       2.06714000      -0.99827688
10
Frame=12 idx=000434 GeodesicLength=0.7023665172247633 rxn_smarts="[O:1]([c:2]1[c:3]([H:8])[n:4]([H:9])[n:5][c:6]1[H:10])[H:7]>>[O:1]([C:2]1=[C:6]([H:10])[C@@:3]1([N:4]([N:5])[H:9])[H:8])[H:7]"
O        2.17147603      -0.11540608       0.34533624
C        0.88938436       0.14388394       0.05680868
C       -0.26005770      -0.64440330      -0.22213909
N       -1.43819292      -0.18350519       0.44020274
N       -1.57259499       1.06396425       0.43596122
C        0.17949900       1.14940120      -0.43821971
H        2.25339975      -1.04196788       0.58490814
H       -0.31859951      -1.59938255      -0.73073910
H       -2.22947435      -0.82773378       0.52622640
H        0.32516032       2.05514938      -0.99834553
10
Frame=13 idx=000434 GeodesicLength=0.7614239066083642 rxn_smarts="[O:1]([c:2]1[c:3]([H:8])[n:4]([H:9])[n:5][c:6]1[H:10])[H:7]>>[O:1]([C:2]1=[C:6]([H:10])[C@@:3]1([N:4]([N:5])[H:9])[H:8])[H:7]"
O        2.16972995      -0.10416498       0.35379882
C        0.88546318       0.13912251       0.06308066
C       -0.26175045      -0.64331141      -0.22789203
N       -1.43789679      -0.18546706       0.44593653
N       -1.55254262       1.06701506       0.44905072
C        0.16443600       1.13946589      -0.43760930
H        2.26980544      -1.03417626       0.57089425
H       -0.32012834      -1.60664804      -0.72059224
H       -2.24321356      -0.81485395       0.50131648
H        0.32609719       2.04301823      -0.99798388
10
Frame=14 idx=000434 GeodesicLength=0.8205494630722184 rxn_smarts="[O:1]([c:2]1[c:3]([H:8])[n:4]([H:9])[n:5][c:6]1[H:10])[H:7]>>[O:1]([C:2]1=[C:6]([H:10])[C@@:3]1([N:4]([N:5])[H:9])[H:8])[H:7]"
O        2.16755861      -0.09307627       0.36289360
C        0.88145483       0.13401217       0.06919828
C       -0.26353002      -0.64241224      -0.23380032
N       -1.43791133      -0.18753860       0.45095594
N       -1.53266235       1.06961360       0.46175663
C        0.14966517       1.12941582      -0.43701056
H        2.28636106      -1.02578565       0.55636903
H       -0.32176150      -1.61387262      -0.71045670
H       -2.25625265      -0.80119199       0.47725455
H        0.32707818       2.03083579      -0.99716044
10
Frame=15 idx=000434 GeodesicLength=0.879733282671487 rxn_smarts="[O:1]([c:2]1[c:3]([H:8])[n:4]([H:9])[n:5][c:6]1[H:10])[H:7]>>[O:1]([C:2]1=[C:6]([H:10])[C@@:3]1([N:4]([N:5])[H:9])[H:8])[H:7]"
O        2.16493580      -0.08218655       0.37272397
C        0.87736551       0.12855436       0.07520484
C       -0.26538988      -0.64169381      -0.23983790
N       -1.43821502      -0.18967685       0.45531727
N       -1.51301756       1.07179188       0.47392149
C        0.13520151       1.11926810      -0.43640497
H        2.30309113      -1.01677108       0.54126105
H       -0.32354969      -1.62097233      -0.70044857
H       -2.26859046      -0.78689434       0.45418641
H        0.32816867       2.01858062      -0.99592360
10
Frame=16 idx=000434 GeodesicLength=0.9389656222597779 rxn_smarts="[O:1]([c:2]1[c:3]([H:8])[n:4]([H:9])[n:5][c:6]1[H:10])[H:7]>>[O:1]([C:2]1=[C:6]([H:10])[C@@:3]1([N:4]([N:5])[H:9])[H:8])[H:7]"
O        2.16188712      -0.07160471       0.38311189
C        0.87322123       0.12273995       0.08103477
C       -0.26732386      -0.64113715      -0.24604154
N       -1.43874263      -0.19187105       0.45910555
N       -1.49359645       1.07355617       0.48554014
C        0.12105163       1.10904753      -0.43579077
H        2.31989497      -1.00703417       0.52591335
H       -0.32556183      -1.62784852      -0.69078300
H       -2.28021342      -0.77210173       0.43222881
H        0.32938324       2.00625367      -0.99431920
