14
Frame=0 idx=003170 GeodesicLength=0.0 rxn_smarts="[O:1]([C:2]12[C:3]([H:8])([H:9])[C:4]([H:10])([C:5]1([H:11])[H:12])[C:6]2([H:13])[H:14])[H:7]>>[O:1]=[C:2]1[C:3]([H:8])([H:9])[C:4]([C:5]([H:7])([H:11])[H:12])([H:10])[C:6]1([H:13])[H:14]"
O        1.59474104      -0.50064556       1.39366578
C        0.54541281      -0.46625147       0.61330016
C       -0.95449907      -0.24529298       0.85055945
C       -0.74214703       0.17637503      -0.61888382
C        0.36749482       1.17748043      -0.28718415
C        0.22938510      -1.01175814      -0.78736020
H        1.36384534       0.57108533       0.72257815
H       -1.24013057       0.52506059       1.56511492
H       -1.50728899      -1.17300297       1.00501818
H       -1.54352438       0.41775529      -1.31118990
H        1.05308653       1.40565259      -1.10404074
H        0.05273097       2.05553230       0.27792900
H       -0.22408338      -2.00385110      -0.77224763
H        1.00497681      -0.92813929      -1.54725926
14
Frame=1 idx=003170 GeodesicLength=0.09677171734555381 rxn_smarts="[O:1]([C:2]12[C:3]([H:8])([H:9])[C:4]([H:10])([C:5]1([H:11])[H:12])[C:6]2([H:13])[H:14])[H:7]>>[O:1]=[C:2]1[C:3]([H:8])([H:9])[C:4]([C:5]([H:7])([H:11])[H:12])([H:10])[C:6]1([H:13])[H:14]"
O        1.59078284      -0.51470039       1.39737585
C        0.54212580      -0.47894648       0.61856466
C       -0.95597278      -0.24676909       0.85145606
C       -0.73940447       0.17723062      -0.61721078
C        0.36886067       1.18093023      -0.28730922
C        0.22929583      -1.01352400      -0.78682386
H        1.37956679       0.58306431       0.72267593
H       -1.23301495       0.52490906       1.56821433
H       -1.51874978      -1.16778144       1.00885218
H       -1.54273684       0.41269357      -1.30891662
H        1.04498591       1.41371493      -1.11086198
H        0.04613679       2.06184998       0.26896859
H       -0.22296394      -2.00611500      -0.78471493
H        1.01108814      -0.92655630      -1.54027021
14
Frame=2 idx=003170 GeodesicLength=0.1934622995329306 rxn_smarts="[O:1]([C:2]12[C:3]([H:8])([H:9])[C:4]([H:10])([C:5]1([H:11])[H:12])[C:6]2([H:13])[H:14])[H:7]>>[O:1]=[C:2]1[C:3]([H:8])([H:9])[C:4]([C:5]([H:7])([H:11])[H:12])([H:10])[C:6]1([H:13])[H:14]"
O        1.58672359      -0.52860257       1.40099749
C        0.53857655      -0.49214872       0.62390728
C       -0.95751828      -0.24829799       0.85238534
C       -0.73659510       0.17804156      -0.61545972
C        0.37029942       1.18431920      -0.28733389
C        0.22919912      -1.01536217      -0.78628987
H        1.39580346       0.59556522       0.72266654
H       -1.22580296       0.52465825       1.57135223
H       -1.53045074      -1.16234648       1.01269234
H       -1.54181667       0.40766656      -1.30657095
H        1.03666414       1.42176882      -1.11763857
H        0.03947553       2.06804946       0.25987249
H       -0.22180130      -2.00830149      -0.79747260
H        1.01724325      -0.92500965      -1.53310811
14
Frame=3 idx=003170 GeodesicLength=0.29010033023037 rxn_smarts="[O:1]([C:2]12[C:3]([H:8])([H:9])[C:4]([H:10])([C:5]1([H:11])[H:12])[C:6]2([H:13])[H:14])[H:7]>>[O:1]=[C:2]1[C:3]([H:8])([H:9])[C:4]([C:5]([H:7])([H:11])[H:12])([H:10])[C:6]1([H:13])[H:14]"
O        1.58255976      -0.54231928       1.40451506
C        0.53473969      -0.50589555       0.62933036
C       -0.95914420      -0.24988608       0.85334718
C       -0.73371673       0.17880323      -0.61362648
C        0.37181606       1.18763890      -0.28724863
C        0.22909135      -1.01727949      -0.78575845
H        1.41259404       0.60865054       0.72252717
H       -1.21849371       0.52429689       1.57453123
H       -1.54240830      -1.15668930       1.01653351
H       -1.54075856       0.40267831      -1.30415244
H        1.02812120       1.42980267      -1.12435327
H        0.03275598       2.07411333       0.25065063
H       -0.22059944      -2.01040743      -0.81053409
H        1.02344285      -0.92350675      -1.52576178
14
Frame=4 idx=003170 GeodesicLength=0.3867199255949833 rxn_smarts="[O:1]([C:2]12[C:3]([H:8])([H:9])[C:4]([H:10])([C:5]1([H:11])[H:12])[C:6]2([H:13])[H:14])[H:7]>>[O:1]=[C:2]1[C:3]([H:8])([H:9])[C:4]([C:5]([H:7])([H:11])[H:12])([H:10])[C:6]1([H:13])[H:14]"
O        1.57828557      -0.55581697       1.40791195
C        0.53058681      -0.52022810       0.63483689
C       -0.96085932      -0.25154031       0.85434241
C       -0.73076679       0.17951006      -0.61170557
C        0.37341622       1.19087971      -0.28704341
C        0.22896852      -1.01928410      -0.78522865
H        1.42997986       0.62239128       0.72222983
H       -1.21108595       0.52381261       1.57775488
H       -1.55464084      -1.15079982       1.02036886
H       -1.53955655       0.39773280      -1.30165966
H        1.01935641       1.43780396      -1.13098757
H        0.02598890       2.08002276       0.24131383
H       -0.21936036      -2.01242680      -0.82391609
H        1.02968751      -0.92205707      -1.51821771
14
Frame=5 idx=003170 GeodesicLength=0.48333504512642655 rxn_smarts="[O:1]([C:2]12[C:3]([H:8])([H:9])[C:4]([H:10])([C:5]1([H:11])[H:12])[C:6]2([H:13])[H:14])[H:7]>>[O:1]=[C:2]1[C:3]([H:8])([H:9])[C:4]([C:5]([H:7])([H:11])[H:12])([H:10])[C:6]1([H:13])[H:14]"
O        1.57389266      -0.56906054       1.41116782
C        0.52608858      -0.53518816       0.64042896
C       -0.96267204      -0.25326816       0.85537150
C       -0.72774259       0.18015623      -0.60969173
C        0.37510506       1.19403283      -0.28670873
C        0.22882668      -1.02138403      -0.78469989
H        1.44800262       0.63686095       0.72174665
H       -1.20357855       0.52319266       1.58102623
H       -1.56716684      -1.14466803       1.02419217
H       -1.53820518       0.39283319      -1.29909111
H        1.01037265       1.44575900      -1.13752227
H        0.01918572       2.08575886       0.23187611
H       -0.21808690      -2.01435555      -0.83763289
H        1.03597813      -0.92066926      -1.51046282
14
Frame=6 idx=003170 GeodesicLength=0.579972406955836 rxn_smarts="[O:1]([C:2]12[C:3]([H:8])([H:9])[C:4]([H:10])([C:5]1([H:11])[H:12])[C:6]2([H:13])[H:14])[H:7]>>[O:1]=[C:2]1[C:3]([H:8])([H:9])[C:4]([C:5]([H:7])([H:11])[H:12])([H:10])[C:6]1([H:13])[H:14]"
O        1.56937008      -0.58201782       1.41426521
C        0.52121279      -0.55082062       0.64610915
C       -0.96459234      -0.25507815       0.85643487
C       -0.72464118       0.18073534      -0.60757872
C        0.37688762       1.19708843      -0.28623342
C        0.22866221      -1.02358799      -0.78417008
H        1.46670793       0.65214412       0.72103786
H       -1.19597075       0.52242054       1.58434930
H       -1.58000544      -1.13827994       1.02799720
H       -1.53669775       0.38798260      -1.29644553
H        1.00117216       1.45365344      -1.14393717
H        0.01235927       2.09130104       0.22235392
H       -0.21678019      -2.01618653      -0.85170225
H        1.04231557      -0.91935446      -1.50248033
14
Frame=7 idx=003170 GeodesicLength=0.6766350889991 rxn_smarts="[O:1]([C:2]12[C:3]([H:8])([H:9])[C:4]([H:10])([C:5]1([H:11])[H:12])[C:6]2([H:13])[H:14])[H:7]>>[O:1]=[C:2]1[C:3]([H:8])([H:9])[C:4]([C:5]([H:7])([H:11])[H:12])([H:10])[C:6]1([H:13])[H:14]"
O        1.56470139      -0.59465355       1.41717952
C        0.51592590      -0.56717318       0.65188055
C       -0.96662873      -0.25697916       0.85753368
C       -0.72145849       0.18124053      -0.60535959
C        0.37877071       1.20003588      -0.28560666
C        0.22847118      -1.02590569      -0.78363605
H        1.48614072       0.66832788       0.72006402
H       -1.18826119       0.52148117       1.58772780
H       -1.59317620      -1.13162409       1.03177640
H       -1.53502678       0.38318406      -1.29372076
H        0.99175830       1.46147391      -1.15021069
H        0.00552375       2.09662983       0.21276531
H       -0.21544124      -2.01791341      -0.86613985
H        1.04870069      -0.91812418      -1.49425371
14
Frame=8 idx=003170 GeodesicLength=0.7733556789977672 rxn_smarts="[O:1]([C:2]12[C:3]([H:8])([H:9])[C:4]([H:10])([C:5]1([H:11])[H:12])[C:6]2([H:13])[H:14])[H:7]>>[O:1]=[C:2]1[C:3]([H:8])([H:9])[C:4]([C:5]([H:7])([H:11])[H:12])([H:10])[C:6]1([H:13])[H:14]"
O        1.55986781      -0.60692750       1.41988335
C        0.51018814      -0.58430159       0.65774573
C       -0.96879202      -0.25898307       0.85866888
C       -0.71819002       0.18166347      -0.60302591
C        0.38076171       1.20286285      -0.28481440
C        0.22824909      -1.02834874      -0.78309471
H        1.50635363       0.68552154       0.71877767
H       -1.18044839       0.52035346       1.59116705
H       -1.60670209      -1.12468270       1.03552164
H       -1.53318356       0.37844072      -1.29091393
H        0.98213796       1.46920142      -1.15631956
H       -0.00130464       2.10172116       0.20313335
H       -0.21407171      -2.01952789      -0.88096701
H        1.05513410      -0.91699311      -1.48576217
14
Frame=9 idx=003170 GeodesicLength=0.8700999850165226 rxn_smarts="[O:1]([C:2]12[C:3]([H:8])([H:9])[C:4]([H:10])([C:5]1([H:11])[H:12])[C:6]2([H:13])[H:14])[H:7]>>[O:1]=[C:2]1[C:3]([H:8])([H:9])[C:4]([C:5]([H:7])([H:11])[H:12])([H:10])[C:6]1([H:13])[H:14]"
O        1.55484310      -0.61879894       1.42234457
C        0.50396432      -0.60225566       0.66370797
C       -0.97108971      -0.26110014       0.85984180
C       -0.71483064       0.18199626      -0.60056942
C        0.38286769       1.20555939      -0.28384544
C        0.22799293      -1.03092775      -0.78254031
H        1.52739308       0.70382255       0.71713289
H       -1.17253143       0.51901901       1.59467065
H       -1.62060126      -1.11744657       1.03922437
H       -1.53115939       0.37375405      -1.28802213
H        0.97232104       1.47682029      -1.16223960
H       -0.00810881       2.10655525       0.19348140
H       -0.21267700      -2.02102246      -0.89619969
H        1.06161608      -0.91597528      -1.47698707
14
Frame=10 idx=003170 GeodesicLength=0.9669035801286365 rxn_smarts="[O:1]([C:2]12[C:3]([H:8])([H:9])[C:4]([H:10])([C:5]1([H:11])[H:12])[C:6]2([H:13])[H:14])[H:7]>>[O:1]=[C:2]1[C:3]([H:8])([H:9])[C:4]([C:5]([H:7])([H:11])[H:12])([H:10])[C:6]1([H:13])[H:14]"
O        1.54959200      -0.63024165       1.42453363
C        0.49720889      -0.62109737       0.66976896
C       -0.97353101      -0.26334423       0.86105476
C       -0.71137326       0.18222958      -0.59797893
C        0.38509848       1.20811234      -0.28268420
C        0.22769909      -1.03365593      -0.78196658
H        1.54931420       0.72336060       0.71506414
H       -1.16450806       0.51745265       1.59824514
H       -1.63489734      -1.10989202       1.04287677
H       -1.52894288       0.36912693      -1.28504023
H        0.96231335       1.48431293      -1.16794978
H       -0.01487106       2.11110903       0.18383713
H       -0.21125083      -2.02238585      -0.91185823
H        1.06814843      -0.91508702      -1.46790259
14
Frame=11 idx=003170 GeodesicLength=1.0637388479690544 rxn_smarts="[O:1]([C:2]12[C:3]([H:8])([H:9])[C:4]([H:10])([C:5]1([H:11])[H:12])[C:6]2([H:13])[H:14])[H:7]>>[O:1]=[C:2]1[C:3]([H:8])([H:9])[C:4]([C:5]([H:7])([H:11])[H:12])([H:10])[C:6]1([H:13])[H:14]"
O        1.54407398      -0.64123008       1.42641690
C        0.48988040      -0.64088158       0.67592966
C       -0.97612274      -0.26572788       0.86230936
C       -0.70781043       0.18235494      -0.59524406
C        0.38746355       1.21051144      -0.28131825
C        0.22736489      -1.03654518      -0.78136624
H        1.57216262       0.74425763       0.71250701
H       -1.15637594       0.51563124       1.60189510
H       -1.64960773      -1.10200255       1.04647160
H       -1.52652293       0.36456153      -1.28196359
H        0.95212568       1.49166280      -1.17342492
H       -0.02157256       2.11536168       0.17422950
H       -0.20978941      -2.02360836      -0.92795694
H        1.07473063      -0.91434563      -1.45848513
14
Frame=12 idx=003170 GeodesicLength=1.1606093214236781 rxn_smarts="[O:1]([C:2]12[C:3]([H:8])([H:9])[C:4]([H:10])([C:5]1([H:11])[H:12])[C:6]2([H:13])[H:14])[H:7]>>[O:1]=[C:2]1[C:3]([H:8])([H:9])[C:4]([C:5]([H:7])([H:11])[H:12])([H:10])[C:6]1([H:13])[H:14]"
O        1.53824022      -0.65174003       1.42795567
C        0.48193075      -0.66167233       0.68219099
C       -0.97887320      -0.26826814       0.86360856
C       -0.70413308       0.18236186      -0.59235139
C        0.38997529       1.21274305      -0.27973051
C        0.22698636      -1.03961110      -0.78072909
H        1.59599012       0.76666182       0.70938533
H       -1.14813334       0.51352559       1.60562713
H       -1.66475281      -1.09375453       1.05000060
H       -1.52388577       0.36006050      -1.27878610
H        0.94177011       1.49885044      -1.17864151
H       -0.02819116       2.11929003       0.16469148
H       -0.20828652      -2.02467571      -0.94451569
H        1.08136303      -0.91377146      -1.44870547
14
Frame=13 idx=003170 GeodesicLength=1.257469131515873 rxn_smarts="[O:1]([C:2]12[C:3]([H:8])([H:9])[C:4]([H:10])([C:5]1([H:11])[H:12])[C:6]2([H:13])[H:14])[H:7]>>[O:1]=[C:2]1[C:3]([H:8])([H:9])[C:4]([C:5]([H:7])([H:11])[H:12])([H:10])[C:6]1([H:13])[H:14]"
O        1.53203255      -0.66176219       1.42911305
C        0.47331665      -0.68352361       0.68855205
C       -0.98178561      -0.27098035       0.86495492
C       -0.70033105       0.18224167      -0.58928803
C        0.39264604       1.21479807      -0.27790723
C        0.22656180      -1.04286687      -0.78004426
H        1.62083554       0.79071331       0.70562322
H       -1.13977664       0.51110913       1.60944661
H       -1.68034536      -1.08513094       1.05345589
H       -1.52101793       0.35562603      -1.27550064
H        0.93126113       1.50585933      -1.18357894
H       -0.03470605       2.12287554       0.15525517
H       -0.20673623      -2.02557613      -0.96154504
H        1.08804515      -0.91338299      -1.43853677
14
Frame=14 idx=003170 GeodesicLength=1.35430777228436 rxn_smarts="[O:1]([C:2]12[C:3]([H:8])([H:9])[C:4]([H:10])([C:5]1([H:11])[H:12])[C:6]2([H:13])[H:14])[H:7]>>[O:1]=[C:2]1[C:3]([H:8])([H:9])[C:4]([C:5]([H:7])([H:11])[H:12])([H:10])[C:6]1([H:13])[H:14]"
O        1.52538278      -0.67129597       1.42985183
C        0.46398827      -0.70649592       0.69500946
C       -0.98486482      -0.27388286       0.86635134
C       -0.69639213       0.18198427      -0.58603893
C        0.39549115       1.21666477      -0.27583282
C        0.22608899      -1.04632850      -0.77929803
H        1.64674069       0.81658072       0.70112456
H       -1.13130339       0.50834881       1.61335931
H       -1.69639832      -1.07610568       1.05683076
H       -1.51790267       0.35126057      -1.27209918
H        0.92061242       1.51267101      -1.18821112
H       -0.04109180       2.12609573       0.14595872
H       -0.20512674      -2.02629251      -0.97905923
H        1.09477560      -0.91320443      -1.42794667
14
Frame=15 idx=003170 GeodesicLength=1.451081601293205 rxn_smarts="[O:1]([C:2]12[C:3]([H:8])([H:9])[C:4]([H:10])([C:5]1([H:11])[H:12])[C:6]2([H:13])[H:14])[H:7]>>[O:1]=[C:2]1[C:3]([H:8])([H:9])[C:4]([C:5]([H:7])([H:11])[H:12])([H:10])[C:6]1([H:13])[H:14]"
O        1.51821317      -0.68036036       1.43013638
C        0.45389984      -0.73063916       0.70155764
C       -0.98811182      -0.27699367       0.86780050
C       -0.69230307       0.18158139      -0.58258905
C        0.39852668       1.21833502      -0.27349322
C        0.22556677      -1.05001062      -0.77847529
H        1.67373383       0.84442995       0.69579189
H       -1.12271032       0.50521291       1.61737033
H       -1.71291662      -1.06665739       1.06011920
H       -1.51452324       0.34696669      -1.26857322
H        0.90984028       1.51926956      -1.19251719
H       -0.04732304       2.12893273       0.13683947
H       -0.20344500      -2.02680926      -0.99706335
H        1.10155254      -0.91325781      -1.41690409
14
Frame=16 idx=003170 GeodesicLength=1.547754637548295 rxn_smarts="[O:1]([C:2]12[C:3]([H:8])([H:9])[C:4]([H:10])([C:5]1([H:11])[H:12])[C:6]2([H:13])[H:14])[H:7]>>[O:1]=[C:2]1[C:3]([H:8])([H:9])[C:4]([C:5]([H:7])([H:11])[H:12])([H:10])[C:6]1([H:13])[H:14]"
O        1.51043572      -0.68899285       1.42993381
C        0.44300472      -0.75599923       0.70818718
C       -0.99152589      -0.28033221       0.86930530
C       -0.68804923       0.18102486      -0.57892237
C        0.40177041       1.21980154      -0.27087480
C        0.22499394      -1.05392868      -0.77755862
H        1.70183745       0.87444062       0.68951715
H       -1.11399437       0.50166751       1.62148441
H       -1.72989996      -1.05676243       1.06331657
H       -1.51086157       0.34274721      -1.26491325
H        0.89896345       1.52563886      -1.19647604
H       -0.05337378       2.13136996       0.12793668
H       -0.20167369      -2.02710785      -1.01555969
H        1.10837280      -0.91356732      -1.40537634
