12
Frame=0 idx=002477 GeodesicLength=0.0 rxn_smarts="[N:1]([C:2]1([C:5]#[N:6])[C:3]([H:9])([H:10])[C:4]1([H:11])[H:12])([H:7])[H:8]>>[N:1]([C:5]1=[N:6][C:2]12[C:3]([H:9])([H:10])[C:4]2([H:11])[H:12])([H:7])[H:8]"
N        1.09302309       1.27184224       0.83475831
C        0.01470377      -0.16131281      -0.15550764
C       -1.27720143      -0.19314936      -0.83033031
C       -0.91635458      -1.21104189       0.24002544
C        1.39618531       0.25394405      -0.22748173
N        2.36745514      -0.07875291      -0.86660821
H        1.52146921       1.12158275       1.74050575
H        1.11596856       2.24352738       0.54853717
H       -1.25472165      -0.46613686      -1.87944377
H       -2.01087356       0.55813147      -0.56563407
H       -1.41727664      -1.11784651       1.19568370
H       -0.63237725      -2.22078759      -0.03450463
12
Frame=1 idx=002477 GeodesicLength=0.06643853535671546 rxn_smarts="[N:1]([C:2]1([C:5]#[N:6])[C:3]([H:9])([H:10])[C:4]1([H:11])[H:12])([H:7])[H:8]>>[N:1]([C:5]1=[N:6][C:2]12[C:3]([H:9])([H:10])[C:4]2([H:11])[H:12])([H:7])[H:8]"
N        1.07970015       1.27382172       0.84646747
C        0.02148969      -0.14940603      -0.15674437
C       -1.27093191      -0.19115672      -0.83319652
C       -0.90553371      -1.20343905       0.24062189
C        1.39176724       0.28301858      -0.25420422
N        2.34463236      -0.13742480      -0.86462396
H        1.53457669       1.11246602       1.73690871
H        1.08858266       2.24912810       0.57378725
H       -1.25054099      -0.47247710      -1.88003886
H       -2.00864653       0.55745349      -0.57224241
H       -1.40573755      -1.10940859       1.19655446
H       -0.61935809      -2.21257561      -0.03328945
12
Frame=2 idx=002477 GeodesicLength=0.13328126497375165 rxn_smarts="[N:1]([C:2]1([C:5]#[N:6])[C:3]([H:9])([H:10])[C:4]1([H:11])[H:12])([H:7])[H:8]>>[N:1]([C:5]1=[N:6][C:2]12[C:3]([H:9])([H:10])[C:4]2([H:11])[H:12])([H:7])[H:8]"
N        1.06697014       1.27415763       0.85749493
C        0.02967700      -0.13915084      -0.15799106
C       -1.26350128      -0.18876862      -0.83580587
C       -0.89499138      -1.19602260       0.24136213
C        1.38944468       0.30861845      -0.27896552
N        2.31816830      -0.19115265      -0.86314086
H        1.54713156       1.10493360       1.73268459
H        1.05856168       2.25242251       0.59747826
H       -1.24534657      -0.47809467      -1.88040146
H       -2.00389602       0.55842057      -0.57843231
H       -1.39415610      -1.10041340       1.19767239
H       -0.60806203      -2.20494997      -0.03195522
12
Frame=3 idx=002477 GeodesicLength=0.2005963729795574 rxn_smarts="[N:1]([C:2]1([C:5]#[N:6])[C:3]([H:9])([H:10])[C:4]1([H:11])[H:12])([H:7])[H:8]>>[N:1]([C:5]1=[N:6][C:2]12[C:3]([H:9])([H:10])[C:4]2([H:11])[H:12])([H:7])[H:8]"
N        1.05468524       1.27327769       0.86803596
C        0.03885368      -0.13059564      -0.15866008
C       -1.25494503      -0.18606531      -0.83800134
C       -0.88507775      -1.18908550       0.24221914
C        1.38894355       0.32988141      -0.30069466
N        2.28910670      -0.23902272      -0.86358220
H        1.55914622       1.09972187       1.72811106
H        1.02704877       2.25357963       0.61901829
H       -1.23883403      -0.48293517      -1.88035905
H       -1.99678452       0.56086580      -0.58413458
H       -1.38327805      -1.09140659       1.19876207
H       -0.59886479      -2.19821547      -0.03071460
12
Frame=4 idx=002477 GeodesicLength=0.2680614676398597 rxn_smarts="[N:1]([C:2]1([C:5]#[N:6])[C:3]([H:9])([H:10])[C:4]1([H:11])[H:12])([H:7])[H:8]>>[N:1]([C:5]1=[N:6][C:2]12[C:3]([H:9])([H:10])[C:4]2([H:11])[H:12])([H:7])[H:8]"
N        1.04273860       1.27153652       0.87826977
C        0.04874172      -0.12353240      -0.15834686
C       -1.24558099      -0.18307418      -0.83978573
C       -0.87583543      -1.18268888       0.24323846
C        1.39021814       0.34683045      -0.31899972
N        2.25846035      -0.28142660      -0.86665759
H        1.57053116       1.09707124       1.72360132
H        0.99481841       2.25268828       0.63799092
H       -1.23114189      -0.48675261      -1.88005519
H       -1.98800624       0.56440410      -0.58943060
H       -1.37343660      -1.08286726       1.19980597
H       -0.59150722      -2.19218866      -0.02963073
12
Frame=5 idx=002477 GeodesicLength=0.3356986146314385 rxn_smarts="[N:1]([C:2]1([C:5]#[N:6])[C:3]([H:9])([H:10])[C:4]1([H:11])[H:12])([H:7])[H:8]>>[N:1]([C:5]1=[N:6][C:2]12[C:3]([H:9])([H:10])[C:4]2([H:11])[H:12])([H:7])[H:8]"
N        1.03102069       1.26928613       0.88827633
C        0.05906879      -0.11759668      -0.15733196
C       -1.23570007      -0.17989730      -0.84120253
C       -0.86717829      -1.17681112       0.24432464
C        1.39275526       0.36043856      -0.33483244
N        2.22708037      -0.31958946      -0.87155079
H        1.58123786       1.09658595       1.71912790
H        0.96253363       2.25034580       0.65495473
H       -1.22272700      -0.48982893      -1.87952236
H       -1.97803383       0.56874250      -0.59422595
H       -1.36439611      -1.07482532       1.20082178
H       -0.58566129      -2.18685014      -0.02883936
12
Frame=6 idx=002477 GeodesicLength=0.4033175982704558 rxn_smarts="[N:1]([C:2]1([C:5]#[N:6])[C:3]([H:9])([H:10])[C:4]1([H:11])[H:12])([H:7])[H:8]>>[N:1]([C:5]1=[N:6][C:2]12[C:3]([H:9])([H:10])[C:4]2([H:11])[H:12])([H:7])[H:8]"
N        1.01942519       1.26669469       0.89805415
C        0.06967709      -0.11255464      -0.15575653
C       -1.22549707      -0.17655865      -0.84224388
C       -0.85899790      -1.17140766       0.24538989
C        1.39622049       0.37137498      -0.34872281
N        2.19550911      -0.35444481      -0.87759021
H        1.59126269       1.09802419       1.71455426
H        0.93046979       2.24682009       0.67018713
H       -1.21390423      -0.49222885      -1.87871171
H       -1.96718887       0.57370262      -0.59843792
H       -1.35593323      -1.06731594       1.20173860
H       -0.58104308      -2.18210603      -0.02846096
12
Frame=7 idx=002477 GeodesicLength=0.4713173547601337 rxn_smarts="[N:1]([C:2]1([C:5]#[N:6])[C:3]([H:9])([H:10])[C:4]1([H:11])[H:12])([H:7])[H:8]>>[N:1]([C:5]1=[N:6][C:2]12[C:3]([H:9])([H:10])[C:4]2([H:11])[H:12])([H:7])[H:8]"
N        1.00787889       1.26372964       0.90769643
C        0.08052864      -0.10823775      -0.15369600
C       -1.21495384      -0.17308384      -0.84300128
C       -0.85118453      -1.16634262       0.24657478
C        1.40054647       0.37992345      -0.36101670
N        2.16360259      -0.38616167      -0.88509378
H        1.60035195       1.10080331       1.71006677
H        0.89873722       2.24221720       0.68390552
H       -1.20459518      -0.49409775      -1.87767975
H       -1.95554228       0.57918899      -0.60233183
H       -1.34798379      -1.06016575       1.20269802
H       -0.57738614      -2.17777320      -0.02812220
12
Frame=8 idx=002477 GeodesicLength=0.5394290118559624 rxn_smarts="[N:1]([C:2]1([C:5]#[N:6])[C:3]([H:9])([H:10])[C:4]1([H:11])[H:12])([H:7])[H:8]>>[N:1]([C:5]1=[N:6][C:2]12[C:3]([H:9])([H:10])[C:4]2([H:11])[H:12])([H:7])[H:8]"
N        0.99637314       1.26051250       0.91724443
C        0.09154911      -0.10452767      -0.15126936
C       -1.20425919      -0.16951160      -0.84350959
C       -0.84369067      -1.16158556       0.24779767
C        1.40556502       0.38651700      -0.37206112
N        2.13179399      -0.41540272      -0.89355155
H        1.60867503       1.10487047       1.70561134
H        0.86740872       2.23671846       0.69636661
H       -1.19509963      -0.49553236      -1.87649445
H       -1.94337410       0.58509783      -0.60584373
H       -1.34040641      -1.05334741       1.20368942
H       -0.57453502      -2.17380895      -0.02797967
12
Frame=9 idx=002477 GeodesicLength=0.6075858750190885 rxn_smarts="[N:1]([C:2]1([C:5]#[N:6])[C:3]([H:9])([H:10])[C:4]1([H:11])[H:12])([H:7])[H:8]>>[N:1]([C:5]1=[N:6][C:2]12[C:3]([H:9])([H:10])[C:4]2([H:11])[H:12])([H:7])[H:8]"
N        0.98486399       1.25709679       0.92667424
C        0.10271251      -0.10135073      -0.14853112
C       -1.19346334      -0.16583323      -0.84375286
C       -0.83645788      -1.15712000       0.24901831
C        1.41117666       0.39141831      -0.38204330
N        2.10020201      -0.44257130      -0.90265447
H        1.61621236       1.11013143       1.70111516
H        0.83650842       2.23041138       0.70763134
H       -1.18553155      -0.49650790      -1.87513005
H       -1.93075284       0.59137935      -0.60891113
H       -1.33307906      -1.04689171       1.20468356
H       -0.57239128      -2.17016240      -0.02809969
12
Frame=10 idx=002477 GeodesicLength=0.6759299249909828 rxn_smarts="[N:1]([C:2]1([C:5]#[N:6])[C:3]([H:9])([H:10])[C:4]1([H:11])[H:12])([H:7])[H:8]>>[N:1]([C:5]1=[N:6][C:2]12[C:3]([H:9])([H:10])[C:4]2([H:11])[H:12])([H:7])[H:8]"
N        0.97332382       1.25350708       0.93603542
C        0.11400747      -0.09865186      -0.14555203
C       -1.18258322      -0.16205639      -0.84377394
C       -0.82943657      -1.15291094       0.25026856
C        1.41732538       0.39477482      -0.39119629
N        2.06883470      -0.46787506      -0.91239085
H        1.62293117       1.11638453       1.69664409
H        0.80603046       2.22343329       0.71784847
H       -1.17591853      -0.49709983      -1.87363875
H       -1.91772594       0.59803071      -0.61159366
H       -1.32594031      -1.04072597       1.20575028
H       -0.57084842      -2.16681039      -0.02840129
12
Frame=11 idx=002477 GeodesicLength=0.7442571025500172 rxn_smarts="[N:1]([C:2]1([C:5]#[N:6])[C:3]([H:9])([H:10])[C:4]1([H:11])[H:12])([H:7])[H:8]>>[N:1]([C:5]1=[N:6][C:2]12[C:3]([H:9])([H:10])[C:4]2([H:11])[H:12])([H:7])[H:8]"
N        0.96172455       1.24975381       0.94525063
C        0.12542334      -0.09638664      -0.14233476
C       -1.17164097      -0.15816698      -0.84350812
C       -0.82260341      -1.14894657       0.25147482
C        1.42393437       0.39680408      -0.39955289
N        2.03779439      -0.49161300      -0.92238007
H        1.62887272       1.12367025       1.69199324
H        0.77593724       2.21571842       0.72698569
H       -1.16633826      -0.49721402      -1.87192356
H       -1.90429808       0.60497515      -0.61376523
H       -1.31890965      -1.03493012       1.20678442
H       -0.56989623      -2.16366438      -0.02902416
12
Frame=12 idx=002477 GeodesicLength=0.8128559400510166 rxn_smarts="[N:1]([C:2]1([C:5]#[N:6])[C:3]([H:9])([H:10])[C:4]1([H:11])[H:12])([H:7])[H:8]>>[N:1]([C:5]1=[N:6][C:2]12[C:3]([H:9])([H:10])[C:4]2([H:11])[H:12])([H:7])[H:8]"
N        0.95005384       1.24585682       0.95445347
C        0.13696702      -0.09452683      -0.13895986
C       -1.16064297      -0.15419652      -0.84305942
C       -0.81591757      -1.14518317       0.25273010
C        1.43101963       0.39751816      -0.40733687
N        2.00699133      -0.51380308      -0.93295029
H        1.63398633       1.13171172       1.68739564
H        0.74622518       2.20747823       0.73526922
H       -1.15676429      -0.49703719      -1.87011535
H       -1.89052276       0.61226181      -0.61561254
H       -1.31198010      -1.02932804       1.20793517
H       -0.56941563      -2.16075191      -0.02974926
12
Frame=13 idx=002477 GeodesicLength=0.8814318375791681 rxn_smarts="[N:1]([C:2]1([C:5]#[N:6])[C:3]([H:9])([H:10])[C:4]1([H:11])[H:12])([H:7])[H:8]>>[N:1]([C:5]1=[N:6][C:2]12[C:3]([H:9])([H:10])[C:4]2([H:11])[H:12])([H:7])[H:8]"
N        0.93827736       1.24185686       0.96346034
C        0.14865134      -0.09308722      -0.13538572
C       -1.14961728      -0.15005559      -0.84228472
C       -0.80935523      -1.14167967       0.25388809
C        1.43851225       0.39707568      -0.41451621
N        1.97665259      -0.53491895      -0.94335384
H        1.63833899       1.14081527       1.68250711
H        0.71673777       2.19857178       0.74246082
H       -1.14734642      -0.49624059      -1.86808554
H       -1.87637010       0.61987576      -0.61678470
H       -1.30500825      -1.02419266       1.20905858
H       -0.56947302      -2.15802067      -0.03096420
12
Frame=14 idx=002477 GeodesicLength=0.9502850663640389 rxn_smarts="[N:1]([C:2]1([C:5]#[N:6])[C:3]([H:9])([H:10])[C:4]1([H:11])[H:12])([H:7])[H:8]>>[N:1]([C:5]1=[N:6][C:2]12[C:3]([H:9])([H:10])[C:4]2([H:11])[H:12])([H:7])[H:8]"
N        0.92639749       1.23766330       0.97248750
C        0.16046182      -0.09198410      -0.13169282
C       -1.13851337      -0.14587198      -0.84133647
C       -0.80291888      -1.13829220       0.25511627
C        1.44643132       0.39551558      -0.42122194
N        1.94647339      -0.55458198      -0.95438943
H        1.64189205       1.15047302       1.67757039
H        0.68755641       2.18909927       0.74897914
H       -1.13787849      -0.49526104      -1.86591172
H       -1.86183906       0.62775824      -0.61772330
H       -1.29813074      -1.01911999       1.21027409
H       -0.56993193      -2.15539814      -0.03215172
12
Frame=15 idx=002477 GeodesicLength=1.0191990950061984 rxn_smarts="[N:1]([C:2]1([C:5]#[N:6])[C:3]([H:9])([H:10])[C:4]1([H:11])[H:12])([H:7])[H:8]>>[N:1]([C:5]1=[N:6][C:2]12[C:3]([H:9])([H:10])[C:4]2([H:11])[H:12])([H:7])[H:8]"
N        0.91438038       1.23341565       0.98132776
C        0.17240266      -0.09124294      -0.12785344
C       -1.12740100      -0.14153764      -0.84008189
C       -0.79655897      -1.13513076       0.25625024
C        1.45470196       0.39292484      -0.42747725
N        1.91670940      -0.57333163      -0.96520116
H        1.64457701       1.16097352       1.67238735
H        0.65871724       2.17910567       0.75448999
H       -1.12859805      -0.49371477      -1.86353323
H       -1.84697102       0.63591552      -0.61800431
H       -1.29113480      -1.01447073       1.21147836
H       -0.57082480      -2.15290674      -0.03378243
12
Frame=16 idx=002477 GeodesicLength=1.0882712544683997 rxn_smarts="[N:1]([C:2]1([C:5]#[N:6])[C:3]([H:9])([H:10])[C:4]1([H:11])[H:12])([H:7])[H:8]>>[N:1]([C:5]1=[N:6][C:2]12[C:3]([H:9])([H:10])[C:4]2([H:11])[H:12])([H:7])[H:8]"
N        0.90219868       1.22910692       0.99008723
C        0.18449033      -0.09085126      -0.12389959
C       -1.11626707      -0.13706470      -0.83859114
C       -0.79025418      -1.13216485       0.25737579
C        1.46335793       0.38930335      -0.43336687
N        1.88730056      -0.59114638      -0.97611912
H        1.64639111       1.17214389       1.66707321
H        0.63015792       2.16868516       0.75914403
H       -1.11944276      -0.49172661      -1.86104299
H       -1.83178924       0.64440499      -0.61777488
H       -1.28406277      -1.01011572       1.21278796
H       -0.57208051      -2.15057478      -0.03567364
