16
Frame=0 idx=007637 GeodesicLength=0.0 rxn_smarts="[C:1]([C@:2]12[C:3]([H:11])([H:12])[C@@:4]1([H:13])[C@@:5]1([H:14])[N:6]([H:15])[C@@:7]21[H:16])([H:8])([H:9])[H:10]>>[C:1]([C:2]1=[C:3]([H:11])[C:4]([H:12])([H:13])[C@@:5]2([H:14])[N:6]([H:15])[C@@:7]12[H:16])([H:8])([H:9])[H:10]"
C        1.54704854      -0.58899665       0.90927963
C        0.44315623      -0.24382929      -0.04604966
C        0.67128745       0.41192899      -1.34761889
C       -0.28424543       1.08182419       0.01051750
C       -1.62620434       0.31046603       0.13766364
N       -1.84437722      -0.60679730      -0.95163407
C       -0.92367109      -0.99420483       0.08416625
H        1.15938615      -0.74225213       1.91928682
H        2.30024299       0.20001284       0.94445178
H        2.03845588      -1.51348042       0.59864674
H        1.59241332       1.00243437      -1.26329797
H       -0.22891782       1.38426216      -1.20465728
H        0.05192659       1.88804397       0.64665176
H       -2.46361249       0.66012061       0.72509845
H       -1.34801343      -0.33980136      -1.80050409
H       -1.08487526      -1.90973122       0.63799939
16
Frame=1 idx=007637 GeodesicLength=0.09236719557672855 rxn_smarts="[C:1]([C@:2]12[C:3]([H:11])([H:12])[C@@:4]1([H:13])[C@@:5]1([H:14])[N:6]([H:15])[C@@:7]21[H:16])([H:8])([H:9])[H:10]>>[C:1]([C:2]1=[C:3]([H:11])[C:4]([H:12])([H:13])[C@@:5]2([H:14])[N:6]([H:15])[C@@:7]12[H:16])([H:8])([H:9])[H:10]"
C        1.55356702      -0.60213397       0.90942616
C        0.44809367      -0.24666709      -0.03994112
C        0.67199611       0.42769202      -1.32661841
C       -0.29181569       1.09343361      -0.00036786
C       -1.62618106       0.31227884       0.13257928
N       -1.84226393      -0.61341850      -0.95063425
C       -0.91955321      -0.99057663       0.08823346
H        1.17065806      -0.75176056       1.92183544
H        2.31444159       0.17949390       0.94254157
H        2.03492865      -1.53141861       0.59702739
H        1.59421237       1.01613243      -1.25281446
H       -0.24433344       1.39757970      -1.22782781
H        0.03379483       1.90250191       0.63807771
H       -2.46497829       0.65825987       0.72016620
H       -1.34826880      -0.35070416      -1.80175851
H       -1.08429790      -1.90069276       0.65007521
16
Frame=2 idx=007637 GeodesicLength=0.1847114449616195 rxn_smarts="[C:1]([C@:2]12[C:3]([H:11])([H:12])[C@@:4]1([H:13])[C@@:5]1([H:14])[N:6]([H:15])[C@@:7]21[H:16])([H:8])([H:9])[H:10]>>[C:1]([C:2]1=[C:3]([H:11])[C:4]([H:12])([H:13])[C@@:5]2([H:14])[N:6]([H:15])[C@@:7]12[H:16])([H:8])([H:9])[H:10]"
C        1.56024878      -0.61551760       0.90937948
C        0.45304306      -0.24919210      -0.03346285
C        0.67257413       0.44378922      -1.30500591
C       -0.29987770       1.10539891      -0.01118695
C       -1.62632610       0.31419033       0.12736520
N       -1.83987247      -0.62013542      -0.94957291
C       -0.91540347      -0.98665907       0.09261038
H        1.18246283      -0.76172442       1.92425230
H        2.32890817       0.15848321       0.94022348
H        2.03119664      -1.54951313       0.59481726
H        1.59587808       1.03000331      -1.24181035
H       -0.25917517       1.41005004      -1.25146970
H        0.01487451       1.91738064       0.62943190
H       -2.46670813       0.65646018       0.71482390
H       -1.34812214      -0.36177064      -1.80286190
H       -1.08370100      -1.89124347       0.66246668
16
Frame=3 idx=007637 GeodesicLength=0.2770431894055971 rxn_smarts="[C:1]([C@:2]12[C:3]([H:11])([H:12])[C@@:4]1([H:13])[C@@:5]1([H:14])[N:6]([H:15])[C@@:7]21[H:16])([H:8])([H:9])[H:10]>>[C:1]([C:2]1=[C:3]([H:11])[C:4]([H:12])([H:13])[C@@:5]2([H:14])[N:6]([H:15])[C@@:7]12[H:16])([H:8])([H:9])[H:10]"
C        1.56709849      -0.62916039       0.90912272
C        0.45800177      -0.25138199      -0.02659064
C        0.67302458       0.46022458      -1.28274933
C       -0.30846084       1.11773804      -0.02194018
C       -1.62665375       0.31620608       0.12201982
N       -1.83718981      -0.62694946      -0.94844351
C       -0.91122481      -0.98243310       0.09731933
H        1.19482815      -0.77217137       1.92652914
H        2.34365033       0.13695327       0.93745939
H        2.02724401      -1.56777334       0.59198284
H        1.59739049       1.04408213      -1.23025030
H       -0.27336928       1.42161678      -1.27561331
H       -0.00487873       1.93270195       0.62070314
H       -2.46882920       0.65472035       0.70906066
H       -1.34754653      -0.37300914      -1.80380642
H       -1.08308486      -1.88136440       0.67519666
16
Frame=4 idx=007637 GeodesicLength=0.3693623732200285 rxn_smarts="[C:1]([C@:2]12[C:3]([H:11])([H:12])[C@@:4]1([H:13])[C@@:5]1([H:14])[N:6]([H:15])[C@@:7]21[H:16])([H:8])([H:9])[H:10]>>[C:1]([C:2]1=[C:3]([H:11])[C:4]([H:12])([H:13])[C@@:5]2([H:14])[N:6]([H:15])[C@@:7]12[H:16])([H:8])([H:9])[H:10]"
C        1.57411410      -0.64307190       0.90863065
C        0.46296561      -0.25321508      -0.01929719
C        0.67334701       0.47700703      -1.25980308
C       -0.31758981       1.13046528      -0.03263071
C       -1.62717172       0.31832927       0.11653988
N       -1.83419787      -0.63386573      -0.94723459
C       -0.90702109      -0.97787875       0.10238489
H        1.20777929      -0.78312705       1.92864228
H        2.35866718       0.11488045       0.93420104
H        2.02304073      -1.58620076       0.58848416
H        1.59872866       1.05840490      -1.21808617
H       -0.28683203       1.43221893      -1.30028319
H       -0.02550753       1.94848317       0.61187718
H       -2.47135854       0.65303639       0.70285946
H       -1.34650928      -0.38443452      -1.80457478
H       -1.08245474      -1.87103164       0.68829018
16
Frame=5 idx=007637 GeodesicLength=0.4616863840155381 rxn_smarts="[C:1]([C@:2]12[C:3]([H:11])([H:12])[C@@:4]1([H:13])[C@@:5]1([H:14])[N:6]([H:15])[C@@:7]21[H:16])([H:8])([H:9])[H:10]>>[C:1]([C:2]1=[C:3]([H:11])[C:4]([H:12])([H:13])[C@@:5]2([H:14])[N:6]([H:15])[C@@:7]12[H:16])([H:8])([H:9])[H:10]"
C        1.58130269      -0.65726571       0.90788036
C        0.46793383      -0.25467134      -0.01155172
C        0.67353968       0.49414966      -1.23612132
C       -0.32729501       1.14359662      -0.04326506
C       -1.62789618       0.32056733       0.11092205
N       -1.83088412      -0.64088819      -0.94594000
C       -0.90279792      -0.97297430       0.10783330
H        1.22135200      -0.79462344       1.93057468
H        2.37396609       0.09223740       0.93040241
H        2.01856942      -1.60480046       0.58427849
H        1.59987650       1.07300554      -1.20526988
H       -0.29947806       1.44179288      -1.32550862
H       -0.04706571       1.96474460       0.60294230
H       -2.47432676       0.65141216       0.69620524
H       -1.34498028      -0.39606373      -1.80515898
H       -1.08181616      -1.86021903       0.70177675
16
Frame=6 idx=007637 GeodesicLength=0.5539504673980044 rxn_smarts="[C:1]([C@:2]12[C:3]([H:11])([H:12])[C@@:4]1([H:13])[C@@:5]1([H:14])[N:6]([H:15])[C@@:7]21[H:16])([H:8])([H:9])[H:10]>>[C:1]([C:2]1=[C:3]([H:11])[C:4]([H:12])([H:13])[C@@:5]2([H:14])[N:6]([H:15])[C@@:7]12[H:16])([H:8])([H:9])[H:10]"
C        1.58864357      -0.67174593       0.90683303
C        0.47289027      -0.25571823      -0.00331386
C        0.67358859       0.51167891      -1.21163795
C       -0.33759178       1.15713506      -0.05386531
C       -1.62881868       0.32291394       0.10515863
N       -1.82721034      -0.64802762      -0.94452485
C       -0.89856229      -0.96769339       0.11370139
H        1.23556505      -0.80669488       1.93228310
H        2.38952332       0.06900493       0.92599069
H        2.01376727      -1.62355918       0.57930151
H        1.60080223       1.08793005      -1.19173645
H       -0.31118409       1.45027316      -1.35128510
H       -0.06959635       1.98148487       0.59385395
H       -2.47773077       0.64982848       0.68905634
H       -1.34290340      -0.40791680      -1.80550729
H       -1.08118259      -1.84889337       0.71569217
16
Frame=7 idx=007637 GeodesicLength=0.6462007756717147 rxn_smarts="[C:1]([C@:2]12[C:3]([H:11])([H:12])[C@@:4]1([H:13])[C@@:5]1([H:14])[N:6]([H:15])[C@@:7]21[H:16])([H:8])([H:9])[H:10]>>[C:1]([C:2]1=[C:3]([H:11])[C:4]([H:12])([H:13])[C@@:5]2([H:14])[N:6]([H:15])[C@@:7]12[H:16])([H:8])([H:9])[H:10]"
C        1.59613399      -0.68653765       0.90543908
C        0.47783372      -0.25632761       0.00546158
C        0.67349606       0.52963783      -1.18627173
C       -0.34851623       1.17110204      -0.06444113
C       -1.62995158       0.32537340       0.09923595
N       -1.82313743      -0.65530378      -0.94297557
C       -0.89431491      -0.96200845       0.12003525
H        1.25046129      -0.81939715       1.93371705
H        2.40534657       0.04512668       0.92087375
H        2.00857917      -1.64248642       0.57348282
H        1.60148380       1.10325136      -1.17739627
H       -0.32184781       1.45757460      -1.37764554
H       -0.09318383       1.99873649       0.58458914
H       -2.48160398       0.64828679       0.68136637
H       -1.34020761      -0.42003721      -1.80559547
H       -1.08057122      -1.83699092       0.73012472
16
Frame=8 idx=007637 GeodesicLength=0.7384616972524448 rxn_smarts="[C:1]([C@:2]12[C:3]([H:11])([H:12])[C@@:4]1([H:13])[C@@:5]1([H:14])[N:6]([H:15])[C@@:7]21[H:16])([H:8])([H:9])[H:10]>>[C:1]([C:2]1=[C:3]([H:11])[C:4]([H:12])([H:13])[C@@:5]2([H:14])[N:6]([H:15])[C@@:7]12[H:16])([H:8])([H:9])[H:10]"
C        1.60379644      -0.70166338       0.90367062
C        0.48276188      -0.25646857       0.01483162
C        0.67324556       0.54805379      -1.15995821
C       -0.36011104       1.18551628      -0.07501644
C       -1.63132581       0.32796059       0.09314245
N       -1.81865286      -0.66272792      -0.94128686
C       -0.89006864      -0.95588662       0.12687690
H        1.26611405      -0.83279179       1.93486185
H        2.42145558       0.02056561       0.91499257
H        2.00299630      -1.66159176       0.56674463
H        1.60190537       1.11900331      -1.16218072
H       -0.33134960       1.46362298      -1.40460282
H       -0.11791536       2.01652786       0.57512128
H       -2.48600708       0.64680683       0.67309325
H       -1.33685237      -0.43245897      -1.80541705
H       -1.07999245      -1.82446826       0.74512693
16
Frame=9 idx=007637 GeodesicLength=0.8307204532053789 rxn_smarts="[C:1]([C@:2]12[C:3]([H:11])([H:12])[C@@:4]1([H:13])[C@@:5]1([H:14])[N:6]([H:15])[C@@:7]21[H:16])([H:8])([H:9])[H:10]>>[C:1]([C:2]1=[C:3]([H:11])[C:4]([H:12])([H:13])[C@@:5]2([H:14])[N:6]([H:15])[C@@:7]12[H:16])([H:8])([H:9])[H:10]"
C        1.61161577      -0.71713513       0.90147633
C        0.48766376      -0.25610774       0.02485547
C        0.67281668       0.56696809      -1.13260634
C       -0.37240275       1.20038649      -0.08562335
C       -1.63294231       0.33067643       0.08686895
N       -1.81371640      -0.67031425      -0.93942491
C       -0.88583224      -0.94929503       0.13427692
H        1.28255817      -0.84694891       1.93565815
H        2.43781905      -0.00469734       0.90826280
H        1.99696370      -1.68085327       0.55899545
H        1.60204053       1.13523023      -1.14600692
H       -0.33953275       1.46832511      -1.43215470
H       -0.14386552       2.03487276       0.56539435
H       -2.49095299       0.64538314       0.66419201
H       -1.33277005      -0.44521389      -1.80492295
H       -1.07946264      -1.81127670       0.76075874
16
Frame=10 idx=007637 GeodesicLength=0.9229748059173222 rxn_smarts="[C:1]([C@:2]12[C:3]([H:11])([H:12])[C@@:4]1([H:13])[C@@:5]1([H:14])[N:6]([H:15])[C@@:7]21[H:16])([H:8])([H:9])[H:10]>>[C:1]([C:2]1=[C:3]([H:11])[C:4]([H:12])([H:13])[C@@:5]2([H:14])[N:6]([H:15])[C@@:7]12[H:16])([H:8])([H:9])[H:10]"
C        1.61958345      -0.73296835       0.89880086
C        0.49252924      -0.25520735       0.03560390
C        0.67218679       0.58642679      -1.10411552
C       -0.38542454       1.21572227      -0.09629947
C       -1.63481075       0.33352502       0.08040376
N       -1.80828854      -0.67807890      -0.93735752
C       -0.88161782      -0.94219546       0.14229254
H        1.29984185      -0.86195190       1.93604423
H        2.45441291      -0.03068597       0.90059079
H        1.99043094      -1.70024851       0.55012764
H        1.60186438       1.15197768      -1.12878146
H       -0.34622190       1.47157581      -1.46029170
H       -0.17112654       2.05379049       0.55534448
H       -2.49647021       0.64401552       0.65461111
H       -1.32788702      -0.45834033      -1.80406602
H       -1.07900224      -1.79735681       0.77709238
16
Frame=11 idx=007637 GeodesicLength=1.0152259681983724 rxn_smarts="[C:1]([C@:2]12[C:3]([H:11])([H:12])[C@@:4]1([H:13])[C@@:5]1([H:14])[N:6]([H:15])[C@@:7]21[H:16])([H:8])([H:9])[H:10]>>[C:1]([C:2]1=[C:3]([H:11])[C:4]([H:12])([H:13])[C@@:5]2([H:14])[N:6]([H:15])[C@@:7]12[H:16])([H:8])([H:9])[H:10]"
C        1.62768942      -0.74917961       0.89558034
C        0.49734663      -0.25372420       0.04716044
C        0.67132726       0.60648236      -1.07437122
C       -0.39921201       1.23153254      -0.10708982
C       -1.63694206       0.33651133       0.07373259
N       -1.80232458      -0.68604150      -0.93504735
C       -0.87743969      -0.93454462       0.15098994
H        1.31801947      -0.87790221       1.93594682
H        2.47120652      -0.05742115       0.89187355
H        1.98334361      -1.71974772       0.54001270
H        1.60134966       1.16929172      -1.11040112
H       -0.35121521       1.47325768      -1.48899114
H       -0.19980279       2.07330294       0.54489387
H       -2.50259153       0.64270585       0.64428901
H       -1.32211939      -0.47188392      -1.80279151
H       -1.07863533      -1.78263947       0.79421289
16
Frame=12 idx=007637 GeodesicLength=1.107475904976513 rxn_smarts="[C:1]([C@:2]12[C:3]([H:11])([H:12])[C@@:4]1([H:13])[C@@:5]1([H:14])[N:6]([H:15])[C@@:7]21[H:16])([H:8])([H:9])[H:10]>>[C:1]([C:2]1=[C:3]([H:11])[C:4]([H:12])([H:13])[C@@:5]2([H:14])[N:6]([H:15])[C@@:7]12[H:16])([H:8])([H:9])[H:10]"
C        1.63591965      -0.76578540       0.89174021
C        0.50210219      -0.25160841       0.05962362
C        0.67020285       0.62719430      -1.04324239
C       -0.41380199       1.24782413      -0.11804824
C       -1.63934727       0.33964021       0.06683889
N       -1.79577299      -0.69422531      -0.93244949
C       -0.87331457      -0.92629335       0.16044561
H        1.33714910      -0.89492146       1.93527696
H        2.48815958      -0.08491866       0.88199663
H        1.97564004      -1.73931003       0.52849755
H        1.60046602       1.18721832      -1.09075196
H       -0.35427831       1.47323818      -1.51821259
H       -0.23001116       2.09343374       0.53394591
H       -2.50935234       0.64145602       0.63315406
H       -1.31537049      -0.48589768      -1.80103366
H       -1.07839032      -1.76704457       0.81221888
16
Frame=13 idx=007637 GeodesicLength=1.199727511875838 rxn_smarts="[C:1]([C@:2]12[C:3]([H:11])([H:12])[C@@:4]1([H:13])[C@@:5]1([H:14])[N:6]([H:15])[C@@:7]21[H:16])([H:8])([H:9])[H:10]>>[C:1]([C:2]1=[C:3]([H:11])[C:4]([H:12])([H:13])[C@@:5]2([H:14])[N:6]([H:15])[C@@:7]12[H:16])([H:8])([H:9])[H:10]"
C        1.64425485      -0.78280187       0.88719238
C        0.50677968      -0.24880189       0.07311048
C        0.66877041       0.64863012      -1.01057816
C       -0.42923219       1.26460077      -0.12923871
C       -1.64203713       0.34291605       0.05970326
N       -1.78857345      -0.70265836      -0.92950942
C       -0.86926207      -0.91738535       0.17074883
H        1.35729263      -0.91315532       1.93392553
H        2.50522042      -0.11318801       0.87083145
H        1.96724843      -1.75888096       0.51539902
H        1.59917887       1.20580356      -1.06970724
H       -0.35513777       1.47136739      -1.54789217
H       -0.26188333       2.11420856       0.52238023
H       -2.51679098       0.64026782       0.62112147
H       -1.30752760      -0.50044397      -1.79871258
H       -1.07830077      -1.75047855       0.83122563
16
Frame=14 idx=007637 GeodesicLength=1.2919857772409744 rxn_smarts="[C:1]([C@:2]12[C:3]([H:11])([H:12])[C@@:4]1([H:13])[C@@:5]1([H:14])[N:6]([H:15])[C@@:7]21[H:16])([H:8])([H:9])[H:10]>>[C:1]([C:2]1=[C:3]([H:11])[C:4]([H:12])([H:13])[C@@:5]2([H:14])[N:6]([H:15])[C@@:7]12[H:16])([H:8])([H:9])[H:10]"
C        1.65266873      -0.80024411       0.88183220
C        0.51136020      -0.24523670       0.08776059
C        0.66697777       0.67086700      -0.97620381
C       -0.44554023       1.28186210      -0.14073730
C       -1.64502183       0.34634237       0.05230308
N       -1.78065514      -0.71137449      -0.92616059
C       -0.86530520      -0.90775576       0.18200410
H        1.37851453      -0.93277834       1.93175770
H        2.52232395      -0.14223066       0.85823312
H        1.95808421      -1.77838823       0.50049695
H        1.59744846       1.22509367      -1.04712530
H       -0.35347403       1.46747336      -1.57793603
H       -0.29556746       2.13565540       0.51004649
H       -2.52494873       0.63914250       0.60809131
H       -1.29845844      -0.51559662      -1.79573067
H       -1.07840679      -1.73283148       0.85136817
16
Frame=15 idx=007637 GeodesicLength=1.3842569586705311 rxn_smarts="[C:1]([C@:2]12[C:3]([H:11])([H:12])[C@@:4]1([H:13])[C@@:5]1([H:14])[N:6]([H:15])[C@@:7]21[H:16])([H:8])([H:9])[H:10]>>[C:1]([C:2]1=[C:3]([H:11])[C:4]([H:12])([H:13])[C@@:5]2([H:14])[N:6]([H:15])[C@@:7]12[H:16])([H:8])([H:9])[H:10]"
C        1.66112421      -0.81812268       0.87553692
C        0.51582211      -0.24083640       0.10373746
C        0.66476094       0.69399041      -0.93991955
C       -0.46276003       1.29959996      -0.15263488
C       -1.64830828       0.34992082       0.04461456
N       -1.77193738      -0.72041189      -0.92232130
C       -0.86147091      -0.89733166       0.19433088
H        1.40087546      -0.95399667       1.92860717
H        2.53938464      -0.17203121       0.84404314
H        1.94804949      -1.79773338       0.48353101
H        1.59522883       1.24512954      -1.02285243
H       -0.34891154       1.46136055      -1.60821049
H       -0.33122597       2.15780236       0.49675560
H       -2.53386433       0.63807890       0.59395338
H       -1.28801261      -0.53143889      -1.79196898
H       -1.07875465      -1.71397977       0.87279751
16
Frame=16 idx=007637 GeodesicLength=1.476551046935869 rxn_smarts="[C:1]([C@:2]12[C:3]([H:11])([H:12])[C@@:4]1([H:13])[C@@:5]1([H:14])[N:6]([H:15])[C@@:7]21[H:16])([H:8])([H:9])[H:10]>>[C:1]([C:2]1=[C:3]([H:11])[C:4]([H:12])([H:13])[C@@:5]2([H:14])[N:6]([H:15])[C@@:7]12[H:16])([H:8])([H:9])[H:10]"
C        1.66957031      -0.83644278       0.86815884
C        0.52014084      -0.23551398       0.12123387
C        0.66204184       0.71809790      -0.90149323
C       -0.48091962       1.31779582      -0.16503808
C       -1.65189907       0.35364956       0.03661074
N       -1.76232456      -0.72981679      -0.91789129
C       -0.85779044      -0.88603007       0.20786828
H        1.42443255      -0.97704907       1.92426586
H        2.55629614      -0.20255913       0.82807853
H        1.93702254      -1.81678867       0.46419277
H        1.59246472       1.26594969      -0.99671613
H       -0.34100876       1.45280625      -1.63852760
H       -0.36903899       2.18067703       0.48227115
H       -2.54357522       0.63707254       0.57857835
H       -1.27601322      -0.54806895      -1.78728102
H       -1.07939906      -1.69377935       0.89568897
