7
Frame=0 idx=005097 GeodesicLength=0.0 rxn_smarts="[O:1]([C:2]([C:3]#[N:4])([H:6])[H:7])[H:5]>>[C+:2](=[C:3]=[N-:4])[H:6].[O:1]([H:5])[H:7]"
O       -1.27808087       0.32931247      -0.00786441
C        0.05239767      -0.73544390      -0.02639361
C        1.20498519       0.08315517      -0.05577725
N        2.13595674       0.76358902       0.00625723
H       -0.92722602       1.19993707       0.22567503
H       -0.13868304      -1.29709751      -0.93241123
H       -1.04934966      -0.34345232       0.79051422
7
Frame=1 idx=005097 GeodesicLength=0.052563806127609344 rxn_smarts="[O:1]([C:2]([C:3]#[N:4])([H:6])[H:7])[H:5]>>[C+:2](=[C:3]=[N-:4])[H:6].[O:1]([H:5])[H:7]"
O       -1.27359738       0.32512068      -0.01043987
C        0.04594661      -0.72990683      -0.03089568
C        1.20481284       0.08244871      -0.05404529
N        2.13631811       0.76174151       0.00973142
H       -0.93006845       1.20014002       0.21657580
H       -0.14005027      -1.29360341      -0.93677561
H       -1.04336147      -0.34594068       0.80584923
7
Frame=2 idx=005097 GeodesicLength=0.10513542318005209 rxn_smarts="[O:1]([C:2]([C:3]#[N:4])([H:6])[H:7])[H:5]>>[C+:2](=[C:3]=[N-:4])[H:6].[O:1]([H:5])[H:7]"
O       -1.26918239       0.32117652      -0.01321295
C        0.03954422      -0.72435748      -0.03525476
C        1.20458214       0.08178781      -0.05238994
N        2.13667623       0.75986273       0.01314392
H       -0.93294057       1.20031475       0.20779343
H       -0.14142355      -1.29020851      -0.94088841
H       -1.03725609      -0.34857582       0.82080872
7
Frame=3 idx=005097 GeodesicLength=0.1577034039227529 rxn_smarts="[O:1]([C:2]([C:3]#[N:4])([H:6])[H:7])[H:5]>>[C+:2](=[C:3]=[N-:4])[H:6].[O:1]([H:5])[H:7]"
O       -1.26484537       0.31746104      -0.01617964
C        0.03318780      -0.71879571      -0.03948210
C        1.20428838       0.08118511      -0.05083097
N        2.13703473       0.75793916       0.01652951
H       -0.93584699       1.20046924       0.19928998
H       -0.14281012      -1.28690666      -0.94476628
H       -1.03100842      -0.35135218       0.83543950
7
Frame=4 idx=005097 GeodesicLength=0.21026428910928283 rxn_smarts="[O:1]([C:2]([C:3]#[N:4])([H:6])[H:7])[H:5]>>[C+:2](=[C:3]=[N-:4])[H:6].[O:1]([H:5])[H:7]"
O       -1.26054993       0.31400144      -0.01937660
C        0.02687612      -0.71322052      -0.04357123
C        1.20392912       0.08061677      -0.04931796
N        2.13735419       0.75599845       0.01982850
H       -0.93875371       1.20061642       0.19111435
H       -0.14419214      -1.28371387      -0.94839269
H       -1.02466366      -0.35429870       0.84971562
7
Frame=5 idx=005097 GeodesicLength=0.26283495062722073 rxn_smarts="[O:1]([C:2]([C:3]#[N:4])([H:6])[H:7])[H:5]>>[C+:2](=[C:3]=[N-:4])[H:6].[O:1]([H:5])[H:7]"
O       -1.25632102       0.31078823      -0.02280765
C        0.02060182      -0.70763714      -0.04752677
C        1.20352289       0.08008881      -0.04785243
N        2.13766989       0.75404337       0.02305276
H       -0.94167227       1.20076948       0.18323752
H       -0.14558065      -1.28062374      -0.95178060
H       -1.01822066      -0.35742900       0.86367717
7
Frame=6 idx=005097 GeodesicLength=0.31540660783382823 rxn_smarts="[O:1]([C:2]([C:3]#[N:4])([H:6])[H:7])[H:5]>>[C+:2](=[C:3]=[N-:4])[H:6].[O:1]([H:5])[H:7]"
O       -1.25215585       0.30781445      -0.02647499
C        0.01436273      -0.70204046      -0.05135799
C        1.20306059       0.07960520      -0.04644674
N        2.13797147       0.75206724       0.02622299
H       -0.94459871       1.20093431       0.17564005
H       -0.14697738      -1.27763639      -0.95493431
H       -1.01166285      -0.36074436       0.87735098
7
Frame=7 idx=005097 GeodesicLength=0.36798648786626553 rxn_smarts="[O:1]([C:2]([C:3]#[N:4])([H:6])[H:7])[H:5]>>[C+:2](=[C:3]=[N-:4])[H:6].[O:1]([H:5])[H:7]"
O       -1.24805926       0.30507074      -0.03037788
C        0.00815539      -0.69642834      -0.05507511
C        1.20253940       0.07917594      -0.04513406
N        2.13826037       0.75006386       0.02938050
H       -0.94753588       1.20112000       0.16829292
H       -0.14839460      -1.27475440      -0.95785871
H       -1.00496543      -0.36424779       0.89077233
7
Frame=8 idx=005097 GeodesicLength=0.42056562493336264 rxn_smarts="[O:1]([C:2]([C:3]#[N:4])([H:6])[H:7])[H:5]>>[C+:2](=[C:3]=[N-:4])[H:6].[O:1]([H:5])[H:7]"
O       -1.24403529       0.30255294      -0.03451731
C        0.00197634      -0.69079719      -0.05868264
C        1.20195591       0.07880995      -0.04392584
N        2.13854288       0.74802513       0.03254210
H       -0.95048848       1.20133342       0.16117742
H       -0.14983464      -1.27197823      -0.96055754
H       -0.99811672      -0.36794601       0.90396380
7
Frame=9 idx=005097 GeodesicLength=0.47317022847834106 rxn_smarts="[O:1]([C:2]([C:3]#[N:4])([H:6])[H:7])[H:5]>>[C+:2](=[C:3]=[N-:4])[H:6].[O:1]([H:5])[H:7]"
O       -1.24008793       0.30025556      -0.03890787
C       -0.00418197      -0.68514457      -0.06218425
C        1.20130980       0.07850515      -0.04281518
N        2.13881659       0.74595068       0.03571087
H       -0.95345422       1.20158662       0.15428128
H       -0.15129966      -1.26930306      -0.96303323
H       -0.99110262      -0.37185037       0.91694838
7
Frame=10 idx=005097 GeodesicLength=0.5258049050638899 rxn_smarts="[O:1]([C:2]([C:3]#[N:4])([H:6])[H:7])[H:5]>>[C+:2](=[C:3]=[N-:4])[H:6].[O:1]([H:5])[H:7]"
O       -1.23622248       0.29817520      -0.04355153
C       -0.01032776      -0.67946873      -0.06558838
C        1.20060594       0.07827117      -0.04183052
N        2.13911041       0.74383819       0.03892865
H       -0.95646256       1.20188072       0.14758240
H       -0.15280968      -1.26674192      -0.96529809
H       -0.98389387      -0.37595464       0.92975746
7
Frame=11 idx=005097 GeodesicLength=0.5783416316741706 rxn_smarts="[O:1]([C:2]([C:3]#[N:4])([H:6])[H:7])[H:5]>>[C+:2](=[C:3]=[N-:4])[H:6].[O:1]([H:5])[H:7]"
O       -1.23243093       0.29631496      -0.04841812
C       -0.01643692      -0.67377091      -0.06889492
C        1.19983795       0.07812395      -0.04094798
N        2.13937696       0.74165397       0.04216325
H       -0.95948175       1.20218572       0.14104605
H       -0.15433632      -1.26424643      -0.96735011
H       -0.97652898      -0.38026127       0.94240184
7
Frame=12 idx=005097 GeodesicLength=0.6309662335339423 rxn_smarts="[O:1]([C:2]([C:3]#[N:4])([H:6])[H:7])[H:5]>>[C+:2](=[C:3]=[N-:4])[H:6].[O:1]([H:5])[H:7]"
O       -1.22868737       0.29469081      -0.05360102
C       -0.02255296      -0.66804049      -0.07210112
C        1.19898396       0.07802874      -0.04016606
N        2.13960744       0.73945661       0.04541760
H       -0.96249321       1.20257213       0.13474939
H       -0.15589878      -1.26188591      -0.96914695
H       -0.96895909      -0.38482189       0.95484817
7
Frame=13 idx=005097 GeodesicLength=0.6836611003947283 rxn_smarts="[O:1]([C:2]([C:3]#[N:4])([H:6])[H:7])[H:5]>>[C+:2](=[C:3]=[N-:4])[H:6].[O:1]([H:5])[H:7]"
O       -1.22502611       0.29329365      -0.05909333
C       -0.02866133      -0.66229198      -0.07520959
C        1.19809015       0.07801478      -0.03949710
N        2.13986752       0.73721996       0.04868642
H       -0.96554827       1.20307715       0.12866809
H       -0.15747508      -1.25966472      -0.97072747
H       -0.96124687      -0.38964884       0.96717299
7
Frame=14 idx=005097 GeodesicLength=0.736198619691623 rxn_smarts="[O:1]([C:2]([C:3]#[N:4])([H:6])[H:7])[H:5]>>[C+:2](=[C:3]=[N-:4])[H:6].[O:1]([H:5])[H:7]"
O       -1.22142713       0.29215254      -0.06487094
C       -0.03476974      -0.65647712      -0.07821870
C        1.19711504       0.07807856      -0.03892498
N        2.14010144       0.73492437       0.05199466
H       -0.96862162       1.20351970       0.12278724
H       -0.15910629      -1.25753193      -0.97204500
H       -0.95329170      -0.39466612       0.97927773
7
Frame=15 idx=005097 GeodesicLength=0.7888898762205099 rxn_smarts="[O:1]([C:2]([C:3]#[N:4])([H:6])[H:7])[H:5]>>[C+:2](=[C:3]=[N-:4])[H:6].[O:1]([H:5])[H:7]"
O       -1.21789104       0.29126948      -0.07100511
C       -0.04088192      -0.65067378      -0.08112413
C        1.19609286       0.07819988      -0.03841382
N        2.14034150       0.73261709       0.05526015
H       -0.97172572       1.20417875       0.11713443
H       -0.16070465      -1.25557477      -0.97317356
H       -0.94523103      -0.40001665       0.99132203
7
Frame=16 idx=005097 GeodesicLength=0.8414713738499497 rxn_smarts="[O:1]([C:2]([C:3]#[N:4])([H:6])[H:7])[H:5]>>[C+:2](=[C:3]=[N-:4])[H:6].[O:1]([H:5])[H:7]"
O       -1.21439228       0.29060857      -0.07748636
C       -0.04701486      -0.64474184      -0.08392854
C        1.19498052       0.07841722      -0.03799824
N        2.14053589       0.73024195       0.05856542
H       -0.97480509       1.20475210       0.11169458
H       -0.16241049      -1.25366612      -0.97393419
H       -0.93689369      -0.40561188       1.00308732
