16
Frame=0 idx=010977 GeodesicLength=0.0 rxn_smarts="[C:1]([C@@:2]1([H:11])[N:3]2[C:4]([H:12])([H:13])[C:5]1([O:6][H:14])[C:7]2([H:15])[H:16])([H:8])([H:9])[H:10]>>[C:1]([C:2]([N:3]1[C:4]([H:12])([H:13])[C:5](=[O:6])[C:7]1([H:15])[H:16])([H:11])[H:14])([H:8])([H:9])[H:10]"
C        1.81663198       0.15210930       0.68968479
C        0.73292278       0.03334332      -0.34893715
N       -0.19932530      -1.13217638      -0.23261381
C       -1.00504776      -0.48345964       0.86660946
C       -1.02977015       0.63044992      -0.18654175
O       -1.21877531       1.92409607      -0.18351280
C       -1.16887008      -0.50786527      -1.20504444
H        2.40367410      -0.76986642       0.71413702
H        2.48889691       0.97365185       0.43898336
H        1.43545865       0.33152978       1.69542296
H        1.13100212       0.09018217      -1.36445913
H       -0.47943556      -0.33220873       1.80543896
H       -1.96522663      -0.97320174       1.02970548
H       -0.02340134       1.43604147      -0.29588780
H       -0.77892465      -0.36988659      -2.21286050
H       -2.13980975      -1.00273915      -1.21012462
16
Frame=1 idx=010977 GeodesicLength=0.10058269620118199 rxn_smarts="[C:1]([C@@:2]1([H:11])[N:3]2[C:4]([H:12])([H:13])[C:5]1([O:6][H:14])[C:7]2([H:15])[H:16])([H:8])([H:9])[H:10]>>[C:1]([C:2]([N:3]1[C:4]([H:12])([H:13])[C:5](=[O:6])[C:7]1([H:15])[H:16])([H:11])[H:14])([H:8])([H:9])[H:10]"
C        1.82199716       0.14673526       0.68911447
C        0.73479405       0.04049965      -0.34805747
N       -0.19777337      -1.12467830      -0.23080910
C       -1.00759685      -0.48146324       0.86748296
C       -1.04763767       0.62898167      -0.18828226
O       -1.24019974       1.92059026      -0.18744138
C       -1.17007086      -0.51049587      -1.20589968
H        2.40317268      -0.77891663       0.71008985
H        2.50004366       0.96429567       0.44091016
H        1.44253240       0.32392561       1.69592014
H        1.13752499       0.08782384      -1.36246551
H       -0.48579554      -0.31160399       1.80565866
H       -1.96047517      -0.98167949       1.04096881
H       -0.01512307       1.45219937      -0.29403610
H       -0.77955860      -0.36108801      -2.21219376
H       -2.13583406      -1.01512580      -1.22095979
16
Frame=2 idx=010977 GeodesicLength=0.2010513099320212 rxn_smarts="[C:1]([C@@:2]1([H:11])[N:3]2[C:4]([H:12])([H:13])[C:5]1([O:6][H:14])[C:7]2([H:15])[H:16])([H:8])([H:9])[H:10]>>[C:1]([C:2]([N:3]1[C:4]([H:12])([H:13])[C:5](=[O:6])[C:7]1([H:15])[H:16])([H:11])[H:14])([H:8])([H:9])[H:10]"
C        1.82727058       0.14128771       0.68852809
C        0.73659694       0.04787836      -0.34714362
N       -0.19625546      -1.11700515      -0.22899253
C       -1.01014759      -0.47941485       0.86841923
C       -1.06602763       0.62721659      -0.19002469
O       -1.26141197       1.91689692      -0.19154397
C       -1.17128891      -0.51318831      -1.20676181
H        2.40251032      -0.78802140       0.70586479
H        2.51112315       0.95480492       0.44291329
H        1.44950099       0.31610846       1.69641417
H        1.14396869       0.08553669      -1.36035395
H       -0.49227224      -0.29084138       1.80562529
H       -1.95536827      -0.99017231       1.05253842
H       -0.00632573       1.46891572      -0.29213238
H       -0.78032795      -0.35224100      -2.21143553
H       -2.13154493      -1.02776097      -1.23191481
16
Frame=3 idx=010977 GeodesicLength=0.3014451011722834 rxn_smarts="[C:1]([C@@:2]1([H:11])[N:3]2[C:4]([H:12])([H:13])[C:5]1([O:6][H:14])[C:7]2([H:15])[H:16])([H:8])([H:9])[H:10]>>[C:1]([C:2]([N:3]1[C:4]([H:12])([H:13])[C:5](=[O:6])[C:7]1([H:15])[H:16])([H:11])[H:14])([H:8])([H:9])[H:10]"
C        1.83243938       0.13577139       0.68792353
C        0.73832148       0.05548795      -0.34619312
N       -0.19477788      -1.10915248      -0.22716635
C       -1.01270423      -0.47731809       0.86942053
C       -1.08497714       0.62512419      -0.19176345
O       -1.28236526       1.91300815      -0.19581635
C       -1.17252937      -0.51594789      -1.20763077
H        2.40166793      -0.79717640       0.70146516
H        2.52212950       0.94517508       0.44498678
H        1.45634763       0.30809126       1.69689890
H        1.15031687       0.08333806      -1.35812041
H       -0.49887306      -0.26993799       1.80533173
H       -1.94988736      -0.99868542       1.06442543
H        0.00306443       1.48622481      -0.29018511
H       -0.78124471      -0.34334360      -2.21058267
H       -2.12692821      -1.04065903      -1.24299382
16
Frame=4 idx=010977 GeodesicLength=0.4017976599725443 rxn_smarts="[C:1]([C@@:2]1([H:11])[N:3]2[C:4]([H:12])([H:13])[C:5]1([O:6][H:14])[C:7]2([H:15])[H:16])([H:8])([H:9])[H:10]>>[C:1]([C:2]([N:3]1[C:4]([H:12])([H:13])[C:5](=[O:6])[C:7]1([H:15])[H:16])([H:11])[H:14])([H:8])([H:9])[H:10]"
C        1.83748936       0.13019075       0.68729828
C        0.73995732       0.06333584      -0.34520292
N       -0.19334849      -1.10111547      -0.22533247
C       -1.01527232      -0.47517599       0.87048917
C       -1.10452478       0.62267177      -0.19349269
O       -1.30301475       1.90891475      -0.20025341
C       -1.17379846      -0.51877969      -1.20850618
H        2.40062551      -0.80637643       0.69689487
H        2.53305557       0.93540068       0.44712330
H        1.46305562       0.29988784       1.69736806
H        1.15655186       0.08124566      -1.35576070
H       -0.50560771      -0.24891088       1.80477024
H       -1.94400932      -1.00722416       1.07664206
H        0.01312838       1.50416145      -0.28820320
H       -0.78232179      -0.33439318      -2.20963141
H       -2.12196600      -1.05383296      -1.25420300
16
Frame=5 idx=010977 GeodesicLength=0.5021162512997902 rxn_smarts="[C:1]([C@@:2]1([H:11])[N:3]2[C:4]([H:12])([H:13])[C:5]1([O:6][H:14])[C:7]2([H:15])[H:16])([H:8])([H:9])[H:10]>>[C:1]([C:2]([N:3]1[C:4]([H:12])([H:13])[C:5](=[O:6])[C:7]1([H:15])[H:16])([H:11])[H:14])([H:8])([H:9])[H:10]"
C        1.84240702       0.12455124       0.68665040
C        0.74149346       0.07142984      -0.34417032
N       -0.19197435      -1.09288944      -0.22349346
C       -1.01785830      -0.47299305       0.87162587
C       -1.12470955       0.61982618      -0.19520614
O       -1.32331335       1.90460641      -0.20484941
C       -1.17510173      -0.52168922      -1.20938833
H        2.39936324      -0.81561707       0.69215945
H        2.54389597       0.92547463       0.44931481
H        1.46960795       0.29151534       1.69781550
H        1.16265526       0.07928181      -1.35327042
H       -0.51248772      -0.22777821       1.80393495
H       -1.93770966      -1.01579250       1.08919841
H        0.02394956       1.52275854      -0.28619604
H       -0.78357152      -0.32538633      -2.20857850
H       -2.11664629      -1.06729817      -1.26554677
16
Frame=6 idx=010977 GeodesicLength=0.6024482676710106 rxn_smarts="[C:1]([C@@:2]1([H:11])[N:3]2[C:4]([H:12])([H:13])[C:5]1([O:6][H:14])[C:7]2([H:15])[H:16])([H:8])([H:9])[H:10]>>[C:1]([C:2]([N:3]1[C:4]([H:12])([H:13])[C:5](=[O:6])[C:7]1([H:15])[H:16])([H:11])[H:14])([H:8])([H:9])[H:10]"
C        1.84717697       0.11885712       0.68597659
C        0.74291592       0.07978119      -0.34309033
N       -0.19066496      -1.08446701      -0.22165127
C       -1.02047059      -0.47077326       0.87283259
C       -1.14558294       0.61654579      -0.19689724
O       -1.34320926       1.90006112      -0.20959668
C       -1.17644703      -0.52468159      -1.21027691
H        2.39785719      -0.82489428       0.68725997
H        2.55464311       0.91538941       0.45155271
H        1.47598824       0.28298774       1.69823527
H        1.16860587       0.07746967      -1.35064571
H       -0.51952629      -0.20655145       1.80281915
H       -1.93096499      -1.02439405       1.10210923
H        0.03562986       1.54206116      -0.28417325
H       -0.78500966      -0.31631844      -2.20741920
H       -2.11094143      -1.08107310      -1.27703490
16
Frame=7 idx=010977 GeodesicLength=0.7028013257066936 rxn_smarts="[C:1]([C@@:2]1([H:11])[N:3]2[C:4]([H:12])([H:13])[C:5]1([O:6][H:14])[C:7]2([H:15])[H:16])([H:8])([H:9])[H:10]>>[C:1]([C:2]([N:3]1[C:4]([H:12])([H:13])[C:5](=[O:6])[C:7]1([H:15])[H:16])([H:11])[H:14])([H:8])([H:9])[H:10]"
C        1.85178366       0.11311355       0.68527409
C        0.74421134       0.08840039      -0.34195814
N       -0.18942941      -1.07584137      -0.21980857
C       -1.02312049      -0.46852233       0.87410836
C       -1.16719311       0.61278850      -0.19855968
O       -1.36265428       1.89525610      -0.21448819
C       -1.17784024      -0.52776233      -1.21117323
H        2.39608461      -0.83420328       0.68219946
H        2.56529057       0.90513665       0.45382746
H        1.48218115       0.27432214       1.69862206
H        1.17438314       0.07583501      -1.34788268
H       -0.52673572      -0.18524134       1.80142004
H       -1.92374881      -1.03303115       1.11538695
H        0.04827203       1.56210780      -0.28214162
H       -0.78665088      -0.30718558      -2.20614942
H       -2.10483355      -1.09517275      -1.28867688
16
Frame=8 idx=010977 GeodesicLength=0.8031979509045557 rxn_smarts="[C:1]([C@@:2]1([H:11])[N:3]2[C:4]([H:12])([H:13])[C:5]1([O:6][H:14])[C:7]2([H:15])[H:16])([H:8])([H:9])[H:10]>>[C:1]([C:2]([N:3]1[C:4]([H:12])([H:13])[C:5](=[O:6])[C:7]1([H:15])[H:16])([H:11])[H:14])([H:8])([H:9])[H:10]"
C        1.85621016       0.10732670       0.68453951
C        0.74536375       0.09730009      -0.34076787
N       -0.18827938      -1.06700359      -0.21796608
C       -1.02581946      -0.46624414       0.87545538
C       -1.18959478       0.60850719      -0.20018519
O       -1.38159655       1.89016357      -0.21951381
C       -1.17929106      -0.53093806      -1.21207597
H        2.39401970      -0.84353913       0.67697972
H        2.57583053       0.89470604       0.45612728
H        1.48816988       0.26553695       1.69896972
H        1.17996256       0.07440507      -1.34497750
H       -0.53413413      -0.16385971       1.79973118
H       -1.91603407      -1.04170926       1.12904531
H        0.06199652       1.58294283      -0.28011370
H       -0.78851293      -0.29798202      -2.20476219
H       -2.09829076      -1.10961253      -1.30048581
16
Frame=9 idx=010977 GeodesicLength=0.9036328047568348 rxn_smarts="[C:1]([C@@:2]1([H:11])[N:3]2[C:4]([H:12])([H:13])[C:5]1([O:6][H:14])[C:7]2([H:15])[H:16])([H:8])([H:9])[H:10]>>[C:1]([C:2]([N:3]1[C:4]([H:12])([H:13])[C:5](=[O:6])[C:7]1([H:15])[H:16])([H:11])[H:14])([H:8])([H:9])[H:10]"
C        1.86043820       0.10150268       0.68376933
C        0.74635749       0.10649348      -0.33951299
N       -0.18722814      -1.05794280      -0.21612561
C       -1.02858313      -0.46394111       0.87687235
C       -1.21284955       0.60365121      -0.20176587
O       -1.39996786       1.88473610      -0.22466461
C       -1.18080766      -0.53421282      -1.21298510
H        2.39163533      -0.85289739       0.67160336
H        2.58625622       0.88408828       0.45844047
H        1.49393673       0.25665347       1.69927221
H        1.18531959       0.07321164      -1.34192580
H       -0.54173766      -0.14241573       1.79774857
H       -1.90778977      -1.05043350       1.14309360
H        0.07692467       1.60461754      -0.27809739
H       -0.79061311      -0.28870268      -2.20325132
H       -2.09129134      -1.12440836      -1.31247120
16
Frame=10 idx=010977 GeodesicLength=1.0041149901804864 rxn_smarts="[C:1]([C@@:2]1([H:11])[N:3]2[C:4]([H:12])([H:13])[C:5]1([O:6][H:14])[C:7]2([H:15])[H:16])([H:8])([H:9])[H:10]>>[C:1]([C:2]([N:3]1[C:4]([H:12])([H:13])[C:5](=[O:6])[C:7]1([H:15])[H:16])([H:11])[H:14])([H:8])([H:9])[H:10]"
C        1.86445171       0.09564532       0.68296019
C        0.74717594       0.11599791      -0.33818647
N       -0.18628663      -1.04864668      -0.21428964
C       -1.03142424      -0.46161738       0.87835869
C       -1.23701349       0.59816704      -0.20329442
O       -1.41773710       1.87893392      -0.22992787
C       -1.18239812      -0.53759134      -1.21390049
H        2.38890450      -0.86227510       0.66606896
H        2.59656034       0.87326918       0.46075693
H        1.49946803       0.24768453       1.69952556
H        1.19043043       0.07228692      -1.33872508
H       -0.54957006      -0.12090848       1.79546649
H       -1.89898655      -1.05920165       1.15754843
H        0.09319677       1.62717346      -0.27610437
H       -0.79297300      -0.27934080      -2.20160936
H       -2.08379852      -1.13957684      -1.32464754
16
Frame=11 idx=010977 GeodesicLength=1.1046399020788031 rxn_smarts="[C:1]([C@@:2]1([H:11])[N:3]2[C:4]([H:12])([H:13])[C:5]1([O:6][H:14])[C:7]2([H:15])[H:16])([H:8])([H:9])[H:10]>>[C:1]([C:2]([N:3]1[C:4]([H:12])([H:13])[C:5](=[O:6])[C:7]1([H:15])[H:16])([H:11])[H:14])([H:8])([H:9])[H:10]"
C        1.86823403       0.08976158       0.68210815
C        0.74780202       0.12583421      -0.33678022
N       -0.18546798      -1.03909941      -0.21245837
C       -1.03435909      -0.45927472       0.87991445
C       -1.26214880       0.59199580      -0.20476017
O       -1.43485939       1.87269663      -0.23528996
C       -1.18407387      -0.54107728      -1.21481969
H        2.38579709      -0.87166883       0.66037520
H        2.60673895       0.86223584       0.46306429
H        1.50475120       0.23864942       1.69972503
H        1.19526900       0.07166653      -1.33537236
H       -0.55765067      -0.09933932       1.79288220
H       -1.88960516      -1.06801569       1.17241746
H        0.11096310       1.65065620      -0.27414927
H       -0.79561208      -0.26988949      -2.19982739
H       -2.07577834      -1.15513148      -1.33702935
16
Frame=12 idx=010977 GeodesicLength=1.205182146166082 rxn_smarts="[C:1]([C@@:2]1([H:11])[N:3]2[C:4]([H:12])([H:13])[C:5]1([O:6][H:14])[C:7]2([H:15])[H:16])([H:8])([H:9])[H:10]>>[C:1]([C:2]([N:3]1[C:4]([H:12])([H:13])[C:5](=[O:6])[C:7]1([H:15])[H:16])([H:11])[H:14])([H:8])([H:9])[H:10]"
C        1.87176705       0.08385821       0.68121008
C        0.74822061       0.13601986      -0.33528606
N       -0.18478628      -1.02928553      -0.21063455
C       -1.03740356      -0.45691538       0.88153779
C       -1.28831472       0.58507604      -0.20615544
O       -1.45129375       1.86595640      -0.24073141
C       -1.18584456      -0.54467132      -1.21574078
H        2.38228428      -0.88107331       0.65452214
H        2.61678304       0.85097602       0.46535062
H        1.50977079       0.22956623       1.69986661
H        1.19981089       0.07138511      -1.33186534
H       -0.56600552      -0.07771202       1.78998685
H       -1.87961856      -1.07686871       1.18771358
H        0.13037923       1.67511082      -0.27224974
H       -0.79855308      -0.26033972      -2.19789604
H       -2.06719587      -1.17108269      -1.34962833
16
Frame=13 idx=010977 GeodesicLength=1.305697642145432 rxn_smarts="[C:1]([C@@:2]1([H:11])[N:3]2[C:4]([H:12])([H:13])[C:5]1([O:6][H:14])[C:7]2([H:15])[H:16])([H:8])([H:9])[H:10]>>[C:1]([C:2]([N:3]1[C:4]([H:12])([H:13])[C:5](=[O:6])[C:7]1([H:15])[H:16])([H:11])[H:14])([H:8])([H:9])[H:10]"
C        1.87503410       0.07794071       0.68026302
C        0.74841745       0.14657608      -0.33369577
N       -0.18425609      -1.01918626      -0.20882049
C       -1.04057703      -0.45453888       0.88322468
C       -1.31556551       0.57734728      -0.20747077
O       -1.46701430       1.85863513      -0.24623275
C       -1.18772065      -0.54837233      -1.21666123
H        2.37833401      -0.89048624       0.64851089
H        2.62668828       0.83947443       0.46760522
H        1.51451149       0.22045416       1.69994612
H        1.20403274       0.07147986      -1.32820246
H       -0.57466011      -0.05602637       1.78677523
H       -1.86899409      -1.08575254       1.20344536
H        0.15160524       1.70057444      -0.27042508
H       -0.80181999      -0.25068335      -2.19580492
H       -2.05801555      -1.18743611      -1.36245704
16
Frame=14 idx=010977 GeodesicLength=1.4061623996539572 rxn_smarts="[C:1]([C@@:2]1([H:11])[N:3]2[C:4]([H:12])([H:13])[C:5]1([O:6][H:14])[C:7]2([H:15])[H:16])([H:8])([H:9])[H:10]>>[C:1]([C:2]([N:3]1[C:4]([H:12])([H:13])[C:5](=[O:6])[C:7]1([H:15])[H:16])([H:11])[H:14])([H:8])([H:9])[H:10]"
C        1.87801651       0.07201603       0.67926377
C        0.74837853       0.15752313      -0.33200049
N       -0.18389317      -1.00878193      -0.20701900
C       -1.04389780      -0.45214502       0.88497205
C       -1.34395485       0.56873963      -0.20869501
O       -1.48200427       1.85064254      -0.25176830
C       -1.18971573      -0.55217889      -1.21757608
H        2.37391382      -0.89990241       0.64234137
H        2.63644616       0.82771582       0.46981535
H        1.51895744       0.21133195       1.69995971
H        1.20790975       0.07198758      -1.32438281
H       -0.58364427      -0.03428191       1.78323711
H       -1.85770335      -1.09465166       1.21962325
H        0.17482142       1.72708576      -0.26869835
H       -0.80543954      -0.24091114      -2.19354155
H       -2.04819065      -1.20418949      -1.37553101
16
Frame=15 idx=010977 GeodesicLength=1.5065374001031624 rxn_smarts="[C:1]([C@@:2]1([H:11])[N:3]2[C:4]([H:12])([H:13])[C:5]1([O:6][H:14])[C:7]2([H:15])[H:16])([H:8])([H:9])[H:10]>>[C:1]([C:2]([N:3]1[C:4]([H:12])([H:13])[C:5](=[O:6])[C:7]1([H:15])[H:16])([H:11])[H:14])([H:8])([H:9])[H:10]"
C        1.88069766       0.06609088       0.67821065
C        0.74809329       0.16888377      -0.33019082
N       -0.18371171      -0.99804998      -0.20523351
C       -1.04738591      -0.44973222       0.88677381
C       -1.37352392       0.55918558      -0.20981730
O       -1.49627336       1.84187786      -0.25730791
C       -1.19184116      -0.55608608      -1.21848064
H        2.36899046      -0.90931870       0.63601842
H        2.64605342       0.81568175       0.47196935
H        1.52309288       0.20222246       1.69990405
H        1.21142135       0.07294645      -1.32040536
H       -0.59298622      -0.01247715       1.77936403
H       -1.84571608      -1.10355069       1.23625137
H        0.20021248       1.75467037      -0.26710105
H       -0.80943793      -0.23101414      -2.19109326
H       -2.03768524      -1.22133017      -1.38886183
16
Frame=16 idx=010977 GeodesicLength=1.606786924822067 rxn_smarts="[C:1]([C@@:2]1([H:11])[N:3]2[C:4]([H:12])([H:13])[C:5]1([O:6][H:14])[C:7]2([H:15])[H:16])([H:8])([H:9])[H:10]>>[C:1]([C:2]([N:3]1[C:4]([H:12])([H:13])[C:5](=[O:6])[C:7]1([H:15])[H:16])([H:11])[H:14])([H:8])([H:9])[H:10]"
C        1.88306248       0.06017313       0.67710219
C        0.74755417       0.18068107      -0.32825772
N       -0.18372595      -0.98696615      -0.20346808
C       -1.05106037      -0.44729787       0.88862335
C       -1.40430465       0.54861474      -0.21082589
O       -1.50984890       1.83222570      -0.26281327
C       -1.19410926      -0.56008607      -1.21936804
H        2.36352957      -0.91873218       0.62954730
H        2.65550740       0.80335401       0.47405526
H        1.52690366       0.19314972       1.69977639
H        1.21454888       0.07439389      -1.31627039
H       -0.60271543       0.00938447       1.77514532
H       -1.83301225      -1.11242244       1.25333004
H        0.22797021       1.78334929      -0.26567157
H       -0.81384218      -0.22098153      -2.18844596
H       -2.02645737      -1.23883977      -1.40245894
