16
Frame=0 idx=002083 GeodesicLength=0.0 rxn_smarts="[C:1]([C:2]([C:3]([H:11])([H:12])[H:13])([C:4]([C:5](=[O:6])[H:16])([H:14])[H:15])[H:10])([H:7])([H:8])[H:9]>>[C:1]([C:2]([C:3]([H:11])([H:12])[H:13])([O:6][C:5](=[C:4]([H:14])[H:15])[H:16])[H:10])([H:7])([H:8])[H:9]"
C       -1.16702267      -0.96662752      -0.60707320
C       -0.52896012       0.35536760      -0.65200478
C       -1.01601062       1.46929439       0.19024520
C        1.43512668      -0.15054811       1.14727972
C        1.89342625      -0.86123762       0.06404187
O        1.56978812      -0.64283202      -1.13428086
H       -2.01661448      -0.92855404      -1.30597851
H       -1.53183508      -1.22916784       0.38312729
H       -0.48284765      -1.72135339      -0.99282862
H       -0.10039706       0.64090276      -1.60057891
H       -0.31603862       2.30178445       0.23193528
H       -1.91602404       1.84605374      -0.32264704
H       -1.29346046       1.15572686       1.19370223
H        1.21941179       0.89771667       1.00162301
H        1.66129386      -0.46908573       2.15784847
H        2.59016417      -1.69744015       0.24558892
16
Frame=1 idx=002083 GeodesicLength=0.09119628655612716 rxn_smarts="[C:1]([C:2]([C:3]([H:11])([H:12])[H:13])([C:4]([C:5](=[O:6])[H:16])([H:14])[H:15])[H:10])([H:7])([H:8])[H:9]>>[C:1]([C:2]([C:3]([H:11])([H:12])[H:13])([O:6][C:5](=[C:4]([H:14])[H:15])[H:16])[H:10])([H:7])([H:8])[H:9]"
C       -1.17879309      -0.96443946      -0.62841040
C       -0.49848108       0.34105456      -0.62936208
C       -1.01804253       1.44772993       0.20927401
C        1.44518394      -0.10741911       1.12698834
C        1.89504692      -0.86925167       0.07345402
O        1.54839086      -0.70265899      -1.12663343
H       -2.02646758      -0.88725978      -1.32553051
H       -1.54890009      -1.24712153       0.35468841
H       -0.52158525      -1.73213885      -1.03466834
H       -0.07234172       0.64689281      -1.57348656
H       -0.33355406       2.29184863       0.27072060
H       -1.91410536       1.82222071      -0.31071044
H       -1.30199832       1.12321084       1.20781604
H        1.28259113       0.94661306       0.95469502
H        1.65976061      -0.40446976       2.14695811
H        2.58329563      -1.70481137       0.28420721
16
Frame=2 idx=002083 GeodesicLength=0.18139230880335303 rxn_smarts="[C:1]([C:2]([C:3]([H:11])([H:12])[H:13])([C:4]([C:5](=[O:6])[H:16])([H:14])[H:15])[H:10])([H:7])([H:8])[H:9]>>[C:1]([C:2]([C:3]([H:11])([H:12])[H:13])([O:6][C:5](=[C:4]([H:14])[H:15])[H:16])[H:10])([H:7])([H:8])[H:9]"
C       -1.19041107      -0.96183837      -0.64962112
C       -0.46985755       0.32533133      -0.60663183
C       -1.01939580       1.42545904       0.22794173
C        1.45656032      -0.06452321       1.10575496
C        1.89844100      -0.87432916       0.08307435
O        1.52614621      -0.75964807      -1.11531830
H       -2.03536448      -0.84651138      -1.34385810
H       -1.56626124      -1.26488226       0.32562542
H       -0.55975343      -1.74008960      -1.07710090
H       -0.04507402       0.65093339      -1.54561190
H       -0.34884210       2.27899327       0.31010814
H       -1.90999905       1.80032716      -0.29969172
H       -1.31231329       1.09038745       1.22078169
H        1.34088675       0.99126228       0.90680913
H        1.66239496      -0.33854049       2.13428943
H        2.57284278      -1.71233136       0.32344902
16
Frame=3 idx=002083 GeodesicLength=0.27097569589234355 rxn_smarts="[C:1]([C:2]([C:3]([H:11])([H:12])[H:13])([C:4]([C:5](=[O:6])[H:16])([H:14])[H:15])[H:10])([H:7])([H:8])[H:9]>>[C:1]([C:2]([C:3]([H:11])([H:12])[H:13])([O:6][C:5](=[C:4]([H:14])[H:15])[H:16])[H:10])([H:7])([H:8])[H:9]"
C       -1.20323517      -0.95849077      -0.67069835
C       -0.44330424       0.30793328      -0.58375824
C       -1.01987043       1.40284808       0.24603129
C        1.46787790      -0.02355333       1.08402833
C        1.90211929      -0.87883742       0.09350484
O        1.50197618      -0.81659110      -1.09966785
H       -2.04434994      -0.80522653      -1.36132700
H       -1.58589983      -1.28158144       0.29582993
H       -0.59925613      -1.74550399      -1.11992512
H       -0.01845274       0.65221553      -1.51695124
H       -0.36124939       2.26333662       0.34961072
H       -1.90334370       1.78102367      -0.28980750
H       -1.32427860       1.05797538       1.23241143
H        1.39461229       1.03092080       0.85831337
H        1.66702373      -0.27349503       2.12031510
H        2.56963079      -1.71297375       0.36209028
16
Frame=4 idx=002083 GeodesicLength=0.3598141949838588 rxn_smarts="[C:1]([C:2]([C:3]([H:11])([H:12])[H:13])([C:4]([C:5](=[O:6])[H:16])([H:14])[H:15])[H:10])([H:7])([H:8])[H:9]>>[C:1]([C:2]([C:3]([H:11])([H:12])[H:13])([O:6][C:5](=[C:4]([H:14])[H:15])[H:16])[H:10])([H:7])([H:8])[H:9]"
C       -1.21609247      -0.95457132      -0.69157100
C       -0.41843852       0.28921606      -0.56082821
C       -1.01982030       1.37984560       0.26373941
C        1.47951780       0.01636872       1.06146754
C        1.90702462      -0.88161323       0.10410879
O        1.47687954      -0.87214173      -1.08013467
H       -2.05274918      -0.76416865      -1.37746425
H       -1.60600806      -1.29774430       0.26551603
H       -0.63844345      -1.74800959      -1.16338277
H        0.00737168       0.65136806      -1.48782389
H       -0.37172054       2.24542782       0.38932381
H       -1.89495579       1.76347694      -0.28055149
H       -1.33768488       1.02563490       1.24293076
H        1.44427948       1.06703942       0.80908204
H        1.67411053      -0.20852019       2.10467636
H        2.56672953      -1.71160853       0.40091154
16
Frame=5 idx=002083 GeodesicLength=0.44795163917690917 rxn_smarts="[C:1]([C:2]([C:3]([H:11])([H:12])[H:13])([C:4]([C:5](=[O:6])[H:16])([H:14])[H:15])[H:10])([H:7])([H:8])[H:9]>>[C:1]([C:2]([C:3]([H:11])([H:12])[H:13])([O:6][C:5](=[C:4]([H:14])[H:15])[H:16])[H:10])([H:7])([H:8])[H:9]"
C       -1.22903003      -0.94999650      -0.71209405
C       -0.39520528       0.26925315      -0.53785771
C       -1.01927925       1.35668685       0.28098679
C        1.49091295       0.05469826       1.03817535
C        1.91285295      -0.88316831       0.11478132
O        1.45063975      -0.92700987      -1.05654841
H       -2.06051074      -0.72322733      -1.39232117
H       -1.62682836      -1.31303051       0.23480827
H       -0.67732150      -1.74770894      -1.20705879
H        0.03233829       0.64828234      -1.45839765
H       -0.38034485       2.22558704       0.42899545
H       -1.88491068       1.74774990      -0.27191652
H       -1.35237828       0.99373310       1.25228895
H        1.48994040       1.09959862       0.75944643
H        1.68262342      -0.14462458       2.08744592
H        2.56650120      -1.70682323       0.43926581
16
Frame=6 idx=002083 GeodesicLength=0.5354177266122346 rxn_smarts="[C:1]([C:2]([C:3]([H:11])([H:12])[H:13])([C:4]([C:5](=[O:6])[H:16])([H:14])[H:15])[H:10])([H:7])([H:8])[H:9]>>[C:1]([C:2]([C:3]([H:11])([H:12])[H:13])([O:6][C:5](=[C:4]([H:14])[H:15])[H:16])[H:10])([H:7])([H:8])[H:9]"
C       -1.24184931      -0.94474509      -0.73220048
C       -0.37350615       0.24821490      -0.51490289
C       -1.01832894       1.33349230       0.29776431
C        1.50174261       0.09127964       1.01418697
C        1.91935426      -0.88375427       0.12540306
O        1.42327740      -0.98136358      -1.02877000
H       -2.06753393      -0.68249797      -1.40583620
H       -1.64810672      -1.32735956       0.20377951
H       -0.71553852      -1.74454331      -1.25079648
H        0.05640096       0.64306606      -1.42885073
H       -0.38735346       2.20409883       0.46849327
H       -1.87341563       1.73367193      -0.26376917
H       -1.36815469       0.96239901       1.26048403
H        1.53179098       1.12881298       0.70953893
H        1.69208896      -0.08212756       2.06864150
H        2.56913218      -1.69864432       0.47683437
16
Frame=7 idx=002083 GeodesicLength=0.6221977315246282 rxn_smarts="[C:1]([C:2]([C:3]([H:11])([H:12])[H:13])([C:4]([C:5](=[O:6])[H:16])([H:14])[H:15])[H:10])([H:7])([H:8])[H:9]>>[C:1]([C:2]([C:3]([H:11])([H:12])[H:13])([O:6][C:5](=[C:4]([H:14])[H:15])[H:16])[H:10])([H:7])([H:8])[H:9]"
C       -1.25433490      -0.93882649      -0.75178112
C       -0.35325514       0.22631876      -0.49204940
C       -1.01706450       1.31044581       0.31403097
C        1.51167814       0.12591816       0.98958916
C        1.92626768      -0.88361698       0.13582493
O        1.39481449      -1.03530567      -0.99668820
H       -2.07370186      -0.64214431      -1.41795405
H       -1.66958558      -1.34063531       0.17258707
H       -0.75267000      -1.73854384      -1.29432330
H        0.07951511       0.63586296      -1.39941458
H       -0.39296375       2.18129265       0.50763965
H       -1.86068881       1.72114682      -0.25603584
H       -1.38483631       0.93184820       1.26751865
H        1.56997382       1.15481468       0.65960215
H        1.70196750      -0.02147147       2.04835058
H        2.57488411      -1.68710397       0.51310333
16
Frame=8 idx=002083 GeodesicLength=0.7082451860831465 rxn_smarts="[C:1]([C:2]([C:3]([H:11])([H:12])[H:13])([C:4]([C:5](=[O:6])[H:16])([H:14])[H:15])[H:10])([H:7])([H:8])[H:9]>>[C:1]([C:2]([C:3]([H:11])([H:12])[H:13])([O:6][C:5](=[C:4]([H:14])[H:15])[H:16])[H:10])([H:7])([H:8])[H:9]"
C       -1.26617667      -0.93227623      -0.77068060
C       -0.33435130       0.20386622      -0.46942306
C       -1.01557617       1.28773371       0.32972185
C        1.52043183       0.15844865       0.96446174
C        1.93327401      -0.88293485       0.14584572
O        1.36532345      -1.08862559      -0.96033122
H       -2.07883406      -0.60247653      -1.42860311
H       -1.69085867      -1.35277268       0.14146810
H       -0.78813822      -1.72982171      -1.33718899
H        0.10160150       0.62693947      -1.37036268
H       -0.39738990       2.15746860       0.54630242
H       -1.84692376       1.71007555      -0.24869879
H       -1.40227209       0.90227480       1.27335660
H        1.60460933       1.17771797       0.60992694
H        1.71182986       0.03691051       2.02665190
H        2.58345085      -1.67252789       0.54755320
16
Frame=9 idx=002083 GeodesicLength=0.7935616412709277 rxn_smarts="[C:1]([C:2]([C:3]([H:11])([H:12])[H:13])([C:4]([C:5](=[O:6])[H:16])([H:14])[H:15])[H:10])([H:7])([H:8])[H:9]>>[C:1]([C:2]([C:3]([H:11])([H:12])[H:13])([O:6][C:5](=[C:4]([H:14])[H:15])[H:16])[H:10])([H:7])([H:8])[H:9]"
C       -1.27712165      -0.92517194      -0.78876776
C       -0.31669354       0.18115884      -0.44714696
C       -1.01394687       1.26555308       0.34478188
C        1.52779231       0.18875840       0.93892694
C        1.94010010      -0.88185100       0.15525109
O        1.33485988      -1.14113965      -0.91973856
H       -2.08278250      -0.56378949      -1.43781266
H       -1.71162177      -1.36368631       0.11065066
H       -0.82143478      -1.71861536      -1.37896426
H        0.12260925       0.61656500      -1.34194962
H       -0.40082829       2.13295126       0.58430334
H       -1.83235813       1.70034834      -0.24171596
H       -1.42023994       0.87389668       1.27801842
H        1.63588108       1.19766173       0.56085740
H        1.72119613       0.09257948       2.00370428
H        2.59458874      -1.65521906       0.57960178
16
Frame=10 idx=002083 GeodesicLength=0.8781678556927859 rxn_smarts="[C:1]([C:2]([C:3]([H:11])([H:12])[H:13])([C:4]([C:5](=[O:6])[H:16])([H:14])[H:15])[H:10])([H:7])([H:8])[H:9]>>[C:1]([C:2]([C:3]([H:11])([H:12])[H:13])([O:6][C:5](=[C:4]([H:14])[H:15])[H:16])[H:10])([H:7])([H:8])[H:9]"
C       -1.28690264      -0.91761204      -0.80592383
C       -0.30016838       0.15854016      -0.42536158
C       -1.01225987       1.24407847       0.35916354
C        1.53361878       0.21679370       0.91309357
C        1.94640999      -0.88052838       0.16385915
O        1.30352681      -1.19247052      -0.87507205
H       -2.08542144      -0.52641239      -1.44561406
H       -1.73150062      -1.37335497       0.08037457
H       -0.85203872      -1.70523499      -1.41920768
H        0.14249384       0.60511052      -1.31442385
H       -0.40347450       2.10801844       0.62153658
H       -1.81721388       1.69186537      -0.23506184
H       -1.43856335       0.84685377       1.28151326
H        1.66400855       1.21480524       0.51267489
H        1.72977073       0.14522761       1.97966284
H        2.60771469      -1.63567998       0.60878649
16
Frame=11 idx=002083 GeodesicLength=0.9621338154504703 rxn_smarts="[C:1]([C:2]([C:3]([H:11])([H:12])[H:13])([C:4]([C:5](=[O:6])[H:16])([H:14])[H:15])[H:10])([H:7])([H:8])[H:9]>>[C:1]([C:2]([C:3]([H:11])([H:12])[H:13])([O:6][C:5](=[C:4]([H:14])[H:15])[H:16])[H:10])([H:7])([H:8])[H:9]"
C       -1.29528962      -0.90971025      -0.82206004
C       -0.28465469       0.13634417      -0.40420291
C       -1.01058387       1.22345088       0.37283323
C        1.53784603       0.24256592       0.88706591
C        1.95189666      -0.87910308       0.17151411
O        1.27143391      -1.24218982      -0.82655579
H       -2.08666896      -0.49062732      -1.45206874
H       -1.75012988      -1.38180205       0.05086309
H       -0.87951637      -1.69004190      -1.45754997
H        0.16122079       0.59297628      -1.28800115
H       -0.40551196       2.08290914       0.65789828
H       -1.80172095       1.68450929      -0.22869558
H       -1.45702678       0.82122443       1.28388065
H        1.68924425       1.22933896       0.46561357
H        1.73733572       0.19463345       1.95469559
H        2.62212574      -1.61447810       0.63476974
16
Frame=12 idx=002083 GeodesicLength=1.0454498733545408 rxn_smarts="[C:1]([C:2]([C:3]([H:11])([H:12])[H:13])([C:4]([C:5](=[O:6])[H:16])([H:14])[H:15])[H:10])([H:7])([H:8])[H:9]>>[C:1]([C:2]([C:3]([H:11])([H:12])[H:13])([O:6][C:5](=[C:4]([H:14])[H:15])[H:16])[H:10])([H:7])([H:8])[H:9]"
C       -1.30217117      -0.90163888      -0.83714853
C       -0.27002671       0.11490676      -0.38382665
C       -1.00902194       1.20384512       0.38579305
C        1.54054322       0.26614715       0.86098287
C        1.95629506      -0.87778942       0.17814597
O        1.23882528      -1.28977831      -0.77466568
H       -2.08659883      -0.45679195      -1.45730617
H       -1.76730521      -1.38912024       0.02229787
H       -0.90358684      -1.67358054      -1.49369437
H        0.17883385       0.58059234      -1.26288919
H       -0.40707928       2.05788331       0.69343323
H       -1.78613464       1.67824189      -0.22257327
H       -1.47560487       0.79711176       1.28516618
H        1.71200947       1.24148420       0.41991697
H        1.74384963       0.24074637       1.92903987
H        2.63717298      -1.59225954       0.65732785
16
Frame=13 idx=002083 GeodesicLength=1.1284583599668023 rxn_smarts="[C:1]([C:2]([C:3]([H:11])([H:12])[H:13])([C:4]([C:5](=[O:6])[H:16])([H:14])[H:15])[H:10])([H:7])([H:8])[H:9]>>[C:1]([C:2]([C:3]([H:11])([H:12])[H:13])([O:6][C:5](=[C:4]([H:14])[H:15])[H:16])[H:10])([H:7])([H:8])[H:9]"
C       -1.30727957      -0.89343796      -0.85108188
C       -0.25614121       0.09449171      -0.36432922
C       -1.00752584       1.18522010       0.39799980
C        1.54162976       0.28762391       0.83485175
C        1.95928483      -0.87657425       0.18364424
O        1.20571567      -1.33470887      -0.71966132
H       -2.08504707      -0.42493016      -1.46129966
H       -1.78247796      -1.39537483      -0.00505732
H       -0.92396305      -1.65603387      -1.52739208
H        0.19523599       0.56838829      -1.23921889
H       -0.40833240       2.03295499       0.72789143
H       -1.77057633       1.67281013      -0.21664547
H       -1.49380382       0.77433534       1.28546358
H        1.73237279       1.25142250       0.37558399
H        1.74908390       0.28340822       1.90275704
H        2.65182430      -1.56959524       0.67649403
16
Frame=14 idx=002083 GeodesicLength=1.2111082352248916 rxn_smarts="[C:1]([C:2]([C:3]([H:11])([H:12])[H:13])([C:4]([C:5](=[O:6])[H:16])([H:14])[H:15])[H:10])([H:7])([H:8])[H:9]>>[C:1]([C:2]([C:3]([H:11])([H:12])[H:13])([O:6][C:5](=[C:4]([H:14])[H:15])[H:16])[H:10])([H:7])([H:8])[H:9]"
C       -1.31081238      -0.88528610      -0.86399353
C       -0.24292195       0.07528207      -0.34578737
C       -1.00620462       1.16770626       0.40947966
C        1.54134059       0.30715814       0.80891305
C        1.96075141      -0.87569918       0.18818527
O        1.17226604      -1.37672259      -0.66192255
H       -2.08239103      -0.39527274      -1.46427330
H       -1.79583249      -1.40073085      -0.03127814
H       -0.94082789      -1.63794280      -1.55869170
H        0.21058480       0.55659194      -1.21701325
H       -0.40930332       2.00828976       0.76147352
H       -1.75524579       1.66823723      -0.21091451
H       -1.51182856       0.75298842       1.28473908
H        1.75093451       1.25933831       0.33284060
H        1.75330326       0.32286058       1.87617862
H        2.66618744      -1.54679846       0.69206454
16
Frame=15 idx=002083 GeodesicLength=1.293564370206255 rxn_smarts="[C:1]([C:2]([C:3]([H:11])([H:12])[H:13])([C:4]([C:5](=[O:6])[H:16])([H:14])[H:15])[H:10])([H:7])([H:8])[H:9]>>[C:1]([C:2]([C:3]([H:11])([H:12])[H:13])([O:6][C:5](=[C:4]([H:14])[H:15])[H:16])[H:10])([H:7])([H:8])[H:9]"
C       -1.31260170      -0.87728393      -0.87588903
C       -0.23018298       0.05750537      -0.32836703
C       -1.00500811       1.15120637       0.42034464
C        1.53986625       0.32501418       0.78302369
C        1.96056927      -0.87514979       0.19171821
O        1.13886009      -1.41504333      -0.60245185
H       -2.07858167      -0.36789969      -1.46631150
H       -1.80695564      -1.40533152      -0.05617220
H       -0.95411297      -1.61968912      -1.58751396
H        0.22480039       0.54571838      -1.19644557
H       -0.41007264       1.98390433       0.79408982
H       -1.74042342       1.66421375      -0.20508158
H       -1.52914960       0.73277429       1.28332268
H        1.76794286       1.26551999       0.29147154
H        1.75652556       0.35938939       1.84926947
H        2.67852431      -1.52484867       0.70499268
16
Frame=16 idx=002083 GeodesicLength=1.3760891222498273 rxn_smarts="[C:1]([C:2]([C:3]([H:11])([H:12])[H:13])([C:4]([C:5](=[O:6])[H:16])([H:14])[H:15])[H:10])([H:7])([H:8])[H:9]>>[C:1]([C:2]([C:3]([H:11])([H:12])[H:13])([O:6][C:5](=[C:4]([H:14])[H:15])[H:16])[H:10])([H:7])([H:8])[H:9]"
C       -1.31275209      -0.86948175      -0.88682279
C       -0.21784337       0.04122176      -0.31206860
C       -1.00395079       1.13570159       0.43060449
C        1.53727931       0.34132381       0.75727607
C        1.95863312      -0.87505985       0.19445375
O        1.10551854      -1.44955806      -0.54152091
H       -2.07378368      -0.34271558      -1.46746063
H       -1.81587371      -1.40936266      -0.07973404
H       -0.96405730      -1.60147236      -1.61398338
H        0.23800836       0.53594181      -1.17747301
H       -0.41068826       1.95976764       0.82580485
H       -1.72611660       1.66073940      -0.19917839
H       -1.54583520       0.71357271       1.28121766
H        1.78366667       1.27009134       0.25141029
H        1.75881364       0.39318132       1.82216838
H        2.68898136      -1.50389112       0.71530625
