18
Frame=0 idx=007530 GeodesicLength=0.0 rxn_smarts="[C:1]([C:2]([C:3]([C:4]([H:13])([H:14])[H:15])([C:5]([H:16])([H:17])[H:18])[C:6]#[N:7])([H:11])[H:12])([H:8])([H:9])[H:10]>>[C:1](=[C:2]([H:11])[H:12])([H:8])[H:10].[C:3]1([C:4]([H:13])([H:14])[H:15])([C:5]([H:16])([H:17])[H:18])[C:6]([H:9])=[N:7]1"
C        2.28026572      -0.22326412      -0.05565345
C        1.15442456      -0.74661440      -0.63731339
C       -0.53884378       0.17958884       0.16907587
C       -1.40677369      -0.96027879       0.64112632
C       -1.11724638       0.97707274      -0.97489633
C        0.22646690       0.95741567       1.19903186
N       -0.60285640       1.53577316       1.84013622
H        2.78028776      -0.73065920       0.76029638
H        1.38150957       0.85989287       1.14038046
H        2.81632915       0.60161312      -0.50946216
H        0.84308003      -1.74673714      -0.35776610
H        0.90023678      -0.45016920      -1.64862880
H       -0.95489330      -1.48764274       1.48103944
H       -2.39597540      -0.61210055       0.94279053
H       -1.54877431      -1.66693463      -0.17999945
H       -2.04655228       1.46692484      -0.67992661
H       -0.42097919       1.73979132      -1.32533269
H       -1.34970579       0.30632826      -1.80489809
18
Frame=1 idx=007530 GeodesicLength=0.1070034759673234 rxn_smarts="[C:1]([C:2]([C:3]([C:4]([H:13])([H:14])[H:15])([C:5]([H:16])([H:17])[H:18])[C:6]#[N:7])([H:11])[H:12])([H:8])([H:9])[H:10]>>[C:1](=[C:2]([H:11])[H:12])([H:8])[H:10].[C:3]1([C:4]([H:13])([H:14])[H:15])([C:5]([H:16])([H:17])[H:18])[C:6]([H:9])=[N:7]1"
C        2.28944062      -0.20844318      -0.06461016
C        1.15864513      -0.75496798      -0.62177038
C       -0.54694127       0.18246377       0.17540630
C       -1.42355807      -0.95648680       0.63615345
C       -1.11612195       0.98293357      -0.97223856
C        0.21877404       0.94808606       1.20985737
N       -0.61353815       1.53238866       1.84087921
H        2.84143886      -0.72982217       0.70801266
H        1.40132479       0.84064841       1.15217235
H        2.79973635       0.63198210      -0.52025600
H        0.85941517      -1.75077813      -0.31382790
H        0.89934258      -0.49634368      -1.64221256
H       -0.98431611      -1.48448005       1.48237804
H       -2.41622351      -0.60715334       0.92498994
H       -1.55678641      -1.66297861      -0.18657797
H       -2.05176577       1.46680251      -0.68737672
H       -0.41965457       1.74977276      -1.31275051
H       -1.33921175       0.31637610      -1.80822856
18
Frame=2 idx=007530 GeodesicLength=0.21363411965538712 rxn_smarts="[C:1]([C:2]([C:3]([C:4]([H:13])([H:14])[H:15])([C:5]([H:16])([H:17])[H:18])[C:6]#[N:7])([H:11])[H:12])([H:8])([H:9])[H:10]>>[C:1](=[C:2]([H:11])[H:12])([H:8])[H:10].[C:3]1([C:4]([H:13])([H:14])[H:15])([C:5]([H:16])([H:17])[H:18])[C:6]([H:9])=[N:7]1"
C        2.29806292      -0.19431056      -0.07296011
C        1.16296748      -0.76332168      -0.60571438
C       -0.55509423       0.18556945       0.18180049
C       -1.44002737      -0.95261836       0.63110842
C       -1.11492604       0.98875709      -0.96966103
C        0.21063213       0.93918427       1.22070829
N       -0.62455685       1.52939873       1.84157374
H        2.90128392      -0.72835741       0.65139743
H        1.42186253       0.82087276       1.16432368
H        2.78236638       0.66118904      -0.52962854
H        0.87565310      -1.75378823      -0.26938382
H        0.89911360      -0.54274575      -1.63398233
H       -1.01329426      -1.48118634       1.48337886
H       -2.43603745      -0.60229822       0.90711338
H       -1.56441695      -1.65896176      -0.19312995
H       -2.05709539       1.46618419      -0.69539353
H       -0.41875995       1.76015667      -1.29993307
H       -1.32773355       0.32627609      -1.81161751
18
Frame=3 idx=007530 GeodesicLength=0.3199024769158962 rxn_smarts="[C:1]([C:2]([C:3]([C:4]([H:13])([H:14])[H:15])([C:5]([H:16])([H:17])[H:18])[C:6]#[N:7])([H:11])[H:12])([H:8])([H:9])[H:10]>>[C:1](=[C:2]([H:11])[H:12])([H:8])[H:10].[C:3]1([C:4]([H:13])([H:14])[H:15])([C:5]([H:16])([H:17])[H:18])[C:6]([H:9])=[N:7]1"
C        2.30622830      -0.18098610      -0.08057982
C        1.16740250      -0.77164107      -0.58914683
C       -0.56328755       0.18890895       0.18824660
C       -1.45613950      -0.94869128       0.62600106
C       -1.11369782       0.99453824      -0.96715589
C        0.20203291       0.93074773       1.23157089
N       -0.63593697       1.52680955       1.84221198
H        2.95931275      -0.72627929       0.59043943
H        1.44321161       0.80078473       1.17666601
H        2.76448893       0.68904682      -0.53743147
H        0.89177227      -1.75576690      -0.22457049
H        0.89963550      -0.58921904      -1.62394911
H       -1.04174903      -1.47778751       1.48404051
H       -2.45538071      -0.59758145       0.88919373
H       -1.57163707      -1.65489274      -0.19964972
H       -2.06257476       1.46501688      -0.70397105
H       -0.41839458       1.77096748      -1.28688343
H       -1.31528677       0.33602499      -1.81503240
18
Frame=4 idx=007530 GeodesicLength=0.42581875572540606 rxn_smarts="[C:1]([C:2]([C:3]([C:4]([H:13])([H:14])[H:15])([C:5]([H:16])([H:17])[H:18])[C:6]#[N:7])([H:11])[H:12])([H:8])([H:9])[H:10]>>[C:1](=[C:2]([H:11])[H:12])([H:8])[H:10].[C:3]1([C:4]([H:13])([H:14])[H:15])([C:5]([H:16])([H:17])[H:18])[C:6]([H:9])=[N:7]1"
C        2.31404501      -0.16856169      -0.08738996
C        1.17195833      -0.77991532      -0.57205263
C       -0.57150479       0.19247725       0.19473723
C       -1.47187065      -0.94472285       0.62082660
C       -1.11245188       1.00028025      -0.96471259
C        0.19296805       0.92279155       1.24244977
N       -0.64770438       1.52461257       1.84279858
H        3.01504738      -0.72352470       0.52512444
H        1.46547294       0.78055184       1.18909441
H        2.74631346       0.71543605      -0.54359179
H        0.90777263      -1.75673829      -0.17945995
H        0.90095320      -0.63568829      -1.61211846
H       -1.06964260      -1.47431391       1.48435698
H       -2.47423656      -0.59303665       0.87123232
H       -1.57842735      -1.65077857      -0.20615094
H       -2.06820285       1.46327495      -0.71310626
H       -0.41861302       1.78221818      -1.27359707
H       -1.30187692       0.34563765      -1.81844068
18
Frame=5 idx=007530 GeodesicLength=0.5313909253168551 rxn_smarts="[C:1]([C:2]([C:3]([C:4]([H:13])([H:14])[H:15])([C:5]([H:16])([H:17])[H:18])[C:6]#[N:7])([H:11])[H:12])([H:8])([H:9])[H:10]>>[C:1](=[C:2]([H:11])[H:12])([H:8])[H:10].[C:3]1([C:4]([H:13])([H:14])[H:15])([C:5]([H:16])([H:17])[H:18])[C:6]([H:9])=[N:7]1"
C        2.32162822      -0.15712074      -0.09335580
C        1.17663954      -0.78814382      -0.55441155
C       -0.57972804       0.19626134       0.20126830
C       -1.48720694      -0.94073152       0.61557390
C       -1.11118337       1.00598955      -0.96231609
C        0.18342682       0.91530802       1.25335983
N       -0.65988682       1.52277514       1.84334562
H        3.06798938      -0.71994814       0.45549889
H        1.48876135       0.76030873       1.20150997
H        2.72802191       0.74025695      -0.54810781
H        0.92365339      -1.75673110      -0.13409527
H        0.90310121      -0.68211036      -1.59849300
H       -1.09696188      -1.47080148       1.48431786
H       -2.49259566      -0.58869375       0.85321890
H       -1.58477443      -1.64662048      -0.21265482
H       -2.07394768       1.46095052      -0.72279084
H       -0.41943552       1.79390896      -1.26006475
H       -1.28750148       0.35514218      -1.82180332
18
Frame=6 idx=007530 GeodesicLength=0.6366526855628966 rxn_smarts="[C:1]([C:2]([C:3]([C:4]([H:13])([H:14])[H:15])([C:5]([H:16])([H:17])[H:18])[C:6]#[N:7])([H:11])[H:12])([H:8])([H:9])[H:10]>>[C:1](=[C:2]([H:11])[H:12])([H:8])[H:10].[C:3]1([C:4]([H:13])([H:14])[H:15])([C:5]([H:16])([H:17])[H:18])[C:6]([H:9])=[N:7]1"
C        2.32910927      -0.14672411      -0.09846529
C        1.18145387      -0.79632295      -0.53620988
C       -0.58793860       0.20025236       0.20783048
C       -1.50213263      -0.93673403       0.61022787
C       -1.10989180       1.01167494      -0.95996097
C        0.17340890       0.90829815       1.26430872
N       -0.67249954       1.52128728       1.84385507
H        3.11762341      -0.71544229       0.38162180
H        1.51322136       0.74013417       1.21389108
H        2.70977310       0.76347691      -0.55096335
H        0.93943280      -1.75577885      -0.08850452
H        0.90607676      -0.72847896      -1.58307975
H       -1.12368691      -1.46728280       1.48391178
H       -2.51044961      -0.58457602       0.83513585
H       -1.59066177      -1.64242732      -0.21918668
H       -2.07978336       1.45803976      -0.73302935
H       -0.42088540       1.80603834      -1.24629233
H       -1.27216984       0.36456542      -1.82509050
18
Frame=7 idx=007530 GeodesicLength=0.7416226521167769 rxn_smarts="[C:1]([C:2]([C:3]([C:4]([H:13])([H:14])[H:15])([C:5]([H:16])([H:17])[H:18])[C:6]#[N:7])([H:11])[H:12])([H:8])([H:9])[H:10]>>[C:1](=[C:2]([H:11])[H:12])([H:8])[H:10].[C:3]1([C:4]([H:13])([H:14])[H:15])([C:5]([H:16])([H:17])[H:18])[C:6]([H:9])=[N:7]1"
C        2.33660812      -0.13741339      -0.10275903
C        1.18640409      -0.80445571      -0.51743597
C       -0.59611367       0.20443603       0.21441441
C       -1.51663525      -0.93274320       0.60476928
C       -1.10855399       1.01734388      -0.95763995
C        0.16291658       0.90174378       1.27530216
N       -0.68554988       1.52012084       1.84432477
H        3.16340741      -0.70982705       0.30361259
H        1.53900943       0.72003388       1.22623708
H        2.69167375       0.78509555      -0.55219083
H        0.95513109      -1.75390847      -0.04269125
H        0.90985644      -0.77481956      -1.56587508
H       -1.14981393      -1.46378702       1.48312265
H       -2.52778813      -0.58069873       0.81695838
H       -1.59607336      -1.63819827      -0.22577310
H       -2.08565075       1.45454687      -0.74382371
H       -0.42295216       1.81858886      -1.23228569
H       -1.25587578       0.37394171      -1.82826670
18
Frame=8 idx=007530 GeodesicLength=0.8463579766874144 rxn_smarts="[C:1]([C:2]([C:3]([C:4]([H:13])([H:14])[H:15])([C:5]([H:16])([H:17])[H:18])[C:6]#[N:7])([H:11])[H:12])([H:8])([H:9])[H:10]>>[C:1](=[C:2]([H:11])[H:12])([H:8])[H:10].[C:3]1([C:4]([H:13])([H:14])[H:15])([C:5]([H:16])([H:17])[H:18])[C:6]([H:9])=[N:7]1"
C        2.34424266      -0.12920483      -0.10633993
C        1.19149625      -0.81257053      -0.49807744
C       -0.60422904       0.20879508       0.22101220
C       -1.53071512      -0.92877531       0.59916791
C       -1.10713302       1.02301471      -0.95534578
C        0.15196525       0.89561491       1.28635475
N       -0.69902974       1.51924918       1.84475953
H        3.20480965      -0.70285764       0.22165802
H        1.56631967       0.69995213       1.23856634
H        2.67376636       0.80516406      -0.55187132
H        0.97079076      -1.75115804       0.00338348
H        0.91437886      -0.82122977      -1.54685591
H       -1.17535972      -1.46035395       1.48192534
H       -2.54461660      -0.57706841       0.79864328
H       -1.60100714      -1.63393935      -0.23245483
H       -2.09147848       1.45049766      -0.75518210
H       -0.42559845       1.83155159      -1.21804153
H       -1.23860216       0.38331852      -1.83130204
18
Frame=9 idx=007530 GeodesicLength=0.9507515529372899 rxn_smarts="[C:1]([C:2]([C:3]([C:4]([H:13])([H:14])[H:15])([C:5]([H:16])([H:17])[H:18])[C:6]#[N:7])([H:11])[H:12])([H:8])([H:9])[H:10]>>[C:1](=[C:2]([H:11])[H:12])([H:8])[H:10].[C:3]1([C:4]([H:13])([H:14])[H:15])([C:5]([H:16])([H:17])[H:18])[C:6]([H:9])=[N:7]1"
C        2.35205259      -0.12210854      -0.10939197
C        1.19672117      -0.82071450      -0.47814579
C       -0.61224220       0.21330427       0.22761286
C       -1.54434341      -0.92483212       0.59339023
C       -1.10556357       1.02869819      -0.95307217
C        0.14058772       0.88985615       1.29747867
N       -0.71289820       1.51861359       1.84517029
H        3.24124094      -0.69413315       0.13616897
H        1.59531314       0.67971512       1.25088483
H        2.65599917       0.82370341      -0.55017174
H        0.98644663      -1.74754938       0.04974180
H        0.91956004      -0.86780725      -1.52600385
H       -1.20031552      -1.45700845       1.48028930
H       -2.56089138      -0.57367231       0.78015392
H       -1.60544439      -1.62962667      -0.23927939
H       -2.09713423       1.44594067      -0.76709002
H       -0.42874832       1.84487679      -1.20357439
H       -1.22034017       0.39274419      -1.83416156
18
Frame=10 idx=007530 GeodesicLength=1.054971504200259 rxn_smarts="[C:1]([C:2]([C:3]([C:4]([H:13])([H:14])[H:15])([C:5]([H:16])([H:17])[H:18])[C:6]#[N:7])([H:11])[H:12])([H:8])([H:9])[H:10]>>[C:1](=[C:2]([H:11])[H:12])([H:8])[H:10].[C:3]1([C:4]([H:13])([H:14])[H:15])([C:5]([H:16])([H:17])[H:18])[C:6]([H:9])=[N:7]1"
C        2.36017089      -0.11612461      -0.11206085
C        1.20208637      -0.82886179      -0.45768804
C       -0.62014266       0.21796118       0.23419049
C       -1.55750587      -0.92093542       0.58742042
C       -1.10386645       1.03440843      -0.95082327
C        0.12880212       0.88447026       1.30864185
N       -0.72714010       1.51821783       1.84553027
H        3.27214169      -0.68361766       0.04762164
H        1.62627609       0.65927387       1.26316218
H        2.63853583       0.84077573      -0.54711933
H        1.00212769      -1.74308516       0.09632515
H        0.92532901      -0.91457080      -1.50332839
H       -1.22464243      -1.45378959       1.47818878
H       -2.57660827      -0.57053850       0.76149267
H       -1.60937552      -1.62527911      -0.24626830
H       -2.10261994       1.44086588      -0.77955524
H       -0.43245012       1.85857477      -1.18890711
H       -1.20111831       0.40225470      -1.83682293
18
Frame=11 idx=007530 GeodesicLength=1.1590003266581772 rxn_smarts="[C:1]([C:2]([C:3]([C:4]([H:13])([H:14])[H:15])([C:5]([H:16])([H:17])[H:18])[C:6]#[N:7])([H:11])[H:12])([H:8])([H:9])[H:10]>>[C:1](=[C:2]([H:11])[H:12])([H:8])[H:10].[C:3]1([C:4]([H:13])([H:14])[H:15])([C:5]([H:16])([H:17])[H:18])[C:6]([H:9])=[N:7]1"
C        2.36862374      -0.11121798      -0.11457827
C        1.20758564      -0.83703363      -0.43674622
C       -0.62790459       0.22275195       0.24072611
C       -1.57018135      -0.91709132       0.58122991
C       -1.10201138       1.04015741      -0.94860151
C        0.11663965       0.87942381       1.31983369
N       -0.74171746       1.51803418       1.84582888
H        3.29702046      -0.67107797      -0.04341087
H        1.65944680       0.63842679       1.27538261
H        2.62136897       0.85645292      -0.54285203
H        1.01787670      -1.73776067       0.14312738
H        0.93158232      -0.96160106      -1.47881083
H       -1.24832093      -1.45072237       1.47559363
H       -2.59174126      -0.56766452       0.74263507
H       -1.61278825      -1.62088819      -0.25345966
H       -2.10785303       1.43530855      -0.79257140
H       -0.43666994       1.87261101      -1.17406821
H       -1.18095609       0.41189109      -1.83925827
18
Frame=12 idx=007530 GeodesicLength=1.2629213427934494 rxn_smarts="[C:1]([C:2]([C:3]([C:4]([H:13])([H:14])[H:15])([C:5]([H:16])([H:17])[H:18])[C:6]#[N:7])([H:11])[H:12])([H:8])([H:9])[H:10]>>[C:1](=[C:2]([H:11])[H:12])([H:8])[H:10].[C:3]1([C:4]([H:13])([H:14])[H:15])([C:5]([H:16])([H:17])[H:18])[C:6]([H:9])=[N:7]1"
C        2.37743768      -0.10732619      -0.11718802
C        1.21321561      -0.84524111      -0.41534521
C       -0.63551734       0.22766867       0.24720503
C       -1.58236900      -0.91331274       0.57479091
C       -1.09997014       1.04596528      -0.94640914
C        0.10411080       0.87468838       1.33104585
N       -0.75661923       1.51804148       1.84605188
H        3.31546661      -0.65640016      -0.13642032
H        1.69512083       0.61699772       1.28749554
H        2.60448900       0.87085147      -0.53748422
H        1.03374646      -1.73155192       0.19018182
H        0.93820847      -1.00900265      -1.45238946
H       -1.27135712      -1.44784285       1.47247332
H       -2.60629262      -0.56505788       0.72355125
H       -1.61567767      -1.61645378      -0.26088932
H       -2.11277826       1.42927262      -0.80616318
H       -0.44139681       1.88699403      -1.15905849
H       -1.15981727       0.42170962      -1.84144823
18
Frame=13 idx=007530 GeodesicLength=1.3666118995080425 rxn_smarts="[C:1]([C:2]([C:3]([C:4]([H:13])([H:14])[H:15])([C:5]([H:16])([H:17])[H:18])[C:6]#[N:7])([H:11])[H:12])([H:8])([H:9])[H:10]>>[C:1](=[C:2]([H:11])[H:12])([H:8])[H:10].[C:3]1([C:4]([H:13])([H:14])[H:15])([C:5]([H:16])([H:17])[H:18])[C:6]([H:9])=[N:7]1"
C        2.38650772      -0.10437024      -0.12017970
C        1.21894663      -0.85352108      -0.39354312
C       -0.64295258       0.23269329       0.25360667
C       -1.59403315      -0.90958916       0.56806785
C       -1.09770241       1.05182753      -0.94425762
C        0.09124978       0.87022058       1.34227132
N       -0.77178892       1.51820625       1.84618696
H        3.32713941      -0.63930867      -0.23066749
H        1.73355538       0.59466771       1.29946537
H        2.58776831       0.88405865      -0.53117489
H        1.04978269      -1.72442370       0.23747556
H        0.94507312      -1.05685067      -1.42403204
H       -1.29371093      -1.44515369       1.46878981
H       -2.62020553      -0.56269188       0.70421217
H       -1.61803388      -1.61194354      -0.26860639
H       -2.11726784       1.42282795      -0.82030701
H       -0.44655426       1.90162351      -1.14394157
H       -1.13777355       0.43172715      -1.84336588
18
Frame=14 idx=007530 GeodesicLength=1.470269121469429 rxn_smarts="[C:1]([C:2]([C:3]([C:4]([H:13])([H:14])[H:15])([C:5]([H:16])([H:17])[H:18])[C:6]#[N:7])([H:11])[H:12])([H:8])([H:9])[H:10]>>[C:1](=[C:2]([H:11])[H:12])([H:8])[H:10].[C:3]1([C:4]([H:13])([H:14])[H:15])([C:5]([H:16])([H:17])[H:18])[C:6]([H:9])=[N:7]1"
C        2.39588407      -0.10229299      -0.12375511
C        1.22478561      -0.86181882      -0.37137389
C       -0.65024278       0.23784208       0.25991191
C       -1.60518832      -0.90594916       0.56104619
C       -1.09526279       1.05777350      -0.94215615
C        0.07802010       0.86605034       1.35348399
N       -0.78728656       1.51854651       1.84621434
H        3.33177784      -0.62000908      -0.32560070
H        1.77515206       0.57134433       1.31114073
H        2.57139945       0.89615708      -0.52394768
H        1.06602287      -1.71631160       0.28497458
H        0.95213286      -1.10513438      -1.39367627
H       -1.31536753      -1.44270380       1.46451957
H       -2.63351895      -0.56061556       0.68461866
H       -1.61985014      -1.60738340      -0.27663463
H       -2.12138332       1.41593710      -0.83504481
H       -0.45225769       1.91656774      -1.12871796
H       -1.11481680       0.44200012      -1.84500276
18
Frame=15 idx=007530 GeodesicLength=1.5738747495285197 rxn_smarts="[C:1]([C:2]([C:3]([C:4]([H:13])([H:14])[H:15])([C:5]([H:16])([H:17])[H:18])[C:6]#[N:7])([H:11])[H:12])([H:8])([H:9])[H:10]>>[C:1](=[C:2]([H:11])[H:12])([H:8])[H:10].[C:3]1([C:4]([H:13])([H:14])[H:15])([C:5]([H:16])([H:17])[H:18])[C:6]([H:9])=[N:7]1"
C        2.40548201      -0.10101090      -0.12813281
C        1.23071125      -0.87011935      -0.34885935
C       -0.65739975       0.24311577       0.26610561
C       -1.61583300      -0.90239728       0.55369579
C       -1.09265023       1.06380139      -0.94011713
C        0.06439906       0.86218081       1.36467443
N       -0.80313683       1.51906922       1.84610522
H        3.32917389      -0.59846947      -0.42069858
H        1.82027483       0.54676063       1.32241578
H        2.55538417       0.90724328      -0.51583031
H        1.08250202      -1.70713781       0.33267337
H        0.95932416      -1.15386048      -1.36123829
H       -1.33632068      -1.44050285       1.45963069
H       -2.64623116      -0.55883860       0.66473219
H       -1.62111736      -1.60277191      -0.28500831
H       -2.12506656       1.40862870      -0.85038234
H       -0.45849402       1.93177196      -1.11343622
H       -1.09100179       0.45253687      -1.84632971
18
Frame=16 idx=007530 GeodesicLength=1.677431754101603 rxn_smarts="[C:1]([C:2]([C:3]([C:4]([H:13])([H:14])[H:15])([C:5]([H:16])([H:17])[H:18])[C:6]#[N:7])([H:11])[H:12])([H:8])([H:9])[H:10]>>[C:1](=[C:2]([H:11])[H:12])([H:8])[H:10].[C:3]1([C:4]([H:13])([H:14])[H:15])([C:5]([H:16])([H:17])[H:18])[C:6]([H:9])=[N:7]1"
C        2.41522071      -0.10046635      -0.13347636
C        1.23670072      -0.87836976      -0.32595540
C       -0.66444289       0.24852695       0.27217388
C       -1.62594494      -0.89892961       0.54598637
C       -1.08986417       1.06991662      -0.93816956
C        0.05032833       0.85861755       1.37583707
N       -0.81940929       1.51975621       1.84582891
H        3.31902563      -0.57477567      -0.51569909
H        1.86933429       0.52064467       1.33315288
H        2.53973866       0.91739471      -0.50674238
H        1.09926229      -1.69677604       0.38064031
H        0.96658101      -1.20300450      -1.32654591
H       -1.35654123      -1.43855627       1.45409736
H       -2.65831733      -0.55738147       0.64450514
H       -1.62178210      -1.59807844      -0.29376438
H       -2.12828811       1.40084174      -0.86640575
H       -0.46533813       1.94724835      -1.09811323
H       -1.06626344       0.46339130      -1.84734985
