19
Frame=0 idx=011861 GeodesicLength=0.0 rxn_smarts="[C:1]([C:2]([C@@:3]1([H:13])[C:4]([H:14])([H:15])[C@:5]1([C:6]([H:16])([H:17])[H:18])[O:7][H:19])([H:11])[H:12])([H:8])([H:9])[H:10]>>[C:1]([C:2]([C:3]1=[C:5]([C:6]([H:16])([H:17])[H:18])[C:4]1([H:14])[H:15])([H:11])[H:12])([H:8])([H:9])[H:10].[O:7]([H:13])[H:19]"
C        2.08002604      -0.13623104       0.97025329
C        1.54098422      -0.51449371      -0.40489557
C        0.31734539       0.26839781      -0.77479334
C       -0.81374040      -0.14839167      -1.69263693
C       -0.98140503       0.15339956      -0.25848180
C       -1.72344461      -0.52730569       0.82897005
O       -1.32421717       1.90629406      -0.17884137
H        2.97668568      -0.70659638       1.22097362
H        1.33768707      -0.32870327       1.74949381
H        2.33220573       0.92590870       1.00702675
H        1.33039653      -1.59475257      -0.42848349
H        2.31624796      -0.34612343      -1.15698820
H       -0.27184461       1.71418647      -0.52992621
H       -0.96223753      -1.20337029      -1.93982454
H       -1.18050317       0.53095332      -2.45611749
H       -2.80124751      -0.38609878       0.74668799
H       -1.38842742      -0.20709589       1.81746830
H       -1.51288702      -1.59687597       0.73872345
H       -1.27162417       2.19689884       0.74139171
19
Frame=1 idx=011861 GeodesicLength=0.06706505373317324 rxn_smarts="[C:1]([C:2]([C@@:3]1([H:13])[C:4]([H:14])([H:15])[C@:5]1([C:6]([H:16])([H:17])[H:18])[O:7][H:19])([H:11])[H:12])([H:8])([H:9])[H:10]>>[C:1]([C:2]([C:3]1=[C:5]([C:6]([H:16])([H:17])[H:18])[C:4]1([H:14])[H:15])([H:11])[H:12])([H:8])([H:9])[H:10].[O:7]([H:13])[H:19]"
C        2.07646907      -0.13176934       0.97011080
C        1.54037833      -0.51372577      -0.40507893
C        0.31137149       0.25768832      -0.77695342
C       -0.81824084      -0.15726661      -1.69597250
C       -0.98830673       0.14944120      -0.26193350
C       -1.72757457      -0.53019980       0.82818042
O       -1.30960000       1.92074445      -0.17092566
H        2.98170875      -0.69003604       1.21703129
H        1.33832307      -0.33764329       1.74977270
H        2.31382829       0.93365011       1.01019866
H        1.33743675      -1.59498197      -0.43019294
H        2.31329581      -0.33700542      -1.15786242
H       -0.24593325       1.71105958      -0.52707140
H       -0.96336282      -1.21171169      -1.94563430
H       -1.18102993       0.52383606      -2.45979387
H       -2.80438761      -0.37929673       0.74831216
H       -1.38953953      -0.21132743       1.81609523
H       -1.52425873      -1.60109356       0.73920358
H       -1.26057756       2.19963792       0.75251411
19
Frame=2 idx=011861 GeodesicLength=0.13409742698479488 rxn_smarts="[C:1]([C:2]([C@@:3]1([H:13])[C:4]([H:14])([H:15])[C@:5]1([C:6]([H:16])([H:17])[H:18])[O:7][H:19])([H:11])[H:12])([H:8])([H:9])[H:10]>>[C:1]([C:2]([C:3]1=[C:5]([C:6]([H:16])([H:17])[H:18])[C:4]1([H:14])[H:15])([H:11])[H:12])([H:8])([H:9])[H:10].[O:7]([H:13])[H:19]"
C        2.07280247      -0.12745129       0.96999928
C        1.53971229      -0.51273140      -0.40533994
C        0.30533822       0.24716236      -0.77901853
C       -0.82269988      -0.16625894      -1.69925057
C       -0.99527472       0.14561889      -0.26540250
C       -1.73167789      -0.53300313       0.82741740
O       -1.29481468       1.93521348      -0.16291143
H        2.98643628      -0.67354177       1.21302451
H        1.33903599      -0.34681838       1.74998135
H        2.29532875       0.94101236       1.01366948
H        1.34457466      -1.59495281      -0.43223106
H        2.31020199      -0.32745722      -1.15875153
H       -0.21985351       1.70761453      -0.52448798
H       -0.96437144      -1.22019066      -1.95127535
H       -1.18153913       0.51643434      -2.46352912
H       -2.80743151      -0.37255358       0.74997378
H       -1.39066063      -0.21536273       1.81471728
H       -1.53549059      -1.60516024       0.73984739
H       -1.24961668       2.20242620       0.76356753
19
Frame=3 idx=011861 GeodesicLength=0.20110675910157869 rxn_smarts="[C:1]([C:2]([C@@:3]1([H:13])[C:4]([H:14])([H:15])[C@:5]1([C:6]([H:16])([H:17])[H:18])[O:7][H:19])([H:11])[H:12])([H:8])([H:9])[H:10]>>[C:1]([C:2]([C:3]1=[C:5]([C:6]([H:16])([H:17])[H:18])[C:4]1([H:14])[H:15])([H:11])[H:12])([H:8])([H:9])[H:10].[O:7]([H:13])[H:19]"
C        2.06903394      -0.12327794       0.96992009
C        1.53897937      -0.51151218      -0.40567415
C        0.29924885       0.23683621      -0.78098381
C       -0.82711043      -0.17536560      -1.70246798
C       -1.00230757       0.14193136      -0.26888876
C       -1.73575452      -0.53571877       0.82667756
O       -1.27987876       1.94970452      -0.15479048
H        2.99086854      -0.65712800       1.20895925
H        1.33983499      -0.35621405       1.75011593
H        2.27673426       0.94798976       1.01743309
H        1.35179528      -1.59466016      -0.43458725
H        2.30695403      -0.31749435      -1.15964943
H       -0.19361754       1.70386336      -0.52220356
H       -0.96524934      -1.22880451      -1.95674633
H       -1.18202993       0.50874694      -2.46732209
H       -2.81038317      -0.36587553       0.75166645
H       -1.39179011      -0.21920715       1.81333232
H       -1.54657950      -1.60908025       0.74064900
H       -1.23874839       2.20526634       0.77456017
19
Frame=4 idx=011861 GeodesicLength=0.2681229672274308 rxn_smarts="[C:1]([C:2]([C@@:3]1([H:13])[C:4]([H:14])([H:15])[C@:5]1([C:6]([H:16])([H:17])[H:18])[O:7][H:19])([H:11])[H:12])([H:8])([H:9])[H:10]>>[C:1]([C:2]([C:3]1=[C:5]([C:6]([H:16])([H:17])[H:18])[C:4]1([H:14])[H:15])([H:11])[H:12])([H:8])([H:9])[H:10].[O:7]([H:13])[H:19]"
C        2.06517240      -0.11925040       0.96987375
C        1.53817324      -0.51007135      -0.40607674
C        0.29310726       0.22672623      -0.78284480
C       -0.83146540      -0.18458147      -1.70562127
C       -1.00940316       0.13837767      -0.27239161
C       -1.73980367      -0.53835082       0.82595761
O       -1.26481745       1.96422167      -0.14655271
H        2.99500660      -0.64081083       1.20484236
H        1.34072594      -0.36581217       1.75017512
H        2.25807302       0.95457843       1.02148085
H        1.35908070      -1.59410145      -0.43724928
H        2.30354237      -0.30713656      -1.16055179
H       -0.16723340       1.69981809      -0.52024862
H       -0.96598297      -1.23754807      -1.96204680
H       -1.18250158       0.50077571      -2.47117041
H       -2.81324608      -0.35927256       0.75338289
H       -1.39292870      -0.22286546       1.81193809
H       -1.55751944      -1.61285783       0.74160313
H       -1.22797967       2.20816118       0.78550022
19
Frame=5 idx=011861 GeodesicLength=0.33515211383553545 rxn_smarts="[C:1]([C:2]([C@@:3]1([H:13])[C:4]([H:14])([H:15])[C@:5]1([C:6]([H:16])([H:17])[H:18])[O:7][H:19])([H:11])[H:12])([H:8])([H:9])[H:10]>>[C:1]([C:2]([C:3]1=[C:5]([C:6]([H:16])([H:17])[H:18])[C:4]1([H:14])[H:15])([H:11])[H:12])([H:8])([H:9])[H:10].[O:7]([H:13])[H:19]"
C        2.06122486      -0.11536978       0.96986043
C        1.53728719      -0.50841381      -0.40654334
C        0.28691745       0.21684804      -0.78459918
C       -0.83575813      -0.19390266      -1.70870804
C       -1.01655929       0.13495610      -0.27591173
C       -1.74382463      -0.54090242       0.82525395
O       -1.24964767       1.97877109      -0.13818711
H        2.99885440      -0.62459470       1.20068060
H        1.34171660      -0.37560200       1.75015461
H        2.23936492       0.96077345       1.02580871
H        1.36641384      -1.59327430      -0.44020513
H        2.29995725      -0.29640666      -1.16145345
H       -0.14071208       1.69549147      -0.51865306
H       -0.96655904      -1.24641763      -1.96717622
H       -1.18295423       0.49252135      -2.47507258
H       -2.81602372      -0.35274925       0.75511666
H       -1.39407516      -0.22634304       1.81053237
H       -1.56830564      -1.61649730       0.74270400
H       -1.21731693       2.21111202       0.79639851
19
Frame=6 idx=011861 GeodesicLength=0.4021979376352126 rxn_smarts="[C:1]([C:2]([C@@:3]1([H:13])[C:4]([H:14])([H:15])[C@:5]1([C:6]([H:16])([H:17])[H:18])[O:7][H:19])([H:11])[H:12])([H:8])([H:9])[H:10]>>[C:1]([C:2]([C:3]1=[C:5]([C:6]([H:16])([H:17])[H:18])[C:4]1([H:14])[H:15])([H:11])[H:12])([H:8])([H:9])[H:10].[O:7]([H:13])[H:19]"
C        2.05720059      -0.11163374       0.96987932
C        1.53631462      -0.50654685      -0.40706753
C        0.28068392       0.20721690      -0.78624470
C       -0.83998153      -0.20332277      -1.71172628
C       -1.02377361       0.13166593      -0.27944965
C       -1.74781718      -0.54337880       0.82456097
O       -1.23438913       1.99335724      -0.12967870
H        3.00241366      -0.60849416       1.19648162
H        1.34281238      -0.38555578       1.75005436
H        2.22064097       0.96657900       1.03039872
H        1.37377171      -1.59217990      -0.44343480
H        2.29619118      -0.28533486      -1.16234974
H       -0.11406405       1.69089583      -0.51744394
H       -0.96696462      -1.25540592      -1.97213595
H       -1.18338688       0.48398854      -2.47902631
H       -2.81872005      -0.34631545       0.75685867
H       -1.39523079      -0.22964863       1.80911148
H       -1.57893308      -1.62000406       0.74394194
H       -1.20676810       2.21411750       0.80727052
19
Frame=7 idx=011861 GeodesicLength=0.46927029231851314 rxn_smarts="[C:1]([C:2]([C@@:3]1([H:13])[C:4]([H:14])([H:15])[C@:5]1([C:6]([H:16])([H:17])[H:18])[O:7][H:19])([H:11])[H:12])([H:8])([H:9])[H:10]>>[C:1]([C:2]([C:3]1=[C:5]([C:6]([H:16])([H:17])[H:18])[C:4]1([H:14])[H:15])([H:11])[H:12])([H:8])([H:9])[H:10].[O:7]([H:13])[H:19]"
C        2.05310719      -0.10803875       0.96992950
C        1.53524874      -0.50447842      -0.40764319
C        0.27441114       0.19784759      -0.78778031
C       -0.84412883      -0.21283525      -1.71467433
C       -1.03104364       0.12850487      -0.28300633
C       -1.75178054      -0.54578536       0.82387385
O       -1.21906106       2.00798588      -0.12101122
H        3.00568914      -0.59251716       1.19224998
H        1.34401887      -0.39565074       1.74987278
H        2.20192099       0.97199756       1.03523854
H        1.38113168      -1.59082005      -0.44691780
H        2.29223657      -0.27395429      -1.16323496
H       -0.08729680       1.68604583      -0.51665217
H       -0.96718628      -1.26450580      -1.97692845
H       -1.18379940       0.47518202      -2.48302917
H       -2.82133865      -0.33997932       0.75860100
H       -1.39639557      -0.23279040       1.80767207
H       -1.58939680      -1.62338452       0.74530825
H       -1.19633675       2.21717631       0.81813199
19
Frame=8 idx=011861 GeodesicLength=0.536363520751082 rxn_smarts="[C:1]([C:2]([C@@:3]1([H:13])[C:4]([H:14])([H:15])[C@:5]1([C:6]([H:16])([H:17])[H:18])[O:7][H:19])([H:11])[H:12])([H:8])([H:9])[H:10]>>[C:1]([C:2]([C:3]1=[C:5]([C:6]([H:16])([H:17])[H:18])[C:4]1([H:14])[H:15])([H:11])[H:12])([H:8])([H:9])[H:10].[O:7]([H:13])[H:19]"
C        2.04895292      -0.10457947       0.97000882
C        1.53408301      -0.50221839      -0.40826387
C        0.26810349       0.18875437      -0.78920574
C       -0.84819349      -0.22243270      -1.71755129
C       -1.03836716       0.12547026      -0.28658325
C       -1.75571503      -0.54812827       0.82318603
O       -1.20367803       2.02266273      -0.11216565
H        3.00868521      -0.57666657       1.18799338
H        1.34533985      -0.40585911       1.74961115
H        2.18323253       0.97703718       1.04030747
H        1.38846697      -1.58919952      -0.45062965
H        2.28808940      -0.26230533      -1.16410652
H       -0.06041923       1.68095429      -0.51630476
H       -0.96721129      -1.27370869      -1.98155753
H       -1.18419131       0.46610937      -2.48707855
H       -2.82388375      -0.33374937       0.76033429
H       -1.39757085      -0.23577907       1.80621015
H       -1.59969447      -1.62664607       0.74679189
H       -1.18602877       2.22028435       0.82900362
19
Frame=9 idx=011861 GeodesicLength=0.6034949080602712 rxn_smarts="[C:1]([C:2]([C@@:3]1([H:13])[C:4]([H:14])([H:15])[C@:5]1([C:6]([H:16])([H:17])[H:18])[O:7][H:19])([H:11])[H:12])([H:8])([H:9])[H:10]>>[C:1]([C:2]([C:3]1=[C:5]([C:6]([H:16])([H:17])[H:18])[C:4]1([H:14])[H:15])([H:11])[H:12])([H:8])([H:9])[H:10].[O:7]([H:13])[H:19]"
C        2.04474409      -0.10124643       0.97011465
C        1.53281045      -0.49977845      -0.40892302
C        0.26176509       0.17994998      -0.79052224
C       -0.85216939      -0.23210787      -1.72035769
C       -1.04574216       0.12255666      -0.29018267
C       -1.75962034      -0.55041522       0.82249198
O       -1.18825555       2.03739570      -0.10311788
H        3.01140653      -0.56093874       1.18371969
H        1.34677956      -0.41615560       1.74926835
H        2.16459080       0.98170323       1.04558850
H        1.39575112      -1.58732458      -0.45454370
H        2.28374518      -0.25043072      -1.16496228
H       -0.03343296       1.67563891      -0.51643433
H       -0.96702719      -1.28300592      -1.98602903
H       -1.18456398       0.45677907      -2.49117138
H       -2.82635968      -0.32763286       0.76204947
H       -1.39875708      -0.23862484       1.80472186
H       -1.60982228      -1.62979803       0.74838329
H       -1.17584219       2.22343570       0.83990643
19
Frame=10 idx=011861 GeodesicLength=0.6706462003780816 rxn_smarts="[C:1]([C:2]([C@@:3]1([H:13])[C:4]([H:14])([H:15])[C@:5]1([C:6]([H:16])([H:17])[H:18])[O:7][H:19])([H:11])[H:12])([H:8])([H:9])[H:10]>>[C:1]([C:2]([C:3]1=[C:5]([C:6]([H:16])([H:17])[H:18])[C:4]1([H:14])[H:15])([H:11])[H:12])([H:8])([H:9])[H:10].[O:7]([H:13])[H:19]"
C        2.04049163      -0.09802806       0.97024247
C        1.53142265      -0.49717357      -0.40961059
C        0.25540087       0.17144932      -0.79173028
C       -0.85604923      -0.24184894      -1.72309340
C       -1.05316607       0.11976408      -0.29380612
C       -1.76349792      -0.55265483       0.82178164
O       -1.17280891       2.05218752      -0.09384283
H        3.01385865      -0.54533864       1.17943287
H        1.34834203      -0.42649061       1.74884958
H        2.14603074       0.98601349       1.05104668
H        1.40294784      -1.58520610      -0.45862098
H        2.27920044      -0.23838784      -1.16579979
H       -0.00634646       1.67010746      -0.51706170
H       -0.96662151      -1.29238330      -1.99034976
H       -1.18491460       0.44720445      -2.49530473
H       -2.82877168      -0.32164200       0.76373413
H       -1.39995810      -0.24134519       1.80320094
H       -1.61977699      -1.63284888       0.75006360
H       -1.16578338       2.22662164       0.85086829
19
Frame=11 idx=011861 GeodesicLength=0.7378067394167681 rxn_smarts="[C:1]([C:2]([C@@:3]1([H:13])[C:4]([H:14])([H:15])[C@:5]1([C:6]([H:16])([H:17])[H:18])[O:7][H:19])([H:11])[H:12])([H:8])([H:9])[H:10]>>[C:1]([C:2]([C:3]1=[C:5]([C:6]([H:16])([H:17])[H:18])[C:4]1([H:14])[H:15])([H:11])[H:12])([H:8])([H:9])[H:10].[O:7]([H:13])[H:19]"
C        2.03620486      -0.09491017       0.97038747
C        1.52991186      -0.49442275      -0.41031659
C        0.24901614       0.16326419      -0.79283201
C       -0.85982623      -0.25164432      -1.72576039
C       -1.06063583       0.11709014      -0.29745639
C       -1.76734950      -0.55485623       0.82104478
O       -1.15735045       2.06704478      -0.08431019
H        3.01605071      -0.52986051       1.17513659
H        1.35003223      -0.43681925       1.74835857
H        2.12758018       0.98998886       1.05664631
H        1.41002125      -1.58285834      -0.46281923
H        2.27445213      -0.22623842      -1.16661687
H        0.02083353       1.66437019      -0.51820738
H       -0.96598340      -1.30182691      -1.99452859
H       -1.18524041       0.43740051      -2.49947613
H       -2.83112491      -0.31578554       0.76537572
H       -1.40117701      -0.24395789       1.80164122
H       -1.62955876      -1.63580958       0.75181392
H       -1.15585637       2.22983124       0.86191919
19
Frame=12 idx=011861 GeodesicLength=0.8049772699956385 rxn_smarts="[C:1]([C:2]([C@@:3]1([H:13])[C:4]([H:14])([H:15])[C@:5]1([C:6]([H:16])([H:17])[H:18])[O:7][H:19])([H:11])[H:12])([H:8])([H:9])[H:10]>>[C:1]([C:2]([C:3]1=[C:5]([C:6]([H:16])([H:17])[H:18])[C:4]1([H:14])[H:15])([H:11])[H:12])([H:8])([H:9])[H:10].[O:7]([H:13])[H:19]"
C        2.03189426      -0.09187303       0.97054318
C        1.52826914      -0.49154409      -0.41103031
C        0.24261520       0.15540796      -0.79382920
C       -0.86349368      -0.26148038      -1.72836091
C       -1.06814956       0.11453149      -0.30113597
C       -1.77117710      -0.55703134       0.82027054
O       -1.14189468       2.08197075      -0.07448542
H        3.01798751      -0.51450163       1.17083596
H        1.35185323      -0.44708269       1.74780263
H        2.10927119       0.99365105       1.06234643
H        1.41692875      -1.58029824      -0.46708994
H        2.26949996      -0.21405111      -1.16741544
H        0.04810632       1.65843753      -0.51989577
H       -0.96510069      -1.31131996      -1.99857695
H       -1.18553969       0.42738575      -2.50368197
H       -2.83342549      -0.31007730       0.76696064
H       -1.40241888      -0.24648308       1.80003574
H       -1.63916575      -1.63869254       0.75361381
H       -1.14606003       2.23305087       0.87309294
19
Frame=13 idx=011861 GeodesicLength=0.8721415998315826 rxn_smarts="[C:1]([C:2]([C@@:3]1([H:13])[C:4]([H:14])([H:15])[C@:5]1([C:6]([H:16])([H:17])[H:18])[O:7][H:19])([H:11])[H:12])([H:8])([H:9])[H:10]>>[C:1]([C:2]([C:3]1=[C:5]([C:6]([H:16])([H:17])[H:18])[C:4]1([H:14])[H:15])([H:11])[H:12])([H:8])([H:9])[H:10].[O:7]([H:13])[H:19]"
C        2.02756881      -0.08889491       0.97070250
C        1.52648511      -0.48855978      -0.41174058
C        0.23620189       0.14789080      -0.79472473
C       -0.86704517      -0.27134406      -1.73089873
C       -1.07570601       0.11208224      -0.30484854
C       -1.77498513      -0.55919292       0.81944694
O       -1.12644374       2.09696986      -0.06432968
H        3.01967791      -0.49924878       1.16653512
H        1.35380837      -0.45722233       1.74719007
H        2.09113079       0.99703222       1.06810062
H        1.42362935      -1.57754635      -0.47138132
H        2.26434282      -0.20190078      -1.16819766
H        0.07547023       1.65232169      -0.52214676
H       -0.96396327      -1.32084572      -2.00250890
H       -1.18580947       0.41717971      -2.50791929
H       -2.83568086      -0.30452568       0.76847558
H       -1.40368867      -0.24894470       1.79837688
H       -1.64860197      -1.64151220       0.75544019
H       -1.13639098       2.23626167       0.88442830
19
Frame=14 idx=011861 GeodesicLength=0.9392917284874245 rxn_smarts="[C:1]([C:2]([C@@:3]1([H:13])[C:4]([H:14])([H:15])[C@:5]1([C:6]([H:16])([H:17])[H:18])[O:7][H:19])([H:11])[H:12])([H:8])([H:9])[H:10]>>[C:1]([C:2]([C:3]1=[C:5]([C:6]([H:16])([H:17])[H:18])[C:4]1([H:14])[H:15])([H:11])[H:12])([H:8])([H:9])[H:10].[O:7]([H:13])[H:19]"
C        2.02324102      -0.08594960       0.97085653
C        1.52455078      -0.48549355      -0.41243479
C        0.22978100       0.14072586      -0.79552180
C       -0.87047377      -0.28121791      -1.73337761
C       -1.08330250       0.10974089      -0.30859687
C       -1.77877630      -0.56135448       0.81856032
O       -1.11101156       2.11204375      -0.05380076
H        3.02112881      -0.48409735       1.16223647
H        1.35589791      -0.46716351       1.74653333
H        2.07319856       1.00016474       1.07385485
H        1.43007337      -1.57462721      -0.47563245
H        2.25898383      -0.18987188      -1.16896895
H        0.10292339       1.64602806      -0.52497901
H       -0.96256021      -1.33038272      -2.00633896
H       -1.18604650       0.40680659      -2.51218468
H       -2.83789783      -0.29914702       0.76990366
H       -1.40499425      -0.25136679       1.79665664
H       -1.65786621      -1.64428328       0.75726755
H       -1.12684953       2.23944540       0.89596655
19
Frame=15 idx=011861 GeodesicLength=1.0064124043540197 rxn_smarts="[C:1]([C:2]([C@@:3]1([H:13])[C:4]([H:14])([H:15])[C@:5]1([C:6]([H:16])([H:17])[H:18])[O:7][H:19])([H:11])[H:12])([H:8])([H:9])[H:10]>>[C:1]([C:2]([C:3]1=[C:5]([C:6]([H:16])([H:17])[H:18])[C:4]1([H:14])[H:15])([H:11])[H:12])([H:8])([H:9])[H:10].[O:7]([H:13])[H:19]"
C        2.01892165      -0.08300754       0.97099655
C        1.52245576      -0.48237205      -0.41309883
C        0.22335623       0.13392302      -0.79622379
C       -0.87377323      -0.29108445      -1.73580325
C       -1.09093780       0.10750265      -0.31238484
C       -1.78255629      -0.56353167       0.81759551
O       -1.09560217       2.12719336      -0.04284999
H        3.02234995      -0.46903488       1.15794052
H        1.35812395      -0.47682397       1.74584670
H        2.05551225       1.00309141       1.07954846
H        1.43621001      -1.57156976      -0.47977715
H        2.25342563      -0.17805629      -1.16973479
H        0.13046507       1.63956461      -0.52840946
H       -0.96088203      -1.33990874      -2.01008561
H       -1.18624657       0.39629285      -2.51647518
H       -2.84008516      -0.29395484       0.77122793
H       -1.40634426      -0.25377832       1.79486582
H       -1.66696326      -1.64702303       0.75906679
H       -1.11742974       2.24257763       0.90775460
19
Frame=16 idx=011861 GeodesicLength=1.073489528449078 rxn_smarts="[C:1]([C:2]([C@@:3]1([H:13])[C:4]([H:14])([H:15])[C@:5]1([C:6]([H:16])([H:17])[H:18])[O:7][H:19])([H:11])[H:12])([H:8])([H:9])[H:10]>>[C:1]([C:2]([C:3]1=[C:5]([C:6]([H:16])([H:17])[H:18])[C:4]1([H:14])[H:15])([H:11])[H:12])([H:8])([H:9])[H:10].[O:7]([H:13])[H:19]"
C        2.01462360      -0.08003346       0.97111187
C        1.52018933      -0.47922330      -0.41371790
C        0.21693125       0.12749334      -0.79683417
C       -0.87693677      -0.30092416      -1.73818194
C       -1.09861060       0.10536371      -0.31621601
C       -1.78633113      -0.56574168       0.81653604
O       -1.08021956       2.14241767      -0.03142413
H        3.02334983      -0.45405224       1.15364705
H        1.36048451      -0.48611115       1.74514847
H        2.03811655       1.00586107       1.08511317
H        1.44198388      -1.56840645      -0.48374198
H        2.24767229      -0.16655364      -1.17050416
H        0.15809582       1.63293651      -0.53245475
H       -0.95891930      -1.34939895      -2.01376885
H       -1.18640503       0.38566793      -2.52078770
H       -2.84225232      -0.28896537       0.77242964
H       -1.40774960      -0.25621041       1.79299479
H       -1.67589648      -1.64975009       0.76080663
H       -1.10812627       2.24563067       0.91984392
