14
Frame=0 idx=011410 GeodesicLength=0.0 rxn_smarts="[O:1]=[C:2]1[C:3]([H:8])([H:9])[C:4]([H:10])=[C:5]([H:11])[C:6]([H:12])([H:13])[N:7]1[H:14]>>[O-:1][C:2]1=[C:3]([H:9])[C:4]([H:10])=[C:5]([H:11])[C:6]([H:12])([H:13])[N+:7]1([H:8])[H:14]"
O        1.27846336       2.17159614      -0.77742195
C        0.91649530       1.12383551      -0.33071356
C        1.48871766      -0.16230075      -0.07389042
C        0.57495756      -1.32069407      -0.15863781
C       -0.75449252      -1.21835465      -0.14758909
C       -1.37872239       0.14299564       0.00263795
N       -0.33612912       1.02552420       0.54532029
H        0.67248727       0.34799246       1.06239791
H        2.52943950      -0.31840706      -0.32444439
H        1.04045252      -2.29838376      -0.20592203
H       -1.39752033      -2.08586575      -0.20970327
H       -2.20556407       0.12180093       0.71559410
H       -1.77434752       0.53377892      -0.94666733
H       -0.65423722       1.93648230       0.84903964
14
Frame=1 idx=011410 GeodesicLength=0.05205373106435315 rxn_smarts="[O:1]=[C:2]1[C:3]([H:8])([H:9])[C:4]([H:10])=[C:5]([H:11])[C:6]([H:12])([H:13])[N:7]1[H:14]>>[O-:1][C:2]1=[C:3]([H:9])[C:4]([H:10])=[C:5]([H:11])[C:6]([H:12])([H:13])[N+:7]1([H:8])[H:14]"
O        1.29281113       2.17659347      -0.75646828
C        0.91402714       1.12247769      -0.33710033
C        1.48712182      -0.16333471      -0.07170268
C        0.57478961      -1.32173586      -0.16858740
C       -0.75477418      -1.21894101      -0.15427419
C       -1.37950601       0.14059937       0.00435966
N       -0.33736203       1.02928580       0.53847787
H        0.67692687       0.34867601       1.07769692
H        2.52532475      -0.31637641      -0.33514909
H        1.03975111      -2.30042247      -0.19818830
H       -1.39794251      -2.08689024      -0.20840592
H       -2.20217400       0.11637407       0.72218319
H       -1.78237136       0.52969679      -0.94233555
H       -0.65662234       1.94399749       0.82949411
14
Frame=2 idx=011410 GeodesicLength=0.1040641584438366 rxn_smarts="[O:1]=[C:2]1[C:3]([H:8])([H:9])[C:4]([H:10])=[C:5]([H:11])[C:6]([H:12])([H:13])[N:7]1[H:14]>>[O-:1][C:2]1=[C:3]([H:9])[C:4]([H:10])=[C:5]([H:11])[C:6]([H:12])([H:13])[N+:7]1([H:8])[H:14]"
O        1.30658483       2.18079747      -0.73605316
C        0.91166938       1.12121934      -0.34352854
C        1.48544902      -0.16433643      -0.06945348
C        0.57464823      -1.32273240      -0.17858709
C       -0.75503765      -1.21944825      -0.16102678
C       -1.38021753       0.13824509       0.00616352
N       -0.33853775       1.03308635       0.53156329
H        0.68142924       0.34937812       1.09315834
H        2.52124151      -0.31426487      -0.34478837
H        1.03891754      -2.30218046      -0.19121609
H       -1.39828708      -2.08781038      -0.20718756
H       -2.19855212       0.11097908       0.72896129
H       -1.79040048       0.52567564      -0.93781586
H       -0.65890715       1.95139172       0.80981050
14
Frame=3 idx=011410 GeodesicLength=0.15602818116816466 rxn_smarts="[O:1]=[C:2]1[C:3]([H:8])([H:9])[C:4]([H:10])=[C:5]([H:11])[C:6]([H:12])([H:13])[N:7]1[H:14]>>[O-:1][C:2]1=[C:3]([H:9])[C:4]([H:10])=[C:5]([H:11])[C:6]([H:12])([H:13])[N+:7]1([H:8])[H:14]"
O        1.31976104       2.18425246      -0.71624019
C        0.90942342       1.12004876      -0.34997343
C        1.48369567      -0.16531087      -0.06710670
C        0.57453042      -1.32368429      -0.18859577
C       -0.75528575      -1.21987907      -0.16781130
C       -1.38085332       0.13593613       0.00804596
N       -0.33966251       1.03692762       0.52458825
H        0.68599007       0.35009711       1.10881937
H        2.51720729      -0.31208507      -0.35337574
H        1.03796449      -2.30368631      -0.18509213
H       -1.39855818      -2.08862709      -0.20603292
H       -2.19471347       0.10563655       0.73589925
H       -1.79840465       0.52170760      -0.93312555
H       -0.66109451       1.95866647       0.79000088
14
Frame=4 idx=011410 GeodesicLength=0.20794526739295882 rxn_smarts="[O:1]=[C:2]1[C:3]([H:8])([H:9])[C:4]([H:10])=[C:5]([H:11])[C:6]([H:12])([H:13])[N:7]1[H:14]>>[O-:1][C:2]1=[C:3]([H:9])[C:4]([H:10])=[C:5]([H:11])[C:6]([H:12])([H:13])[N+:7]1([H:8])[H:14]"
O        1.33233153       2.18701456      -0.69706596
C        0.90728644       1.11895554      -0.35642066
C        1.48185740      -0.16626167      -0.06464212
C        0.57443305      -1.32459096      -0.19859077
C       -0.75552126      -1.22023682      -0.17460150
C       -1.38141092       0.13367502       0.01000137
N       -0.34074046       1.04080787       0.51756156
H        0.69060860       0.35082449       1.12470762
H        2.51322068      -0.30984698      -0.36095050
H        1.03690884      -2.30496797      -0.17983375
H       -1.39875978      -2.08934230      -0.20493933
H       -2.19067259       0.10036266       0.74296906
H       -1.80635926       0.51778830      -0.92828144
H       -0.66318228       1.96581826       0.77008643
14
Frame=5 idx=011410 GeodesicLength=0.2598342899912741 rxn_smarts="[O:1]=[C:2]1[C:3]([H:8])([H:9])[C:4]([H:10])=[C:5]([H:11])[C:6]([H:12])([H:13])[N:7]1[H:14]>>[O-:1][C:2]1=[C:3]([H:9])[C:4]([H:10])=[C:5]([H:11])[C:6]([H:12])([H:13])[N+:7]1([H:8])[H:14]"
O        1.34431852       2.18915403      -0.67852239
C        0.90525631       1.11793625      -0.36286835
C        1.47993275      -0.16718929      -0.06205067
C        0.57435074      -1.32545140      -0.20857309
C       -0.75575153      -1.22052719      -0.18139141
C       -1.38189320       0.13146000       0.01202533
N       -0.34177636       1.04472797       0.51048459
H        0.69529210       0.35155490       1.14084233
H        2.50929765      -0.30755402      -0.36756249
H        1.03575345      -2.30606414      -0.17541322
H       -1.39890288      -2.08996653      -0.20390271
H       -2.18643621       0.09515655       0.75016001
H       -1.81426501       0.51391465      -0.92329176
H       -0.66517633       1.97284823       0.75006381
14
Frame=6 idx=011410 GeodesicLength=0.31167919496670254 rxn_smarts="[O:1]=[C:2]1[C:3]([H:8])([H:9])[C:4]([H:10])=[C:5]([H:11])[C:6]([H:12])([H:13])[N:7]1[H:14]>>[O-:1][C:2]1=[C:3]([H:9])[C:4]([H:10])=[C:5]([H:11])[C:6]([H:12])([H:13])[N+:7]1([H:8])[H:14]"
O        1.35573053       2.19072349      -0.66060240
C        0.90332522       1.11697458      -0.36930521
C        1.47791094      -0.16810140      -0.05933702
C        0.57428132      -1.32626083      -0.21856451
C       -0.75597520      -1.22074530      -0.18819725
C       -1.38229544       0.12929326       0.01411345
N       -0.34277379       1.04868390       0.50336013
H        0.70002725       0.35225244       1.15723059
H        2.50541647      -0.30523575      -0.37327890
H        1.03452520      -2.30695887      -0.17173373
H       -1.39897882      -2.09048755      -0.20293386
H       -2.18200010       0.09001461       0.75746476
H       -1.82211609       0.51009300      -0.91815383
H       -0.66707748       1.97975443       0.72993777
14
Frame=7 idx=011410 GeodesicLength=0.3634676227044106 rxn_smarts="[O:1]=[C:2]1[C:3]([H:8])([H:9])[C:4]([H:10])=[C:5]([H:11])[C:6]([H:12])([H:13])[N:7]1[H:14]>>[O-:1][C:2]1=[C:3]([H:9])[C:4]([H:10])=[C:5]([H:11])[C:6]([H:12])([H:13])[N+:7]1([H:8])[H:14]"
O        1.36661739       2.19175774      -0.64322738
C        0.90148057       1.11605849      -0.37575620
C        1.47578653      -0.16899646      -0.05649438
C        0.57422539      -1.32700825      -0.22854449
C       -0.75619106      -1.22088794      -0.19498941
C       -1.38262142       0.12717390       0.01627007
N       -0.34374648       1.05267730       0.49616691
H        0.70482553       0.35294909       1.17387162
H        2.50159203      -0.30288238      -0.37813640
H        1.03321675      -2.30771698      -0.16881899
H       -1.39898875      -2.09090596      -0.20203484
H       -2.17735682       0.08494839       0.76488862
H       -1.82992567       0.50630202      -0.91285560
H       -0.66891399       1.98653104       0.70966050
14
Frame=8 idx=011410 GeodesicLength=0.4152481917998873 rxn_smarts="[O:1]=[C:2]1[C:3]([H:8])([H:9])[C:4]([H:10])=[C:5]([H:11])[C:6]([H:12])([H:13])[N:7]1[H:14]>>[O-:1][C:2]1=[C:3]([H:9])[C:4]([H:10])=[C:5]([H:11])[C:6]([H:12])([H:13])[N+:7]1([H:8])[H:14]"
O        1.37700813       2.19233713      -0.62639731
C        0.89972678       1.11519658      -0.38222036
C        1.47355833      -0.16987265      -0.05352579
C        0.57417324      -1.32770255      -0.23853238
C       -0.75641247      -1.22096960      -0.20178491
C       -1.38287518       0.12509600       0.01848957
N       -0.34468954       1.05671343       0.48890987
H        0.70969477       0.35361741       1.19079006
H        2.49781669      -0.30050181      -0.38219028
H        1.03183649      -2.30834395      -0.16657707
H       -1.39895027      -2.09124387      -0.20122500
H       -2.17250755       0.07993847       0.77243493
H       -1.83770531       0.50254439      -0.90741028
H       -0.67067411       1.99319102       0.68923894
14
Frame=9 idx=011410 GeodesicLength=0.4670070745984458 rxn_smarts="[O:1]=[C:2]1[C:3]([H:8])([H:9])[C:4]([H:10])=[C:5]([H:11])[C:6]([H:12])([H:13])[N:7]1[H:14]>>[O-:1][C:2]1=[C:3]([H:9])[C:4]([H:10])=[C:5]([H:11])[C:6]([H:12])([H:13])[N+:7]1([H:8])[H:14]"
O        1.38691891       2.19249395      -0.61008462
C        0.89805585       1.11437798      -0.38870071
C        1.47121904      -0.17073249      -0.05043325
C        0.57412441      -1.32833770      -0.24853116
C       -0.75663806      -1.22098683      -0.20857941
C       -1.38305538       0.12306095       0.02076967
N       -0.34560989       1.06079031       0.48158294
H        0.71463754       0.35424734       1.20799043
H        2.49408364      -0.29810288      -0.38548040
H        1.03039298      -2.30884936      -0.16497593
H       -1.39886010      -2.09149613      -0.20050311
H       -2.16744988       0.07499027       0.78009626
H       -1.84545200       0.49881630      -0.90181545
H       -0.67236706       1.99972830       0.66866474
14
Frame=10 idx=011410 GeodesicLength=0.5187484862081595 rxn_smarts="[O:1]=[C:2]1[C:3]([H:8])([H:9])[C:4]([H:10])=[C:5]([H:11])[C:6]([H:12])([H:13])[N:7]1[H:14]>>[O-:1][C:2]1=[C:3]([H:9])[C:4]([H:10])=[C:5]([H:11])[C:6]([H:12])([H:13])[N+:7]1([H:8])[H:14]"
O        1.39637161       2.19226726      -0.59426342
C        0.89646311       1.11359826      -0.39520327
C        1.46876342      -0.17157606      -0.04721776
C        0.57407635      -1.32891084      -0.25854270
C       -0.75687116      -1.22094200      -0.21536952
C       -1.38316351       0.12106783       0.02310653
N       -0.34651234       1.06490874       0.47417973
H        0.71966160       0.35483125       1.22548269
H        2.49039019      -0.29568872      -0.38803756
H        1.02889171      -2.30924779      -0.16399601
H       -1.39872270      -2.09166820      -0.19986065
H       -2.16218345       0.07010493       0.78786727
H       -1.85316721       0.49511376      -0.89607478
H       -0.67399761       2.00614158       0.64792944
14
Frame=11 idx=011410 GeodesicLength=0.5704628308414235 rxn_smarts="[O:1]=[C:2]1[C:3]([H:8])([H:9])[C:4]([H:10])=[C:5]([H:11])[C:6]([H:12])([H:13])[N:7]1[H:14]>>[O-:1][C:2]1=[C:3]([H:9])[C:4]([H:10])=[C:5]([H:11])[C:6]([H:12])([H:13])[N+:7]1([H:8])[H:14]"
O        1.40537667       2.19168430      -0.57891756
C        0.89494242       1.11284858      -0.40173001
C        1.46618403      -0.17240528      -0.04388019
C        0.57402732      -1.32941902      -0.26856612
C       -0.75711068      -1.22083301      -0.22215090
C       -1.38319832       0.11911758       0.02549821
N       -0.34740247       1.06906844       0.46669509
H        0.72476952       0.35535615       1.24327492
H        2.48672725      -0.29326837      -0.38988984
H        1.02734323      -2.30954309      -0.16361739
H       -1.39853540      -2.09175531      -0.19929760
H       -2.15670575       0.06528706       0.79574238
H       -1.86084700       0.49143342      -0.89018786
H       -0.67557082       2.01242856       0.62702689
14
Frame=12 idx=011410 GeodesicLength=0.622165871259331 rxn_smarts="[O:1]=[C:2]1[C:3]([H:8])([H:9])[C:4]([H:10])=[C:5]([H:11])[C:6]([H:12])([H:13])[N:7]1[H:14]>>[O-:1][C:2]1=[C:3]([H:9])[C:4]([H:10])=[C:5]([H:11])[C:6]([H:12])([H:13])[N+:7]1([H:8])[H:14]"
O        1.41397663       2.19078202      -0.56399468
C        0.89349491       1.11212988      -0.40828919
C        1.46347686      -0.17321864      -0.04042251
C        0.57397449      -1.32985851      -0.27861423
C       -0.75736174      -1.22066192      -0.22893485
C       -1.38316251       0.11720721       0.02794717
N       -0.34828439       1.07327543       0.45911470
H        0.72996864       0.35581369       1.26137548
H        2.48309067      -0.29084467      -0.39107274
H        1.02574635      -2.30974633      -0.16379500
H       -1.39830328      -2.09176597      -0.19882396
H       -2.15100081       0.06052444       0.80373955
H       -1.86851594       0.48776871      -0.88414243
H       -0.67709988       2.01859467       0.60591270
14
Frame=13 idx=011410 GeodesicLength=0.6738519716456408 rxn_smarts="[O:1]=[C:2]1[C:3]([H:8])([H:9])[C:4]([H:10])=[C:5]([H:11])[C:6]([H:12])([H:13])[N:7]1[H:14]>>[O-:1][C:2]1=[C:3]([H:9])[C:4]([H:10])=[C:5]([H:11])[C:6]([H:12])([H:13])[N+:7]1([H:8])[H:14]"
O        1.42216834       2.18958548      -0.54949014
C        0.89211450       1.11143798      -0.41488004
C        1.46063676      -0.17401582      -0.03685019
C        0.57391658      -1.33022529      -0.28868160
C       -0.75762532      -1.22042932      -0.23570822
C       -1.38305631       0.11533877       0.03044251
N       -0.34916343       1.07752439       0.45143843
H        0.73527459       0.35618911       1.27979623
H        2.47947157      -0.28841906      -0.39162181
H        1.02410910      -2.30986370      -0.16451399
H       -1.39802634      -2.09170214      -0.19841727
H       -2.14508528       0.05583149       0.81182730
H       -1.87615343       0.48411967      -0.87795736
H       -0.67858133       2.02462842       0.58461615
14
Frame=14 idx=011410 GeodesicLength=0.7255319127701425 rxn_smarts="[O:1]=[C:2]1[C:3]([H:8])([H:9])[C:4]([H:10])=[C:5]([H:11])[C:6]([H:12])([H:13])[N:7]1[H:14]>>[O-:1][C:2]1=[C:3]([H:9])[C:4]([H:10])=[C:5]([H:11])[C:6]([H:12])([H:13])[N+:7]1([H:8])[H:14]"
O        1.42998207       2.18812405      -0.53537313
C        0.89080174       1.11077203      -0.42150904
C        1.45765834      -0.17479585      -0.03316078
C        0.57385042      -1.33051853      -0.29877060
C       -0.75790463      -1.22013737      -0.24247475
C       -1.38288084       0.11351017       0.03299030
N       -0.35004339       1.08182407       0.44365357
H        0.74069342       0.35647302       1.29854882
H        2.47586462      -0.28599721      -0.39155185
H        1.02243412      -2.30990148      -0.16575334
H       -1.39771071      -2.09156804      -0.19810163
H       -2.13893967       0.05119834       0.82002874
H       -1.88377959       0.48047750      -0.87161879
H       -0.68002590       2.03053931       0.56309248
14
Frame=15 idx=011410 GeodesicLength=0.7772024866581435 rxn_smarts="[O:1]=[C:2]1[C:3]([H:8])([H:9])[C:4]([H:10])=[C:5]([H:11])[C:6]([H:12])([H:13])[N:7]1[H:14]>>[O-:1][C:2]1=[C:3]([H:9])[C:4]([H:10])=[C:5]([H:11])[C:6]([H:12])([H:13])[N+:7]1([H:8])[H:14]"
O        1.43744364       2.18640671      -0.52159067
C        0.88955654       1.11012731      -0.42818013
C        1.45453331      -0.17555980      -0.02935498
C        0.57377601      -1.33072880      -0.30889550
C       -0.75819888      -1.21977948      -0.24925020
C       -1.38263565       0.11172161       0.03559087
N       -0.35093252       1.08617903       0.43574050
H        0.74622507       0.35665025       1.31763774
H        2.47226089      -0.28358666      -0.39087671
H        1.02072518      -2.30985778      -0.16750271
H       -1.39734872      -2.09135901      -0.19785571
H       -2.13254304       0.04661991       0.82835630
H       -1.89141212       0.47683917      -0.86511033
H       -0.68144969       2.03632755       0.54129154
14
Frame=16 idx=011410 GeodesicLength=0.8288746028323425 rxn_smarts="[O:1]=[C:2]1[C:3]([H:8])([H:9])[C:4]([H:10])=[C:5]([H:11])[C:6]([H:12])([H:13])[N:7]1[H:14]>>[O-:1][C:2]1=[C:3]([H:9])[C:4]([H:10])=[C:5]([H:11])[C:6]([H:12])([H:13])[N+:7]1([H:8])[H:14]"
O        1.44456456       2.18446187      -0.50813561
C        0.88837950       1.10950435      -0.43489471
C        1.45125786      -0.17630552      -0.02543193
C        0.57368975      -1.33085558      -0.31905041
C       -0.75851261      -1.21935906      -0.25602833
C       -1.38232225       0.10997242       0.03824411
N       -0.35183456       1.09059268       0.42769268
H        0.75188610       0.35670774       1.33708056
H        2.46865547      -0.28118735      -0.38961404
H        1.01898520      -2.30973961      -0.16974708
H       -1.39694893      -2.09108068      -0.19769471
H       -2.12589157       0.04209673       0.83681121
H       -1.89905379       0.47319929      -0.85843263
H       -0.68285474       2.04199272       0.51920089
