13
Frame=0 idx=002428 GeodesicLength=0.0 rxn_smarts="[C:1]1([H:7])([H:8])[C@@:2]2([H:9])[C@@:3]3([H:10])[C@:4]1([H:11])[C:5]([H:12])([H:13])[N:6]23>>[C:1]([C@@:2]1([H:9])[C@@:3]2([H:10])[C:4]([H:8])([H:11])[C:5]([H:12])([H:13])[N:6]12)[H:7]"
C        1.58981629      -0.60019864       0.27562491
C        0.74489434       0.37676380       1.01279232
C       -0.00464660       1.16200487       0.04099662
C       -0.11004518       0.07525477      -1.04096067
C       -1.12086898      -0.58758533      -0.10078889
N       -0.75140090       0.31415883       1.01922806
H        1.22566584      -1.63127121       0.42673155
H        0.94424772      -0.41122803      -1.12328045
H        1.16157569       0.80594613       1.91608835
H       -0.11509159       2.23398490      -0.04622304
H       -0.37600549       0.26968583      -2.07800675
H       -1.04586303      -1.65886721       0.09539173
H       -2.14227816      -0.34864870      -0.39759380
13
Frame=1 idx=002428 GeodesicLength=0.06017399730672444 rxn_smarts="[C:1]1([H:7])([H:8])[C@@:2]2([H:9])[C@@:3]3([H:10])[C@:4]1([H:11])[C:5]([H:12])([H:13])[N:6]23>>[C:1]([C@@:2]1([H:9])[C@@:3]2([H:10])[C:4]([H:8])([H:11])[C:5]([H:12])([H:13])[N:6]12)[H:7]"
C        1.58018048      -0.59831836       0.27374899
C        0.74276526       0.37526629       1.01888065
C       -0.00485919       1.16011300       0.04057055
C       -0.10727562       0.06939175      -1.03817871
C       -1.12282950      -0.58819692      -0.09916043
N       -0.75356067       0.31728658       1.01844715
H        1.22186822      -1.63180859       0.41672001
H        0.96628951      -0.40662016      -1.13741204
H        1.15777080       0.81088135       1.91957015
H       -0.10797309       2.23275412      -0.04687610
H       -0.38087088       0.26941945      -2.07225861
H       -1.04705764      -1.65832326       0.10292436
H       -2.14444768      -0.35184525      -0.39697596
13
Frame=2 idx=002428 GeodesicLength=0.12033729997471543 rxn_smarts="[C:1]1([H:7])([H:8])[C@@:2]2([H:9])[C@@:3]3([H:10])[C@:4]1([H:11])[C:5]([H:12])([H:13])[N:6]23>>[C:1]([C@@:2]1([H:9])[C@@:3]2([H:10])[C:4]([H:8])([H:11])[C:5]([H:12])([H:13])[N:6]12)[H:7]"
C        1.57051055      -0.59640079       0.27164335
C        0.74063499       0.37367803       1.02491327
C       -0.00515243       1.15817803       0.04015714
C       -0.10454746       0.06342764      -1.03535866
C       -1.12494231      -0.58876430      -0.09749503
N       -0.75569565       0.32035352       1.01771728
H        1.21815529      -1.63224321       0.40657672
H        0.98848625      -0.40161757      -1.15121559
H        1.15403657       0.81574699       1.92290206
H       -0.10092845       2.23143251      -0.04749166
H       -0.38538180       0.26880220      -2.06652925
H       -1.04843839      -1.65770730       0.11049272
H       -2.14673716      -0.35488575      -0.39631236
13
Frame=3 idx=002428 GeodesicLength=0.18049953370132865 rxn_smarts="[C:1]1([H:7])([H:8])[C@@:2]2([H:9])[C@@:3]3([H:10])[C@:4]1([H:11])[C:5]([H:12])([H:13])[N:6]23>>[C:1]([C@@:2]1([H:9])[C@@:3]2([H:10])[C:4]([H:8])([H:11])[C:5]([H:12])([H:13])[N:6]12)[H:7]"
C        1.56081367      -0.59444787       0.26931790
C        0.73850926       0.37199974       1.03088218
C       -0.00552419       1.15620454       0.03975331
C       -0.10187690       0.05738091      -1.03250859
C       -1.12720130      -0.58928797      -0.09579727
N       -0.75780141       0.32335982       1.01703485
H        1.21452664      -1.63257369       0.39631626
H        1.01082963      -0.39625919      -1.16466604
H        1.15037282       0.82054140       1.92607983
H       -0.09395612       2.23002529      -0.04806530
H       -0.38955499       0.26785702      -2.06083695
H       -1.04999127      -1.65702025       0.11808684
H       -2.14914583      -0.35777975      -0.39559702
13
Frame=4 idx=002428 GeodesicLength=0.24066007816584217 rxn_smarts="[C:1]1([H:7])([H:8])[C@@:2]2([H:9])[C@@:3]3([H:10])[C@:4]1([H:11])[C:5]([H:12])([H:13])[N:6]23>>[C:1]([C@@:2]1([H:9])[C@@:3]2([H:10])[C:4]([H:8])([H:11])[C:5]([H:12])([H:13])[N:6]12)[H:7]"
C        1.55109652      -0.59246134       0.26678336
C        0.73639351       0.37023295       1.03677998
C       -0.00597204       1.15419720       0.03935570
C       -0.09927879       0.05126919      -1.02963661
C       -1.12959964      -0.58976886      -0.09407156
N       -0.75987372       0.32630592       1.01639619
H        1.21098112      -1.63279913       0.38595303
H        1.03331262      -0.39058522      -1.17774162
H        1.14677907       0.82526318       1.92910008
H       -0.08705512       2.22853764      -0.04859322
H       -0.39340941       0.26660892      -2.05519788
H       -1.05170186      -1.65626346       0.12569688
H       -2.15167226      -0.36053699      -0.39482432
13
Frame=5 idx=002428 GeodesicLength=0.30082007258671956 rxn_smarts="[C:1]1([H:7])([H:8])[C@@:2]2([H:9])[C@@:3]3([H:10])[C@:4]1([H:11])[C:5]([H:12])([H:13])[N:6]23>>[C:1]([C@@:2]1([H:9])[C@@:3]2([H:10])[C:4]([H:8])([H:11])[C:5]([H:12])([H:13])[N:6]12)[H:7]"
C        1.54136509      -0.59044226       0.26404986
C        0.73429289       0.36837955       1.04259951
C       -0.00649396       1.15216090       0.03896119
C       -0.09676804       0.04510962      -1.02675046
C       -1.13213037      -0.59020817      -0.09232162
N       -0.76190868       0.32919255       1.01579771
H        1.20751621      -1.63291920       0.37550094
H        1.05593313      -0.38463620      -1.19042408
H        1.14325436       0.82991064       1.93196007
H       -0.08022512       2.22697533      -0.04907161
H       -0.39696438       0.26508267      -2.04962709
H       -1.05355569      -1.65543836       0.13331346
H       -2.15431543      -0.36316708      -0.39398789
13
Frame=6 idx=002428 GeodesicLength=0.36098747082894156 rxn_smarts="[C:1]1([H:7])([H:8])[C@@:2]2([H:9])[C@@:3]3([H:10])[C@:4]1([H:11])[C:5]([H:12])([H:13])[N:6]23>>[C:1]([C@@:2]1([H:9])[C@@:3]2([H:10])[C:4]([H:8])([H:11])[C:5]([H:12])([H:13])[N:6]12)[H:7]"
C        1.53162342      -0.58839294       0.26112838
C        0.73221176       0.36644210       1.04833447
C       -0.00708789       1.15010047       0.03856648
C       -0.09435999       0.03891887      -1.02385781
C       -1.13478715      -0.59060706      -0.09055044
N       -0.76390336       0.33202127       1.01523608
H        1.20412827      -1.63293351       0.36497195
H        1.07869683      -0.37845090      -1.20269752
H        1.13979749       0.83448228       1.93465795
H       -0.07346427       2.22534348      -0.04949888
H       -0.40024298       0.26330423      -2.04413735
H       -1.05553809      -1.65454724       0.14092748
H       -2.15707403      -0.36568104      -0.39308077
13
Frame=7 idx=002428 GeodesicLength=0.4211573967550245 rxn_smarts="[C:1]1([H:7])([H:8])[C@@:2]2([H:9])[C@@:3]3([H:10])[C@:4]1([H:11])[C:5]([H:12])([H:13])[N:6]23>>[C:1]([C@@:2]1([H:9])[C@@:3]2([H:10])[C:4]([H:8])([H:11])[C:5]([H:12])([H:13])[N:6]12)[H:7]"
C        1.52187575      -0.58631470       0.25802737
C        0.73015406       0.36442324       1.05397899
C       -0.00775239       1.14802055       0.03816856
C       -0.09206816       0.03271145      -1.02096552
C       -1.13756384      -0.59096691      -0.08876073
N       -0.76585495       0.33479332       1.01470820
H        1.20081411      -1.63284175       0.35437683
H        1.10161035      -0.37206651      -1.21454762
H        1.13640753       0.83897625       1.93719228
H       -0.06677276       2.22364731      -0.04987318
H       -0.40326615       0.26129773      -2.03873992
H       -1.05763636      -1.65359213       0.14853114
H       -2.15994720      -0.36808786      -0.39209642
13
Frame=8 idx=002428 GeodesicLength=0.481336249245634 rxn_smarts="[C:1]1([H:7])([H:8])[C@@:2]2([H:9])[C@@:3]3([H:10])[C@:4]1([H:11])[C:5]([H:12])([H:13])[N:6]23>>[C:1]([C@@:2]1([H:9])[C@@:3]2([H:10])[C:4]([H:8])([H:11])[C:5]([H:12])([H:13])[N:6]12)[H:7]"
C        1.51212453      -0.58420904       0.25475610
C        0.72812323       0.36232578       1.05952724
C       -0.00848631       1.14592550       0.03776401
C       -0.08990658       0.02650097      -1.01808041
C       -1.14045497      -0.59128950      -0.08695406
N       -0.76776129       0.33751054       1.01421128
H        1.19756818      -1.63264445       0.34372428
H        1.12469028      -0.36551673      -1.22596105
H        1.13308365       0.84339057       1.93956156
H       -0.06014985       2.22189141      -0.05019462
H       -0.40605832       0.25908785      -2.03344435
H       -1.05983782      -1.65257568       0.15611743
H       -2.16293473      -0.37039723      -0.39102742
13
Frame=9 idx=002428 GeodesicLength=0.5415179239611696 rxn_smarts="[C:1]1([H:7])([H:8])[C@@:2]2([H:9])[C@@:3]3([H:10])[C@:4]1([H:11])[C:5]([H:12])([H:13])[N:6]23>>[C:1]([C@@:2]1([H:9])[C@@:3]2([H:10])[C:4]([H:8])([H:11])[C:5]([H:12])([H:13])[N:6]12)[H:7]"
C        1.50237190      -0.58207657       0.25131959
C        0.72612260       0.36015231       1.06497350
C       -0.00928966       1.14381951       0.03734998
C       -0.08788767       0.02029833      -1.01520803
C       -1.14345620      -0.59157615      -0.08513109
N       -0.76962038       0.34017424       1.01374324
H        1.19438521      -1.63234274       0.33302171
H        1.14795408      -0.35882990      -1.23692517
H        1.12982607       0.84772248       1.94176387
H       -0.05359755       2.22008040      -0.05046275
H       -0.40863862       0.25669428      -2.02825921
H       -1.06213256      -1.65149995       0.16368085
H       -2.16603722      -0.37261625      -0.38986650
13
Frame=10 idx=002428 GeodesicLength=0.601709906706225 rxn_smarts="[C:1]1([H:7])([H:8])[C@@:2]2([H:9])[C@@:3]3([H:10])[C@:4]1([H:11])[C:5]([H:12])([H:13])[N:6]23>>[C:1]([C@@:2]1([H:9])[C@@:3]2([H:10])[C:4]([H:8])([H:11])[C:5]([H:12])([H:13])[N:6]12)[H:7]"
C        1.49261833      -0.57991987       0.24772707
C        0.72415456       0.35790594       1.07031309
C       -0.01016162       1.14170615       0.03692280
C       -0.08602461       0.01411456      -1.01235459
C       -1.14656347      -0.59182858      -0.08329237
N       -0.77143101       0.34278681       1.01330184
H        1.19125866      -1.63193731       0.32227358
H        1.17142825      -0.35203393      -1.24743005
H        1.12663389       0.85197054       1.94379873
H       -0.04711464       2.21821798      -0.05068005
H       -0.41103386       0.25414038      -2.02319055
H       -1.06450967      -1.65036838       0.17121621
H       -2.16925483      -0.37475428      -0.38860572
13
Frame=11 idx=002428 GeodesicLength=0.6619042176046757 rxn_smarts="[C:1]1([H:7])([H:8])[C@@:2]2([H:9])[C@@:3]3([H:10])[C@:4]1([H:11])[C:5]([H:12])([H:13])[N:6]23>>[C:1]([C@@:2]1([H:9])[C@@:3]2([H:10])[C:4]([H:8])([H:11])[C:5]([H:12])([H:13])[N:6]12)[H:7]"
C        1.48286483      -0.57773966       0.24398482
C        0.72222170       0.35558935       1.07554101
C       -0.01110211       1.13958876       0.03647905
C       -0.08432849       0.00795815      -1.00952544
C       -1.14977314      -0.59204848      -0.08143780
N       -0.77319168       0.34535004       1.01288501
H        1.18818113      -1.63143019       0.31148364
H        1.19513831      -0.34515197      -1.25746538
H        1.12350706       0.85613256       1.94566498
H       -0.04070227       2.21630773      -0.05084853
H       -0.41326714       0.25144592      -2.01824327
H       -1.06696029      -1.64918320       0.17871968
H       -2.17258789      -0.37681903      -0.38723778
13
Frame=12 idx=002428 GeodesicLength=0.7221034917215974 rxn_smarts="[C:1]1([H:7])([H:8])[C@@:2]2([H:9])[C@@:3]3([H:10])[C@:4]1([H:11])[C:5]([H:12])([H:13])[N:6]23>>[C:1]([C@@:2]1([H:9])[C@@:3]2([H:10])[C:4]([H:8])([H:11])[C:5]([H:12])([H:13])[N:6]12)[H:7]"
C        1.47311030      -0.57553806       0.24009662
C        0.72032599       0.35320515       1.08065226
C       -0.01211196       1.13747005       0.03601513
C       -0.08281116       0.00183601      -1.00672554
C       -1.15308330      -0.59223754      -0.07956619
N       -0.77490181       0.34786587       1.01249142
H        1.18514577      -1.63082279       0.30065236
H        1.21911903      -0.33820175      -1.26701809
H        1.12044643       0.86020625       1.94736096
H       -0.03436120       2.21435242      -0.05097176
H       -0.41536194       0.24862843      -2.01342170
H       -1.06947745      -1.64794736       0.18618870
H       -2.17603869      -0.37881671      -0.38575418
13
Frame=13 idx=002428 GeodesicLength=0.7823012663277649 rxn_smarts="[C:1]1([H:7])([H:8])[C@@:2]2([H:9])[C@@:3]3([H:10])[C@:4]1([H:11])[C:5]([H:12])([H:13])[N:6]23>>[C:1]([C@@:2]1([H:9])[C@@:3]2([H:10])[C:4]([H:8])([H:11])[C:5]([H:12])([H:13])[N:6]12)[H:7]"
C        1.46335433      -0.57331608       0.23606526
C        0.71846946       0.35075547       1.08564181
C       -0.01319217       1.13535247       0.03552750
C       -0.08148344      -0.00424619      -1.00395944
C       -1.15649243      -0.59239723      -0.07767622
N       -0.77656051       0.35033618       1.01211976
H        1.18214539      -1.63011693       0.28977957
H        1.24340448      -0.33119884      -1.27607548
H        1.11745288       0.86418897       1.94888490
H       -0.02809314       2.21235477      -0.05105331
H       -0.41734044       0.24570383      -2.00872903
H       -1.07205532      -1.64666329       0.19362146
H       -2.17960908      -0.38075314      -0.38414676
13
Frame=14 idx=002428 GeodesicLength=0.8425000785916855 rxn_smarts="[C:1]1([H:7])([H:8])[C@@:2]2([H:9])[C@@:3]3([H:10])[C@:4]1([H:11])[C:5]([H:12])([H:13])[N:6]23>>[C:1]([C@@:2]1([H:9])[C@@:3]2([H:10])[C:4]([H:8])([H:11])[C:5]([H:12])([H:13])[N:6]12)[H:7]"
C        1.45359546      -0.57107599       0.23189222
C        0.71665358       0.34824241       1.09050460
C       -0.01434417       1.13323797       0.03501190
C       -0.08035672      -0.01028408      -1.00123181
C       -1.16000058      -0.59252909      -0.07576581
N       -0.77816769       0.35276307       1.01176897
H        1.17917259      -1.62931466       0.27886179
H        1.26803775      -0.32415400      -1.28462069
H        1.11452859       0.86807808       1.95023437
H       -0.02189953       2.21031658      -0.05109885
H       -0.41922736       0.24268713      -2.00416735
H       -1.07468964      -1.64533388       0.20101715
H       -2.18330228      -0.38263353      -0.38240649
13
Frame=15 idx=002428 GeodesicLength=0.9024058018807184 rxn_smarts="[C:1]1([H:7])([H:8])[C@@:2]2([H:9])[C@@:3]3([H:10])[C@:4]1([H:11])[C:5]([H:12])([H:13])[N:6]23>>[C:1]([C@@:2]1([H:9])[C@@:3]2([H:10])[C:4]([H:8])([H:11])[C:5]([H:12])([H:13])[N:6]12)[H:7]"
C        1.44382714      -0.56881711       0.22764338
C        0.71486413       0.34568483       1.09527404
C       -0.01556147       1.13114100       0.03446355
C       -0.07936205      -0.01627606      -0.99853377
C       -1.16356742      -0.59264986      -0.07383834
N       -0.77974672       0.35515332       1.01144843
H        1.17621758      -1.62842766       0.26795223
H        1.29287197      -0.31712339      -1.29285302
H        1.11164808       0.87189961       1.95145708
H       -0.01571990       2.20826250      -0.05110719
H       -0.42106270       0.23963716      -1.99969719
H       -1.07734131      -1.64399135       0.20837161
H       -2.18706733      -0.38449300      -0.38058081
13
Frame=16 idx=002428 GeodesicLength=0.9628472286773322 rxn_smarts="[C:1]1([H:7])([H:8])[C@@:2]2([H:9])[C@@:3]3([H:10])[C@:4]1([H:11])[C:5]([H:12])([H:13])[N:6]23>>[C:1]([C@@:2]1([H:9])[C@@:3]2([H:10])[C:4]([H:8])([H:11])[C:5]([H:12])([H:13])[N:6]12)[H:7]"
C        1.43405788      -0.56653913       0.22312000
C        0.71315432       0.34303817       1.09982275
C       -0.01687012       1.12902885       0.03388109
C       -0.07874715      -0.02220353      -0.99591640
C       -1.16730420      -0.59271649      -0.07187801
N       -0.78122173       0.35749084       1.01112559
H        1.17328070      -1.62742389       0.25688889
H        1.31848961      -0.31002351      -1.30008889
H        1.10890236       0.87556265       1.95239710
H       -0.00975477       2.20612863      -0.05109842
H       -0.42282606       0.23645513      -1.99544511
H       -1.08009320      -1.64255199       0.21568347
H       -2.19106765      -0.38624572      -0.37849205
