14
Frame=0 idx=007139 GeodesicLength=0.0 rxn_smarts="[N:1](=[C:2]1\[O:3][C:4]([H:9])([H:10])[C@@:5]2([H:11])[C:6]([H:12])([H:13])[C@@:7]12[H:14])\[H:8]>>[N:1](=[C:2](/[C:7]1([H:14])[C:5]([H:11])=[C:6]1[H:13])[H:12])\[H:8].[O:3]=[C:4]([H:9])[H:10]"
N        1.52723910      -1.97686775       0.43924469
C        0.70142209      -1.07222481       0.18716193
O        1.35890994       0.81172762      -0.70453611
C        0.39863577       1.61298245      -0.38342290
C       -0.89985163       0.71633209       0.24120388
C       -1.25674364      -0.48924197      -0.32101617
C       -0.44459650      -0.55296363       0.92323648
H        2.08512276      -2.24721688      -0.36309872
H       -0.08946547       2.14847210      -1.21577579
H        0.59338279       2.28495680       0.46762915
H       -1.62628220       1.40469771       0.64835729
H        0.39804803      -0.72860952      -0.91970049
H       -1.98745460      -1.02653094      -0.90172564
H       -0.75836645      -0.88551323       1.90244238
14
Frame=1 idx=007139 GeodesicLength=0.10803688967493079 rxn_smarts="[N:1](=[C:2]1\[O:3][C:4]([H:9])([H:10])[C@@:5]2([H:11])[C:6]([H:12])([H:13])[C@@:7]12[H:14])\[H:8]>>[N:1](=[C:2](/[C:7]1([H:14])[C:5]([H:11])=[C:6]1[H:13])[H:12])\[H:8].[O:3]=[C:4]([H:9])[H:10]"
N        1.52785246      -1.97714066       0.44649985
C        0.70981263      -1.06687380       0.18593037
O        1.37099400       0.81077790      -0.69562209
C        0.41243177       1.62075862      -0.38608661
C       -0.90831355       0.71242683       0.25089479
C       -1.26449802      -0.48678368      -0.32659214
C       -0.44949027      -0.56360416       0.91720053
H        2.11103679      -2.22903643      -0.34400451
H       -0.08446718       2.13686170      -1.22490038
H        0.61284924       2.31068848       0.44881078
H       -1.62961790       1.40020118       0.66801595
H        0.37209781      -0.73690536      -0.93543723
H       -2.01354581      -1.01421872      -0.89239887
H       -0.76714199      -0.91715190       1.88768957
14
Frame=2 idx=007139 GeodesicLength=0.21602834224025808 rxn_smarts="[N:1](=[C:2]1\[O:3][C:4]([H:9])([H:10])[C@@:5]2([H:11])[C:6]([H:12])([H:13])[C@@:7]12[H:14])\[H:8]>>[N:1](=[C:2](/[C:7]1([H:14])[C:5]([H:11])=[C:6]1[H:13])[H:12])\[H:8].[O:3]=[C:4]([H:9])[H:10]"
N        1.52861789      -1.97704908       0.45356878
C        0.71806218      -1.06155069       0.18446785
O        1.38328906       0.81006125      -0.68619297
C        0.42643634       1.62870480      -0.38883754
C       -0.91704062       0.70818260       0.26092916
C       -1.27254794      -0.48422850      -0.33222752
C       -0.45443479      -0.57461322       0.91081338
H        2.13655649      -2.21082558      -0.32398475
H       -0.07948050       2.12479552      -1.23379052
H        0.63275308       2.33708623       0.42867318
H       -1.63295349       1.39517805       0.68845697
H        0.34594753      -0.74506394      -0.95093939
H       -2.03950294      -1.00137584      -0.88300989
H       -0.77570229      -0.94930160       1.87207326
14
Frame=3 idx=007139 GeodesicLength=0.3239805032500304 rxn_smarts="[N:1](=[C:2]1\[O:3][C:4]([H:9])([H:10])[C@@:5]2([H:11])[C:6]([H:12])([H:13])[C@@:7]12[H:14])\[H:8]>>[N:1](=[C:2](/[C:7]1([H:14])[C:5]([H:11])=[C:6]1[H:13])[H:12])\[H:8].[O:3]=[C:4]([H:9])[H:10]"
N        1.52955682      -1.97656792       0.46047387
C        0.72617714      -1.05623272       0.18280980
O        1.39581580       0.80961311      -0.67615422
C        0.44065709       1.63684559      -0.39165778
C       -0.92605331       0.70358135       0.27132373
C       -1.28089369      -0.48157786      -0.33790180
C       -0.45943149      -0.58597857       0.90407832
H        2.16157710      -2.19262928      -0.30312148
H       -0.07447553       2.11225497      -1.24241346
H        0.65312108       2.36418730       0.40711602
H       -1.63631133       1.38958950       0.70968386
H        0.31956762      -0.75307633      -0.96624149
H       -2.06526070      -0.98806936      -0.87357560
H       -0.78404661      -0.98193977       1.85558022
14
Frame=4 idx=007139 GeodesicLength=0.43191327493156534 rxn_smarts="[N:1](=[C:2]1\[O:3][C:4]([H:9])([H:10])[C@@:5]2([H:11])[C:6]([H:12])([H:13])[C@@:7]12[H:14])\[H:8]>>[N:1](=[C:2](/[C:7]1([H:14])[C:5]([H:11])=[C:6]1[H:13])[H:12])\[H:8].[O:3]=[C:4]([H:9])[H:10]"
N        1.53064205      -1.97572011       0.46721200
C        0.73415189      -1.05090679       0.18098644
O        1.40858667       0.80945415      -0.66541593
C        0.45510678       1.64519949      -0.39452870
C       -0.93537241       0.69860515       0.28209961
C       -1.28954759      -0.47882560      -0.34359349
C       -0.46448787      -0.59769231       0.89699464
H        2.18608863      -2.17440019      -0.28145157
H       -0.06941285       2.09921723      -1.25073017
H        0.67401023       2.39201194       0.38401077
H       -1.63970868       1.38339719       0.73171370
H        0.29291168      -0.76093298      -0.98138721
H       -2.09078750      -0.97435430      -0.86410247
H       -0.79218103      -1.01505286       1.83819238
14
Frame=5 idx=007139 GeodesicLength=0.5398250586036257 rxn_smarts="[N:1](=[C:2]1\[O:3][C:4]([H:9])([H:10])[C@@:5]2([H:11])[C:6]([H:12])([H:13])[C@@:7]12[H:14])\[H:8]>>[N:1](=[C:2](/[C:7]1([H:14])[C:5]([H:11])=[C:6]1[H:13])[H:12])\[H:8].[O:3]=[C:4]([H:9])[H:10]"
N        1.53188974      -1.97447779       0.47382208
C        0.74199919      -1.04553995       0.17904380
O        1.42162333       0.80963117      -0.65386936
C        0.46979347       1.65379686      -0.39743308
C       -0.94501884       0.69323531       0.29327098
C       -1.29850534      -0.47597523      -0.34928337
C       -0.46960466      -0.60974064       0.88956725
H        2.20997359      -2.15619266      -0.25909685
H       -0.06425153       2.08566450      -1.25870421
H        0.69544462       2.42058211       0.35925201
H       -1.64317624       1.37655674       0.75453979
H        0.26595996      -0.76862536      -0.99640120
H       -2.11602525      -0.96030835      -0.85460294
H       -0.80010205      -1.04860670       1.81989509
14
Frame=6 idx=007139 GeodesicLength=0.6477514274840539 rxn_smarts="[N:1](=[C:2]1\[O:3][C:4]([H:9])([H:10])[C@@:5]2([H:11])[C:6]([H:12])([H:13])[C@@:7]12[H:14])\[H:8]>>[N:1](=[C:2](/[C:7]1([H:14])[C:5]([H:11])=[C:6]1[H:13])[H:12])\[H:8].[O:3]=[C:4]([H:9])[H:10]"
N        1.53323093      -1.97290717       0.48026480
C        0.74970725      -1.04012133       0.17700209
O        1.43492795       0.81015836      -0.64141782
C        0.48474027       1.66265444      -0.40034267
C       -0.95501888       0.68744855       0.30486795
C       -1.30778732      -0.47301422      -0.35495164
C       -0.47479257      -0.62212226       0.88178736
H        2.23329554      -2.13789393      -0.23602569
H       -0.05895477       2.07159120      -1.26627197
H        0.71752313       2.44990576       0.33264233
H       -1.64673301       1.36901955       0.77819897
H        0.23865226      -0.77613772      -1.01133488
H       -2.14097323      -0.94597861      -0.84507686
H       -0.80781755      -1.08260263       1.80065802
14
Frame=7 idx=007139 GeodesicLength=0.7556945927445281 rxn_smarts="[N:1](=[C:2]1\[O:3][C:4]([H:9])([H:10])[C@@:5]2([H:11])[C:6]([H:12])([H:13])[C@@:7]12[H:14])\[H:8]>>[N:1](=[C:2](/[C:7]1([H:14])[C:5]([H:11])=[C:6]1[H:13])[H:12])\[H:8].[O:3]=[C:4]([H:9])[H:10]"
N        1.53465951      -1.97099996       0.48655936
C        0.75728428      -1.03461698       0.17490321
O        1.44850704       0.81107859      -0.62795289
C        0.49996206       1.67180461      -0.40322410
C       -0.96539962       0.68121850       0.31691207
C       -1.31739497      -0.46994281      -0.36058202
C       -0.48005639      -0.63482702       0.87365239
H        2.25598054      -2.11951768      -0.21230989
H       -0.05348770       2.05700061      -1.27336631
H        0.74031248       2.47997757       0.30400835
H       -1.65041069       1.36073419       0.80269645
H        0.21096017      -0.78344803      -1.02621621
H       -2.16559306      -0.93144076      -0.83553712
H       -0.81532364      -1.11702083       1.78045672
14
Frame=8 idx=007139 GeodesicLength=0.8636650461537555 rxn_smarts="[N:1](=[C:2]1\[O:3][C:4]([H:9])([H:10])[C@@:5]2([H:11])[C:6]([H:12])([H:13])[C@@:7]12[H:14])\[H:8]>>[N:1](=[C:2](/[C:7]1([H:14])[C:5]([H:11])=[C:6]1[H:13])[H:12])\[H:8].[O:3]=[C:4]([H:9])[H:10]"
N        1.53613786      -1.96878599       0.49268108
C        0.76473130      -1.02899614       0.17278091
O        1.46236015       0.81243321      -0.61333959
C        0.51547713       1.68128266      -0.40603714
C       -0.97618669       0.67451628       0.32943342
C       -1.32733848      -0.46674955      -0.36615617
C       -0.48540067      -0.64785081       0.86515327
H        2.27802312      -2.10101553      -0.18796241
H       -0.04779276       2.04188516      -1.27991131
H        0.76388720       2.51077967       0.27311242
H       -1.65423762       1.35163395       0.82806193
H        0.18284225      -0.79053153      -1.04108577
H       -2.18988201      -0.91674770      -0.82598191
H       -0.82262079      -1.15185367       1.75925127
14
Frame=9 idx=007139 GeodesicLength=0.9717084485924347 rxn_smarts="[N:1](=[C:2]1\[O:3][C:4]([H:9])([H:10])[C@@:5]2([H:11])[C:6]([H:12])([H:13])[C@@:7]12[H:14])\[H:8]>>[N:1](=[C:2](/[C:7]1([H:14])[C:5]([H:11])=[C:6]1[H:13])[H:12])\[H:8].[O:3]=[C:4]([H:9])[H:10]"
N        1.53764398      -1.96626569       0.49862389
C        0.77205902      -1.02320629       0.17068431
O        1.47646651       0.81426386      -0.59737432
C        0.53137706       1.69115625      -0.40871687
C       -0.98741154       0.66730897       0.34251327
C       -1.33762073      -0.46341687      -0.37163262
C       -0.49083902      -0.66119123       0.85629437
H        2.29940220      -2.08232038      -0.16303432
H       -0.04185224       2.02620858      -1.28580928
H        0.78831493       2.54218560       0.23951774
H       -1.65823714       1.34164753       0.85437908
H        0.15427773      -0.79729961      -1.05595170
H       -2.21381636      -0.90191986      -0.81647082
H       -0.82976440      -1.18715086       1.73697726
14
Frame=10 idx=007139 GeodesicLength=1.0797730603807758 rxn_smarts="[N:1](=[C:2]1\[O:3][C:4]([H:9])([H:10])[C@@:5]2([H:11])[C:6]([H:12])([H:13])[C@@:7]12[H:14])\[H:8]>>[N:1](=[C:2](/[C:7]1([H:14])[C:5]([H:11])=[C:6]1[H:13])[H:12])\[H:8].[O:3]=[C:4]([H:9])[H:10]"
N        1.53912941      -1.96347233       0.50433707
C        0.77925602      -1.01722017       0.16862775
O        1.49081727       0.81663293      -0.57996795
C        0.54761176       1.70143985      -0.41124903
C       -0.99910608       0.65957017       0.35613974
C       -1.34826360      -0.45993071      -0.37701842
C       -0.49637249      -0.67483990       0.84704434
H        2.32014796      -2.06336950      -0.13746944
H       -0.03559137       2.01000339      -1.29098456
H        0.81374481       2.57414008       0.20313628
H       -1.66245310       1.33071462       0.88163094
H        0.12519400      -0.80376855      -1.07088092
H       -2.23742232      -0.88704230      -0.80694616
H       -0.83669229      -1.22285760       1.71360034
14
Frame=11 idx=007139 GeodesicLength=1.1878502382909752 rxn_smarts="[N:1](=[C:2]1\[O:3][C:4]([H:9])([H:10])[C@@:5]2([H:11])[C:6]([H:12])([H:13])[C@@:7]12[H:14])\[H:8]>>[N:1](=[C:2](/[C:7]1([H:14])[C:5]([H:11])=[C:6]1[H:13])[H:12])\[H:8].[O:3]=[C:4]([H:9])[H:10]"
N        1.54059143      -1.96038396       0.50983116
C        0.78633719      -1.01098029       0.16666926
O        1.50539678       0.81960227      -0.56098748
C        0.56420559       1.71218300      -0.41359528
C       -1.01130405       0.65127025       0.37034219
C       -1.35926604      -0.45627899      -0.38229856
C       -0.50200447      -0.68878265       0.83739260
H        2.34020099      -2.04414924      -0.11132910
H       -0.02898153       1.99328158      -1.29535261
H        0.84028369       2.60650768       0.16373927
H       -1.66693161       1.31877125       0.90983017
H        0.09556170      -0.80989261      -1.08589960
H       -2.26068824      -0.87218916      -0.79741792
H       -0.84340142      -1.25895913       1.68907591
14
Frame=12 idx=007139 GeodesicLength=1.2959284389230525 rxn_smarts="[N:1](=[C:2]1\[O:3][C:4]([H:9])([H:10])[C@@:5]2([H:11])[C:6]([H:12])([H:13])[C@@:7]12[H:14])\[H:8]>>[N:1](=[C:2](/[C:7]1([H:14])[C:5]([H:11])=[C:6]1[H:13])[H:12])\[H:8].[O:3]=[C:4]([H:9])[H:10]"
N        1.54200275      -1.95700231       0.51506770
C        0.79330511      -1.00442999       0.16484416
O        1.52016828       0.82323429      -0.54026894
C        0.58118551       1.72343531      -0.41572322
C       -1.02404417       0.64237654       0.38515372
C       -1.37064216      -0.45243745      -0.38745644
C       -0.50773650      -0.70300428       0.82731391
H        2.35957606      -2.02458379      -0.08459053
H       -0.02198584       1.97604702      -1.29882357
H        0.86806814       2.63911047       0.12105888
H       -1.67171342       1.30573740       0.93901607
H        0.06532964      -0.81562231      -1.10105105
H       -2.28363479      -0.85741005      -0.78788007
H       -0.84987862      -1.29545086       1.66333938
14
Frame=13 idx=007139 GeodesicLength=1.403984085313464 rxn_smarts="[N:1](=[C:2]1\[O:3][C:4]([H:9])([H:10])[C@@:5]2([H:11])[C:6]([H:12])([H:13])[C@@:7]12[H:14])\[H:8]>>[N:1](=[C:2](/[C:7]1([H:14])[C:5]([H:11])=[C:6]1[H:13])[H:12])\[H:8].[O:3]=[C:4]([H:9])[H:10]"
N        1.54340367      -1.95324465       0.52011696
C        0.80018835      -0.99747838       0.16325036
O        1.53510827       0.82762521      -0.51762539
C        0.59858013       1.73526119      -0.41759790
C       -1.03736820       0.63284885       0.40058857
C       -1.38237409      -0.44840483      -0.39248235
C       -0.51356299      -0.71747343       0.81680199
H        2.37810677      -2.00475737      -0.05745463
H       -0.01456016       1.95832695      -1.30130878
H        0.89717717       2.67175692       0.07487449
H       -1.67687104       1.29153325       0.96916795
H        0.03450056      -0.82090972      -1.11634670
H       -2.30623038      -0.84280230      -0.77834567
H       -0.85609805      -1.33228169       1.63636110
14
Frame=14 idx=007139 GeodesicLength=1.5120046582409454 rxn_smarts="[N:1](=[C:2]1\[O:3][C:4]([H:9])([H:10])[C@@:5]2([H:11])[C:6]([H:12])([H:13])[C@@:7]12[H:14])\[H:8]>>[N:1](=[C:2](/[C:7]1([H:14])[C:5]([H:11])=[C:6]1[H:13])[H:12])\[H:8].[O:3]=[C:4]([H:9])[H:10]"
N        1.54475039      -1.94912347       0.52488317
C        0.80698267      -0.99005108       0.16191871
O        1.55014369       0.83285157      -0.49285801
C        0.61642160       1.74772903      -0.41916665
C       -1.05132198       0.62264910       0.41670154
C       -1.39448928      -0.44413741      -0.39735248
C       -0.51948847      -0.73217664       0.80582005
H        2.39589043      -1.98451527      -0.02980955
H       -0.00666774       1.94013727      -1.30267290
H        0.92778949       2.70409179       0.02479211
H       -1.68245050       1.27605760       1.00035986
H        0.00299850      -0.82566977      -1.13183811
H       -2.32851659      -0.82838456      -0.76880995
H       -0.86204221      -1.36945815       1.60803221
14
Frame=15 idx=007139 GeodesicLength=1.6199575769499321 rxn_smarts="[N:1](=[C:2]1\[O:3][C:4]([H:9])([H:10])[C@@:5]2([H:11])[C:6]([H:12])([H:13])[C@@:7]12[H:14])\[H:8]>>[N:1](=[C:2](/[C:7]1([H:14])[C:5]([H:11])=[C:6]1[H:13])[H:12])\[H:8].[O:3]=[C:4]([H:9])[H:10]"
N        1.54608479      -1.94453787       0.52940291
C        0.81371181      -0.98202984       0.16094536
O        1.56521006       0.83903795      -0.46573720
C        0.63474648       1.76092498      -0.42039313
C       -1.06595846       0.61173352       0.43351534
C       -1.40697983      -0.43961889      -0.40205467
C       -0.52550378      -0.74706987       0.79434671
H        2.41281256      -1.96390071      -0.00180809
H        0.00172577       1.92152434      -1.30278034
H        0.96002724       2.73571114      -0.02949009
H       -1.68854032       1.25920454       1.03258796
H       -0.02919015      -0.82982534      -1.14754087
H       -2.35047904      -0.81423444      -0.75928662
H       -0.86766713      -1.40691950       1.57829273
14
Frame=16 idx=007139 GeodesicLength=1.727831276480906 rxn_smarts="[N:1](=[C:2]1\[O:3][C:4]([H:9])([H:10])[C@@:5]2([H:11])[C:6]([H:12])([H:13])[C@@:7]12[H:14])\[H:8]>>[N:1](=[C:2](/[C:7]1([H:14])[C:5]([H:11])=[C:6]1[H:13])[H:12])\[H:8].[O:3]=[C:4]([H:9])[H:10]"
N        1.54741787      -1.93942129       0.53364418
C        0.82038467      -0.97329133       0.16040949
O        1.58021640       0.84633711      -0.43596384
C        0.65359743       1.77495909      -0.42122405
C       -1.08133700       0.60005547       0.45108181
C       -1.41985650      -0.43481433      -0.40657346
C       -0.53160920      -0.76212484       0.78234805
H        2.42885913      -1.94284884       0.02648455
H        0.01067147       1.90252198      -1.30146303
H        0.99405691       2.76608088      -0.08841510
H       -1.69522437       1.24085948       1.06590201
H       -0.06210423      -0.83327246      -1.16348176
H       -2.37213815      -0.80040574      -0.74979097
H       -0.87293445      -1.44463518       1.54704214
