10
Frame=0 idx=002132 GeodesicLength=0.0 rxn_smarts="[O:1]([C:2]1([H:6])[C:3]([H:7])([H:8])[C:4]1([H:9])[H:10])[H:5]>>[H:5][H:6].[O:1]=[C:2]1[C:3]([H:7])([H:8])[C:4]1([H:9])[H:10]"
O        1.75640201      -0.55000514       0.45322427
C        0.58375058      -0.24692205      -0.02287207
C       -0.25263101       0.97921932      -0.00214887
C       -0.80118775      -0.36441251       0.49695347
H        1.29780805      -0.85887548      -0.88084257
H        0.48150623      -0.69103225      -1.33496488
H       -0.67412128       1.38019208      -0.91424778
H        0.05149242       1.71568784       0.73099592
H       -1.57844721      -0.83365581      -0.09124371
H       -0.86457206      -0.53019601       1.56514622
10
Frame=1 idx=002132 GeodesicLength=0.09450220559257523 rxn_smarts="[O:1]([C:2]1([H:6])[C:3]([H:7])([H:8])[C:4]1([H:9])[H:10])[H:5]>>[H:5][H:6].[O:1]=[C:2]1[C:3]([H:7])([H:8])[C:4]1([H:9])[H:10]"
O        1.75152659      -0.54566407       0.44977082
C        0.57832866      -0.24343212      -0.02462265
C       -0.25603377       0.98275512       0.00241391
C       -0.80421069      -0.36152678       0.50030469
H        1.31915560      -0.87379264      -0.89081471
H        0.49152126      -0.70443113      -1.34690090
H       -0.67668671       1.38576269      -0.90923020
H        0.04645558       1.71771942       0.73775193
H       -1.58217818      -0.83058344      -0.08724166
H       -0.86787835      -0.52680704       1.56856876
10
Frame=2 idx=002132 GeodesicLength=0.18884446908075936 rxn_smarts="[O:1]([C:2]1([H:6])[C:3]([H:7])([H:8])[C:4]1([H:9])[H:10])[H:5]>>[H:5][H:6].[O:1]=[C:2]1[C:3]([H:7])([H:8])[C:4]1([H:9])[H:10]"
O        1.74650693      -0.54136301       0.44570805
C        0.57261778      -0.23972756      -0.02644006
C       -0.25967599       0.98648449       0.00712826
C       -0.80742757      -0.35849876       0.50372227
H        1.34140256      -0.88924532      -0.90085746
H        0.50200151      -0.71825857      -1.35873263
H       -0.67948124       1.39156895      -0.90404426
H        0.04135634       1.71984359       0.74467287
H       -1.58608465      -0.82736910      -0.08319930
H       -0.87121566      -0.52343471       1.57204226
10
Frame=3 idx=002132 GeodesicLength=0.28310581594657075 rxn_smarts="[O:1]([C:2]1([H:6])[C:3]([H:7])([H:8])[C:4]1([H:9])[H:10])[H:5]>>[H:5][H:6].[O:1]=[C:2]1[C:3]([H:7])([H:8])[C:4]1([H:9])[H:10]"
O        1.74133252      -0.53710605       0.44097207
C        0.56659283      -0.23578697      -0.02832762
C       -0.26357822       0.99042370       0.01200547
C       -0.81085491      -0.35531703       0.50720926
H        1.36462326      -0.90529453      -0.91098473
H        0.51299419      -0.73254015      -1.37043165
H       -0.68253075       1.39763595      -0.89867188
H        0.03618984       1.72206702       0.75177366
H       -1.59018395      -0.82399990      -0.07911334
H       -0.87458481      -0.52008204       1.57556876
10
Frame=4 idx=002132 GeodesicLength=0.37735374012723444 rxn_smarts="[O:1]([C:2]1([H:6])[C:3]([H:7])([H:8])[C:4]1([H:9])[H:10])[H:5]>>[H:5][H:6].[O:1]=[C:2]1[C:3]([H:7])([H:8])[C:4]1([H:9])[H:10]"
O        1.73599018      -0.53289673       0.43549300
C        0.56022622      -0.23158844      -0.03029203
C       -0.26776244       0.99459029       0.01705777
C       -0.81451033      -0.35196954       0.51076816
H        1.38889975      -0.92200426      -0.92120536
H        0.52455097      -0.74730508      -1.38197178
H       -0.68586420       1.40399103      -0.89309198
H        0.03095200       1.72439590       0.75907073
H       -1.59449734      -0.82046016      -0.07497784
H       -0.87798481      -0.51675300       1.57914934
10
Frame=5 idx=002132 GeodesicLength=0.47163319602112674 rxn_smarts="[O:1]([C:2]1([H:6])[C:3]([H:7])([H:8])[C:4]1([H:9])[H:10])[H:5]>>[H:5][H:6].[O:1]=[C:2]1[C:3]([H:7])([H:8])[C:4]1([H:9])[H:10]"
O        1.73046407      -0.52873759       0.42919179
C        0.55348862      -0.22710745      -0.03234156
C       -0.27225119       0.99900286       0.02229862
C       -0.81841043      -0.34844388       0.51440170
H        1.41431424      -0.93944670      -0.93152552
H        0.53672820      -0.76258190      -1.39331993
H       -0.68951406       1.41066506      -0.88728156
H        0.02563909       1.72683688       0.76658143
H       -1.59904493      -0.81673453      -0.07079008
H       -0.88141361      -0.51345274       1.58278512
10
Frame=6 idx=002132 GeodesicLength=0.5659884024637418 rxn_smarts="[O:1]([C:2]1([H:6])[C:3]([H:7])([H:8])[C:4]1([H:9])[H:10])[H:5]>>[H:5][H:6].[O:1]=[C:2]1[C:3]([H:7])([H:8])[C:4]1([H:9])[H:10]"
O        1.72473454      -0.52462714       0.42197315
C        0.54634579      -0.22231636      -0.03449543
C       -0.27707287       1.00368431       0.02774339
C       -0.82257654      -0.34472525       0.51811088
H        1.44096469      -0.95771028      -0.94194100
H        0.54959594      -0.77840560      -1.40444001
H       -0.69352126       1.41769639      -0.88120982
H        0.02024888       1.72939543       0.77432751
H       -1.60385433      -0.81280195      -0.06654323
H       -0.88486484      -0.51018953       1.58647455
10
Frame=7 idx=002132 GeodesicLength=0.6604313176754345 rxn_smarts="[O:1]([C:2]1([H:6])[C:3]([H:7])([H:8])[C:4]1([H:9])[H:10])[H:5]>>[H:5][H:6].[O:1]=[C:2]1[C:3]([H:7])([H:8])[C:4]1([H:9])[H:10]"
O        1.71877881      -0.52056226       0.41374693
C        0.53876333      -0.21718919      -0.03677418
C       -0.28225164       1.00865524       0.03340717
C       -0.82702499      -0.34080111       0.52189584
H        1.46894336      -0.97687621      -0.95244013
H        0.56321699      -0.79481078      -1.41530279
H       -0.69792634       1.42512314      -0.87484735
H        0.01478106       1.73207551       0.78232994
H       -1.60895228      -0.80864083      -0.06223087
H       -0.88832829      -0.50697351       1.59021543
10
Frame=8 idx=002132 GeodesicLength=0.7549750478862558 rxn_smarts="[O:1]([C:2]1([H:6])[C:3]([H:7])([H:8])[C:4]1([H:9])[H:10])[H:5]>>[H:5][H:6].[O:1]=[C:2]1[C:3]([H:7])([H:8])[C:4]1([H:9])[H:10]"
O        1.71256756      -0.51653917       0.40438955
C        0.53069933      -0.21169388      -0.03921148
C       -0.28781979       1.01394156       0.03930760
C       -0.83177924      -0.33665540       0.52575635
H        1.49836140      -0.99705050      -0.96299557
H        0.57767867      -0.81183304      -1.42586515
H       -0.70278313       1.43299300      -0.86815306
H        0.00923863       1.73488059       0.79061298
H       -1.61437405      -0.80422554      -0.05784463
H       -0.89178939      -0.50381762       1.59400342
10
Frame=9 idx=002132 GeodesicLength=0.8494941971701586 rxn_smarts="[O:1]([C:2]1([H:6])[C:3]([H:7])([H:8])[C:4]1([H:9])[H:10])[H:5]>>[H:5][H:6].[O:1]=[C:2]1[C:3]([H:7])([H:8])[C:4]1([H:9])[H:10]"
O        1.70606310      -0.51255757       0.39379547
C        0.52212152      -0.20581714      -0.04185742
C       -0.29379412       1.01955817       0.04545141
C       -0.83684845      -0.33227977       0.52968560
H        1.52930896      -1.01827218      -0.97352640
H        0.59302967      -0.82952208      -1.43611201
H       -0.70814221       1.44135461      -0.86107955
H        0.00363702       1.73780130       0.79918768
H       -1.62014968      -0.79952719      -0.05337214
H       -0.89522580      -0.50073815       1.59782736
10
Frame=10 idx=002132 GeodesicLength=0.9441081514301919 rxn_smarts="[O:1]([C:2]1([H:6])[C:3]([H:7])([H:8])[C:4]1([H:9])[H:10])[H:5]>>[H:5][H:6].[O:1]=[C:2]1[C:3]([H:7])([H:8])[C:4]1([H:9])[H:10]"
O        1.69922796      -0.50859993       0.38181317
C        0.51297240      -0.19950868      -0.04474840
C       -0.30021711       1.02554200       0.05186985
C       -0.84226146      -0.32765310       0.53368412
H        1.56192410      -1.04069688      -0.98402393
H        0.60938493      -0.84792571      -1.44598190
H       -0.71406878       1.45026602      -0.85358263
H       -0.00202204       1.74084576       0.80809602
H       -1.62632486      -0.79451414      -0.04880749
H       -0.89861514      -0.49775534       1.60168119
10
Frame=11 idx=002132 GeodesicLength=1.038785259517675 rxn_smarts="[O:1]([C:2]1([H:6])[C:3]([H:7])([H:8])[C:4]1([H:9])[H:10])[H:5]>>[H:5][H:6].[O:1]=[C:2]1[C:3]([H:7])([H:8])[C:4]1([H:9])[H:10]"
O        1.69201079      -0.50465877       0.36829582
C        0.50320220      -0.19273746      -0.04794205
C       -0.30711648       1.03191913       0.05858197
C       -0.84803515      -0.32276061       0.53774618
H        1.59633147      -1.06440311      -0.99442171
H        0.62682620      -0.86711380      -1.45542912
H       -0.72062908       1.45979057      -0.84560683
H       -0.00772065       1.74400684       0.81736447
H       -1.63294107      -0.78914947      -0.04413991
H       -0.90192823      -0.49489332       1.60555118
10
Frame=12 idx=002132 GeodesicLength=1.1334809759017686 rxn_smarts="[O:1]([C:2]1([H:6])[C:3]([H:7])([H:8])[C:4]1([H:9])[H:10])[H:5]>>[H:5][H:6].[O:1]=[C:2]1[C:3]([H:7])([H:8])[C:4]1([H:9])[H:10]"
O        1.68435177      -0.50071861       0.35308453
C        0.49275660      -0.18547286      -0.05151920
C       -0.31451908       1.03871539       0.06560798
C       -0.85418639      -0.31758946       0.54186031
H        1.63266178      -1.08945847      -1.00461449
H        0.64543122      -0.88717058      -1.46441515
H       -0.72789573       1.46999792      -0.83708638
H       -0.01342807       1.74727018       0.82702164
H       -1.64005017      -0.78339015      -0.03935542
H       -0.90512192      -0.49218336       1.60941617
10
Frame=13 idx=002132 GeodesicLength=1.2281550530290846 rxn_smarts="[O:1]([C:2]1([H:6])[C:3]([H:7])([H:8])[C:4]1([H:9])[H:10])[H:5]>>[H:5][H:6].[O:1]=[C:2]1[C:3]([H:7])([H:8])[C:4]1([H:9])[H:10]"
O        1.67617868      -0.49677522       0.33602231
C        0.48157734      -0.17769458      -0.05555885
C       -0.32244189       1.04594972       0.07296595
C       -0.86072916      -0.31212818       0.54601628
H        1.67105081      -1.11588000      -1.01449968
H        0.66526489      -0.90819461      -1.47289663
H       -0.73593558       1.48095215      -0.82795669
H       -0.01910318       1.75061520       0.83709010
H       -1.64770812      -0.77719060      -0.03443768
H       -0.90815382      -0.48965387       1.61325490
10
Frame=14 idx=002132 GeodesicLength=1.3227602499453799 rxn_smarts="[O:1]([C:2]1([H:6])[C:3]([H:7])([H:8])[C:4]1([H:9])[H:10])[H:5]>>[H:5][H:6].[O:1]=[C:2]1[C:3]([H:7])([H:8])[C:4]1([H:9])[H:10]"
O        1.66740799      -0.49281376       0.31692013
C        0.46959950      -0.16938084      -0.06018065
C       -0.33089976       1.05364187       0.08067314
C       -0.86767590      -0.30636800       0.55019398
H        1.71164604      -1.14366030      -1.02389222
H        0.68637557      -0.93031781      -1.48084006
H       -0.74482747       1.49273578      -0.81813356
H       -0.02468397       1.75400723       0.84759492
H       -1.65598237      -0.77049250      -0.02936592
H       -0.91095961      -0.48735167       1.61703025
10
Frame=15 idx=002132 GeodesicLength=1.4172432538229827 rxn_smarts="[O:1]([C:2]1([H:6])[C:3]([H:7])([H:8])[C:4]1([H:9])[H:10])[H:5]>>[H:5][H:6].[O:1]=[C:2]1[C:3]([H:7])([H:8])[C:4]1([H:9])[H:10]"
O        1.65794388      -0.48883321       0.29561159
C        0.45675384      -0.16053035      -0.06551057
C       -0.33988995       1.06179833       0.08873984
C       -0.87503401      -0.30030420       0.55437132
H        1.75458951      -1.17270497      -1.03260125
H        0.70877952      -0.95368811      -1.48821107
H       -0.75463790       1.50541949      -0.80753446
H       -0.03008621       1.75739775       0.85854745
H       -1.66494690      -0.76323472      -0.02411544
H       -0.91347178      -0.48532001       1.62070260
10
Frame=16 idx=002132 GeodesicLength=1.5115630304015468 rxn_smarts="[O:1]([C:2]1([H:6])[C:3]([H:7])([H:8])[C:4]1([H:9])[H:10])[H:5]>>[H:5][H:6].[O:1]=[C:2]1[C:3]([H:7])([H:8])[C:4]1([H:9])[H:10]"
O        1.64767996      -0.48483034       0.27191087
C        0.44296740      -0.15114587      -0.07170087
C       -0.34939760       1.07041874       0.09717331
C       -0.88280415      -0.29393892       0.55851834
H        1.80001607      -1.20286213      -1.04036066
H        0.73245733      -0.97847891      -1.49498829
H       -0.76542995       1.51907996      -0.79606809
H       -0.03520185       1.76072291       0.86995549
H       -1.67468194      -0.75534907      -0.01866009
H       -0.91560527      -0.48361636       1.62422000
