12
Frame=0 idx=002942 GeodesicLength=0.0 rxn_smarts="[C:1]([c:2]1[c:3]([H:10])[c:4]([H:11])[c:5]([H:12])[o:6]1)([H:7])([H:8])[H:9]>>[C:1]([C@:5]1([H:12])[C:4]([H:11])=[C:3]([H:10])[C-:2]=[O+:6]1)([H:7])([H:8])[H:9]"
C       -1.12365311      -0.59936737       0.55033984
C       -0.62905843       0.56083272      -0.90617349
C        0.49995621       1.44531403      -0.32534910
C        1.30723639       0.49932670       0.12808847
C        0.51705464      -0.67425777      -0.39580820
O        0.10891018      -0.37333918      -1.67675659
H       -1.66296794       0.23450657       0.98882988
H       -0.62303739      -1.09814019       1.38862788
H       -1.81885754      -1.28380384       0.07098036
H        0.52754541       2.52319556      -0.31917996
H        2.22143463       0.49267784       0.70475132
H        0.67543694      -1.72694507      -0.20835041
12
Frame=1 idx=002942 GeodesicLength=0.0801097444761415 rxn_smarts="[C:1]([c:2]1[c:3]([H:10])[c:4]([H:11])[c:5]([H:12])[o:6]1)([H:7])([H:8])[H:9]>>[C:1]([C@:5]1([H:12])[C:4]([H:11])=[C:3]([H:10])[C-:2]=[O+:6]1)([H:7])([H:8])[H:9]"
C       -1.13173078      -0.59855196       0.55024302
C       -0.62652064       0.57133805      -0.90904226
C        0.50318550       1.44527253      -0.33571055
C        1.31596725       0.49765292       0.11582716
C        0.53116602      -0.67910217      -0.39080855
O        0.09617391      -0.37887537      -1.66474631
H       -1.66892373       0.23495177       0.99295568
H       -0.64587936      -1.10450052       1.39267555
H       -1.83135313      -1.27897943       0.07072639
H        0.52542262       2.52292002      -0.30882410
H        2.22521094       0.49841147       0.70003673
H        0.70728141      -1.73053731      -0.21333276
12
Frame=2 idx=002942 GeodesicLength=0.16019134033644294 rxn_smarts="[C:1]([c:2]1[c:3]([H:10])[c:4]([H:11])[c:5]([H:12])[o:6]1)([H:7])([H:8])[H:9]>>[C:1]([C@:5]1([H:12])[C:4]([H:11])=[C:3]([H:10])[C-:2]=[O+:6]1)([H:7])([H:8])[H:9]"
C       -1.13984904      -0.59750949       0.55028992
C       -0.62398215       0.58168613      -0.91229974
C        0.50645176       1.44509989      -0.34648427
C        1.32478304       0.49590328       0.10321080
C        0.54549424      -0.68414070      -0.38573962
O        0.08347386      -0.38474760      -1.65210005
H       -1.67462219       0.23581518       0.99718219
H       -0.66900028      -1.11081983       1.39655670
H       -1.84427578      -1.27364626       0.07083643
H        0.52292430       2.52206764      -0.29787564
H        2.22847529       0.50425240       0.69567449
H        0.74012695      -1.73396065      -0.21925121
12
Frame=3 idx=002942 GeodesicLength=0.24025257735542754 rxn_smarts="[C:1]([c:2]1[c:3]([H:10])[c:4]([H:11])[c:5]([H:12])[o:6]1)([H:7])([H:8])[H:9]>>[C:1]([C@:5]1([H:12])[C:4]([H:11])=[C:3]([H:10])[C-:2]=[O+:6]1)([H:7])([H:8])[H:9]"
C       -1.14805838      -0.59627478       0.55049767
C       -0.62144700       0.59187129      -0.91591174
C        0.50968998       1.44479972      -0.35752573
C        1.33362488       0.49407921       0.09037708
C        0.56004098      -0.68936309      -0.38054228
O        0.07086183      -0.39089157      -1.63874513
H       -1.68013951       0.23704548       1.00151935
H       -0.69247370      -1.11710622       1.40029895
H       -1.85764171      -1.26782427       0.07127757
H        0.52018821       2.52059561      -0.28655240
H        2.23132042       0.51021990       0.69152803
H        0.77403399      -1.73715130      -0.22622137
12
Frame=4 idx=002942 GeodesicLength=0.320302450561167 rxn_smarts="[C:1]([c:2]1[c:3]([H:10])[c:4]([H:11])[c:5]([H:12])[o:6]1)([H:7])([H:8])[H:9]>>[C:1]([C@:5]1([H:12])[C:4]([H:11])=[C:3]([H:10])[C-:2]=[O+:6]1)([H:7])([H:8])[H:9]"
C       -1.15641603      -0.59488141       0.55088255
C       -0.61891555       0.60188100      -0.91984620
C        0.51283967       1.44436898      -0.36868971
C        1.34243238       0.49217737       0.07747361
C        0.57480756      -0.69476590      -0.37515065
O        0.05839515      -0.39725536      -1.62460623
H       -1.68555699       0.23859808       1.00597300
H       -0.71638013      -1.12336908       1.40393210
H       -1.87147192      -1.26153373       0.07201579
H        0.51733748       2.51848465      -0.27506496
H        2.23386304       0.51632802       0.68744861
H        0.80906533      -1.74003262      -0.23436791
12
Frame=5 idx=002942 GeodesicLength=0.40034521973111786 rxn_smarts="[C:1]([c:2]1[c:3]([H:10])[c:4]([H:11])[c:5]([H:12])[o:6]1)([H:7])([H:8])[H:9]>>[C:1]([C@:5]1([H:12])[C:4]([H:11])=[C:3]([H:10])[C-:2]=[O+:6]1)([H:7])([H:8])[H:9]"
C       -1.16498137      -0.59337345       0.55146183
C       -0.61639131       0.61170273      -0.92406021
C        0.51583625       1.44380252      -0.37981568
C        1.35114292       0.49019347       0.06466045
C        0.58979465      -0.70034749      -0.36949422
O        0.04612548      -0.40378151      -1.60960853
H       -1.69096131       0.24041191       1.01055411
H       -0.74080050      -1.12963175       1.40748292
H       -1.88578640      -1.25480490       0.07301327
H        0.51452108       2.51575963      -0.26367383
H        2.23623171       0.52258468       0.68330137
H        0.84526879      -1.74251583      -0.24382148
12
Frame=6 idx=002942 GeodesicLength=0.48038853787065483 rxn_smarts="[C:1]([c:2]1[c:3]([H:10])[c:4]([H:11])[c:5]([H:12])[o:6]1)([H:7])([H:8])[H:9]>>[C:1]([C@:5]1([H:12])[C:4]([H:11])=[C:3]([H:10])[C-:2]=[O+:6]1)([H:7])([H:8])[H:9]"
C       -1.17381169      -0.59177444       0.55225132
C       -0.61386181       0.62130087      -0.92853915
C        0.51864102       1.44307785      -0.39078864
C        1.35970595       0.48811016       0.05207975
C        0.60500940      -0.70612573      -0.36350042
O        0.03411179      -0.41045577      -1.59368542
H       -1.69643292       0.24246426       1.01524801
H       -0.76582353      -1.13587461       1.41098867
H       -1.90060655      -1.24765516       0.07424254
H        0.51179587       2.51243764      -0.25250899
H        2.23857608       0.52898904       0.67893167
H        0.88269639      -1.74449410      -0.25471932
12
Frame=7 idx=002942 GeodesicLength=0.5604288901350697 rxn_smarts="[C:1]([c:2]1[c:3]([H:10])[c:4]([H:11])[c:5]([H:12])[o:6]1)([H:7])([H:8])[H:9]>>[C:1]([C@:5]1([H:12])[C:4]([H:11])=[C:3]([H:10])[C-:2]=[O+:6]1)([H:7])([H:8])[H:9]"
C       -1.18294313      -0.59010574       0.55327292
C       -0.61131903       0.63063947      -0.93327255
C        0.52122219       1.44217038      -0.40152207
C        1.36808519       0.48590818       0.03983422
C        0.62046219      -0.71212237      -0.35712461
O        0.02239027      -0.41726530      -1.57678934
H       -1.70202302       0.24473196       1.02005223
H       -0.79149726      -1.14207465       1.41448276
H       -1.91593899      -1.24010257       0.07569512
H        0.50922439       2.50855488      -0.24171613
H        2.24096729       0.53552758       0.67430431
H        0.92136991      -1.74586183      -0.26721685
12
Frame=8 idx=002942 GeodesicLength=0.6404648615803947 rxn_smarts="[C:1]([c:2]1[c:3]([H:10])[c:4]([H:11])[c:5]([H:12])[o:6]1)([H:7])([H:8])[H:9]>>[C:1]([C@:5]1([H:12])[C:4]([H:11])=[C:3]([H:10])[C-:2]=[O+:6]1)([H:7])([H:8])[H:9]"
C       -1.19240091      -0.58835810       0.55454473
C       -0.60873451       0.63965120      -0.93829210
C        0.52358035       1.44103785      -0.41199768
C        1.37626213       0.48355735       0.02799515
C        0.63617800      -0.71837968      -0.35032817
O        0.01100409      -0.42424564      -1.55888219
H       -1.70775797       0.24724571       1.02493838
H       -0.81786352      -1.14815581       1.41801039
H       -1.93178918      -1.23213932       0.07738045
H        0.50674761       2.50410317      -0.23127458
H        2.24346631       0.54217740       0.66938726
H        0.96130759      -1.74649413      -0.28148163
12
Frame=9 idx=002942 GeodesicLength=0.7205317421931854 rxn_smarts="[C:1]([c:2]1[c:3]([H:10])[c:4]([H:11])[c:5]([H:12])[o:6]1)([H:7])([H:8])[H:9]>>[C:1]([C@:5]1([H:12])[C:4]([H:11])=[C:3]([H:10])[C-:2]=[O+:6]1)([H:7])([H:8])[H:9]"
C       -1.20224696      -0.58659591       0.55608702
C       -0.60610603       0.64830925      -0.94352993
C        0.52566917       1.43963352      -0.42206010
C        1.38416981       0.48099012       0.01672279
C        0.65217496      -0.72494613      -0.34309170
O       -0.00005984      -0.43136236      -1.53991762
H       -1.71372643       0.24993200       1.02993288
H       -0.84498208      -1.15416281       1.42160341
H       -1.94816812      -1.22382625       0.07924444
H        0.50457901       2.49916396      -0.22150168
H        2.24616275       0.54889363       0.66411863
H        1.00253376      -1.74602901      -0.29760814
12
Frame=10 idx=002942 GeodesicLength=0.8005898454443626 rxn_smarts="[C:1]([c:2]1[c:3]([H:10])[c:4]([H:11])[c:5]([H:12])[o:6]1)([H:7])([H:8])[H:9]>>[C:1]([C@:5]1([H:12])[C:4]([H:11])=[C:3]([H:10])[C-:2]=[O+:6]1)([H:7])([H:8])[H:9]"
C       -1.21242580      -0.58475002       0.55791949
C       -0.60337903       0.65651197      -0.94912147
C        0.52754149       1.43791627      -0.43186038
C        1.39185283       0.47820361       0.00595598
C        0.66850833      -0.73186497      -0.33542629
O       -0.01073911      -0.43870362      -1.51989809
H       -1.71983874       0.25290856       1.03498716
H       -0.87280520      -1.15993029       1.42531222
H       -1.96503722      -1.21509983       0.08137139
H        0.50243034       2.49366151      -0.21211312
H        2.24895477       0.55565909       0.65868399
H        1.04493735      -1.74451226      -0.31581088
12
Frame=11 idx=002942 GeodesicLength=0.8806307948299139 rxn_smarts="[C:1]([c:2]1[c:3]([H:10])[c:4]([H:11])[c:5]([H:12])[o:6]1)([H:7])([H:8])[H:9]>>[C:1]([C@:5]1([H:12])[C:4]([H:11])=[C:3]([H:10])[C-:2]=[O+:6]1)([H:7])([H:8])[H:9]"
C       -1.22293042      -0.58281769       0.56005209
C       -0.60051841       0.66419261      -0.95511204
C        0.52920482       1.43584355      -0.44140292
C        1.39929814       0.47516638      -0.00425433
C        0.68522920      -0.73917762      -0.32734853
O       -0.02100972      -0.44629078      -1.49881018
H       -1.72607837       0.25619555       1.04008458
H       -0.90132660      -1.16540212       1.42916900
H       -1.98237318      -1.20595465       0.08376879
H        0.50024451       2.48758011      -0.20309352
H        2.25184079       0.56244619       0.65312762
H        1.08841925      -1.74178152      -0.33618057
12
Frame=12 idx=002942 GeodesicLength=0.9606470275243026 rxn_smarts="[C:1]([c:2]1[c:3]([H:10])[c:4]([H:11])[c:5]([H:12])[o:6]1)([H:7])([H:8])[H:9]>>[C:1]([C@:5]1([H:12])[C:4]([H:11])=[C:3]([H:10])[C-:2]=[O+:6]1)([H:7])([H:8])[H:9]"
C       -1.23372915      -0.58079510       0.56250093
C       -0.59748939       0.67128187      -0.96155434
C        0.53067337       1.43337141      -0.45071686
C        1.40650795       0.47184499      -0.01388254
C        0.70240258      -0.74693225      -0.31891652
O       -0.03085770      -0.45414366      -1.47665705
H       -1.73239771       0.25981795       1.04522181
H       -0.93050203      -1.17051762       1.43320668
H       -2.00013481      -1.19638578       0.08645600
H        0.49796136       2.48089824      -0.19444179
H        2.25473915       0.56921590       0.64759567
H        1.13282638      -1.73765593      -0.35881198
12
Frame=13 idx=002942 GeodesicLength=1.0406278472675616 rxn_smarts="[C:1]([c:2]1[c:3]([H:10])[c:4]([H:11])[c:5]([H:12])[o:6]1)([H:7])([H:8])[H:9]>>[C:1]([C@:5]1([H:12])[C:4]([H:11])=[C:3]([H:10])[C-:2]=[O+:6]1)([H:7])([H:8])[H:9]"
C       -1.24477578      -0.57867633       0.56527320
C       -0.59424912       0.67770842      -0.96851234
C        0.53196402       1.43046144      -0.45984159
C        1.41349079       0.46821402      -0.02291560
C        0.72010554      -0.75517088      -0.31021223
O       -0.04026931      -0.46227367      -1.45345254
H       -1.73873224       0.26379919       1.05038828
H       -0.96027054      -1.17521234       1.43745207
H       -2.01826775      -1.18638614       0.08944994
H        0.49549485       2.47358239      -0.18612011
H        2.25756273       0.57593402       0.64223256
H        1.17794682      -1.73198011      -0.38374165
12
Frame=14 idx=002942 GeodesicLength=1.1205615534152613 rxn_smarts="[C:1]([c:2]1[c:3]([H:10])[c:4]([H:11])[c:5]([H:12])[o:6]1)([H:7])([H:8])[H:9]>>[C:1]([C@:5]1([H:12])[C:4]([H:11])=[C:3]([H:10])[C-:2]=[O+:6]1)([H:7])([H:8])[H:9]"
C       -1.25601963      -0.57646152       0.56836706
C       -0.59075235       0.68340256      -0.97604808
C        0.53309302       1.42708148      -0.46880605
C        1.42024571       0.46425682      -0.03132177
C        0.73843777      -0.76392143      -0.30134291
O       -0.04921942      -0.47068323      -1.42920945
H       -1.74501644       0.26815031       1.05556488
H       -0.99056479      -1.17943465       1.44191755
H       -2.03670596      -1.17595771       0.09275191
H        0.49275611       2.46559627      -0.17807654
H        2.26026005       0.58257667       0.63712803
H        1.22348596      -1.72460557      -0.41092464
12
Frame=15 idx=002942 GeodesicLength=1.2004464621297941 rxn_smarts="[C:1]([c:2]1[c:3]([H:10])[c:4]([H:11])[c:5]([H:12])[o:6]1)([H:7])([H:8])[H:9]>>[C:1]([C@:5]1([H:12])[C:4]([H:11])=[C:3]([H:10])[C-:2]=[O+:6]1)([H:7])([H:8])[H:9]"
C       -1.26739549      -0.57414976       0.57178690
C       -0.58695316       0.68829879      -0.98423211
C        0.53407759       1.42320520      -0.47765221
C        1.42678733       0.45996280      -0.03908699
C        0.75749699      -0.77320563      -0.29244696
O       -0.05768986      -0.47936271      -1.40394899
H       -1.75116294       0.27288918       1.06075126
H       -1.02129314      -1.18314344       1.44662027
H       -2.05537714      -1.16509607       0.09636938
H        0.48965590       2.45690830      -0.17029169
H        2.26271453       0.58911423       0.63245683
H        1.26913939      -1.71542089      -0.44032569
12
Frame=16 idx=002942 GeodesicLength=1.28029099660873 rxn_smarts="[C:1]([c:2]1[c:3]([H:10])[c:4]([H:11])[c:5]([H:12])[o:6]1)([H:7])([H:8])[H:9]>>[C:1]([C@:5]1([H:12])[C:4]([H:11])=[C:3]([H:10])[C-:2]=[O+:6]1)([H:7])([H:8])[H:9]"
C       -1.27883740      -0.57174294       0.57553529
C       -0.58280426       0.69233900      -0.99313315
C        0.53492965       1.41881777      -0.48641527
C        1.43313013       0.45533046      -0.04619262
C        0.77738987      -0.78302745      -0.28367987
O       -0.06565447      -0.48828852      -1.37769440
H       -1.75709456       0.27802617       1.06594167
H       -1.05236205      -1.18630129       1.45157395
H       -2.07419818      -1.15380716       0.10029949
H        0.48610326       2.44749232      -0.16273987
H        2.26483220       0.59552338       0.62836679
H        1.31456581      -1.70436175      -0.47186199
