19
Frame=0 idx=011045 GeodesicLength=0.0 rxn_smarts="[C:1]([C:2]([C:3]([C@@:4]1([H:15])[C:5]([H:16])([H:17])[C@:6]1([O:7][H:19])[H:18])([H:13])[H:14])([H:11])[H:12])([H:8])([H:9])[H:10]>>[C:1]([C:2]([H:11])([H:12])[H:14])([H:8])([H:9])[H:10].[C:3]([C@@:4]1([H:15])[C:5]([H:16])([H:17])[C@:6]1([O:7][H:19])[H:18])[H:13]"
C       -2.48556734       0.28886501      -0.57683275
C       -1.59342009       0.58651819       0.60550631
C       -0.04942924      -1.12544546       0.68650331
C        1.20272767      -0.39276699       0.83708567
C        2.34504003      -0.98015509       0.00682607
C        1.88717635       0.38863938      -0.28148174
O        1.24454220       0.57419023      -1.50196003
H       -1.90390641       0.10368192      -1.48088281
H       -3.09871620      -0.59453537      -0.39005781
H       -3.16403192       1.12205024      -0.77703772
H       -2.15780901       0.87067812       1.49769904
H       -0.83363557       1.34107155       0.42231096
H       -0.25573394      -1.28661762      -0.37878270
H       -1.12112394      -0.43009920       1.08066378
H        1.48533743      -0.09415182       1.84150959
H        2.07336252      -1.73799000      -0.71678884
H        3.29199526      -1.13728071       0.50389782
H        2.52126092       1.21376555       0.03351310
H        0.61193125       1.28958215      -1.41169133
19
Frame=1 idx=011045 GeodesicLength=0.05569238349901161 rxn_smarts="[C:1]([C:2]([C:3]([C@@:4]1([H:15])[C:5]([H:16])([H:17])[C@:6]1([O:7][H:19])[H:18])([H:13])[H:14])([H:11])[H:12])([H:8])([H:9])[H:10]>>[C:1]([C:2]([H:11])([H:12])[H:14])([H:8])([H:9])[H:10].[C:3]([C@@:4]1([H:15])[C:5]([H:16])([H:17])[C@:6]1([O:7][H:19])[H:18])[H:13]"
C       -2.49533522       0.28488897      -0.57237312
C       -1.59162536       0.58913831       0.60038303
C       -0.05304459      -1.11763979       0.67050525
C        1.20463436      -0.39903766       0.83500106
C        2.35152516      -0.98206999       0.00713377
C        1.89501904       0.38723679      -0.27808961
O        1.25852453       0.57895334      -1.50039773
H       -1.92169505       0.09913552      -1.48155758
H       -3.10324817      -0.60010802      -0.37630486
H       -3.17827856       1.11485672      -0.77021938
H       -2.15019546       0.88971390       1.49112037
H       -0.84449090       1.35390909       0.40405728
H       -0.24888217      -1.28319110      -0.39582913
H       -1.12998607      -0.43570833       1.09956948
H        1.48198630      -0.10245456       1.84147996
H        2.08394185      -1.73725004      -0.72072187
H        3.29575660      -1.14063099       0.50896018
H        2.52579462       1.21170895       0.04500289
H        0.61959908       1.28854890      -1.40771998
19
Frame=2 idx=011045 GeodesicLength=0.11127875614554256 rxn_smarts="[C:1]([C:2]([C:3]([C@@:4]1([H:15])[C:5]([H:16])([H:17])[C@:6]1([O:7][H:19])[H:18])([H:13])[H:14])([H:11])[H:12])([H:8])([H:9])[H:10]>>[C:1]([C:2]([H:11])([H:12])[H:14])([H:8])([H:9])[H:10].[C:3]([C@@:4]1([H:15])[C:5]([H:16])([H:17])[C@:6]1([O:7][H:19])[H:18])[H:13]"
C       -2.50504103       0.28086180      -0.56791169
C       -1.58977264       0.59194708       0.59501970
C       -0.05673384      -1.10924216       0.65476190
C        1.20656488      -0.40535411       0.83297703
C        2.35785139      -0.98409622       0.00735101
C        1.90284622       0.38580529      -0.27458839
O        1.27231665       0.58390336      -1.49854075
H       -1.93951871       0.09440518      -1.48216688
H       -3.10745490      -0.60575628      -0.36245429
H       -3.19258158       1.10748698      -0.76332390
H       -2.14255469       0.90814102       1.48422594
H       -0.85593395       1.36698524       0.38536931
H       -0.24187392      -1.27989245      -0.41245733
H       -1.13831226      -0.44080262       1.11810844
H        1.47884836      -0.11091188       1.84146168
H        2.09415672      -1.73651310      -0.72472566
H        3.29936488      -1.14430684       0.51378962
H        2.53043472       1.20944925       0.05657475
H        0.62739370       1.28789044      -1.40347050
19
Frame=3 idx=011045 GeodesicLength=0.16675937176765873 rxn_smarts="[C:1]([C:2]([C:3]([C@@:4]1([H:15])[C:5]([H:16])([H:17])[C@:6]1([O:7][H:19])[H:18])([H:13])[H:14])([H:11])[H:12])([H:8])([H:9])[H:10]>>[C:1]([C:2]([H:11])([H:12])[H:14])([H:8])([H:9])[H:10].[C:3]([C@@:4]1([H:15])[C:5]([H:16])([H:17])[C@:6]1([O:7][H:19])[H:18])[H:13]"
C       -2.51468399       0.27678481      -0.56345143
C       -1.58786561       0.59496767       0.58939653
C       -0.06047157      -1.10028805       0.63926690
C        1.20851711      -0.41173225       0.83100752
C        2.36403101      -0.98622798       0.00747098
C        1.91065272       0.38434464      -0.27097425
O        1.28591562       0.58903898      -1.49638564
H       -1.95737862       0.08946103      -1.48270556
H       -3.11134916      -0.61145810      -0.34848919
H       -3.20692443       1.09994703      -0.75637304
H       -2.13489708       0.92601230       1.47702097
H       -0.86795822       1.38026584       0.36625026
H       -0.23472667      -1.27671956      -0.42865404
H       -1.14611564      -0.44539135       1.13629204
H        1.47591550      -0.11954364       1.84145321
H        2.10403397      -1.73576948      -0.72881791
H        3.30283371      -1.14829273       0.51838119
H        2.53516482       1.20699158       0.06824227
H        0.63530653       1.28760928      -1.39893081
19
Frame=4 idx=011045 GeodesicLength=0.2221417804946191 rxn_smarts="[C:1]([C:2]([C:3]([C@@:4]1([H:15])[C:5]([H:16])([H:17])[C@:6]1([O:7][H:19])[H:18])([H:13])[H:14])([H:11])[H:12])([H:8])([H:9])[H:10]>>[C:1]([C:2]([H:11])([H:12])[H:14])([H:8])([H:9])[H:10].[C:3]([C@@:4]1([H:15])[C:5]([H:16])([H:17])[C@:6]1([O:7][H:19])[H:18])[H:13]"
C       -2.52426604       0.27265724      -0.55899306
C       -1.58590709       0.59821932       0.58349377
C       -0.06423370      -1.09081060       0.62401106
C        1.21048825      -0.41818778       0.82908588
C        2.37007627      -0.98845921       0.00748821
C        1.91843563       0.38285527      -0.26724264
O        1.29932280       0.59436145      -1.49392858
H       -1.97528001       0.08427393      -1.48316841
H       -3.11494553      -0.61719160      -0.33438904
H       -3.22129502       1.09223932      -0.74938399
H       -2.12722804       0.94338668       1.46950942
H       -0.88055631       1.39371953       0.34669507
H       -0.22745763      -1.27366864      -0.44441124
H       -1.15341193      -0.44948829       1.15413187
H        1.47317770      -0.12837138       1.84145291
H        2.11360117      -1.73500812      -0.73301613
H        3.30617666      -1.15257440       0.52273204
H        2.53997093       1.20434017       0.08002226
H        0.64333190       1.28770710      -1.39408940
19
Frame=5 idx=011045 GeodesicLength=0.2774311401486485 rxn_smarts="[C:1]([C:2]([C:3]([C@@:4]1([H:15])[C:5]([H:16])([H:17])[C@:6]1([O:7][H:19])[H:18])([H:13])[H:14])([H:11])[H:12])([H:8])([H:9])[H:10]>>[C:1]([C:2]([H:11])([H:12])[H:14])([H:8])([H:9])[H:10].[C:3]([C@@:4]1([H:15])[C:5]([H:16])([H:17])[C@:6]1([O:7][H:19])[H:18])[H:13]"
C       -2.53378815       0.26847902      -0.55453667
C       -1.58389751       0.60171768       0.57729041
C       -0.06799854      -1.08084179       0.60898298
C        1.21247438      -0.42473564       0.82720386
C        2.37599848      -0.99078370       0.00739755
C        1.92619052       0.38133770      -0.26338875
O        1.31253860       0.59987197      -1.49116621
H       -1.99322891       0.07881417      -1.48354865
H       -3.11825613      -0.62293580      -0.32013291
H       -3.23568060       1.08436879      -0.74237245
H       -2.11954596       0.96031915       1.46168861
H       -0.89372107       1.40731632       0.32670227
H       -0.22008382      -1.27073959      -0.45972182
H       -1.16021605      -0.45310370       1.17164247
H        1.47062292      -0.13741581       1.84145845
H        2.12288618      -1.73421751      -0.73733701
H        3.30940428      -1.15713776       0.52684097
H        2.54483765       1.20149917       0.09193146
H        0.65146372       1.28818732      -1.38893457
19
Frame=6 idx=011045 GeodesicLength=0.3326248361041232 rxn_smarts="[C:1]([C:2]([C:3]([C@@:4]1([H:15])[C:5]([H:16])([H:17])[C@:6]1([O:7][H:19])[H:18])([H:13])[H:14])([H:11])[H:12])([H:8])([H:9])[H:10]>>[C:1]([C:2]([H:11])([H:12])[H:14])([H:8])([H:9])[H:10].[C:3]([C@@:4]1([H:15])[C:5]([H:16])([H:17])[C@:6]1([O:7][H:19])[H:18])[H:13]"
C       -2.54324793       0.26425002      -0.55008295
C       -1.58183863       0.60547658       0.57076662
C       -0.07174605      -1.07040939       0.59417855
C        1.21447115      -0.43138745       0.82535483
C        2.38180604      -0.99319567       0.00719319
C        1.93391299       0.37979256      -0.25940911
O        1.32556051       0.60557245      -1.48809310
H       -2.01122456       0.07305434      -1.48383915
H       -3.12129107      -0.62866941      -0.30570424
H       -3.25006496       1.07634057      -0.73535339
H       -2.11185437       0.97685704       1.45355560
H       -0.90744661       1.42102373       0.30627194
H       -0.21262154      -1.26792900      -0.47457770
H       -1.16654136      -0.45624786       1.18883746
H        1.46824294      -0.14669457       1.84146684
H        2.13191003      -1.73338671      -0.74179614
H        3.31252602      -1.16197089       0.53070347
H        2.54975130       1.19847128       0.10398274
H        0.65969609       1.28905236      -1.38345547
19
Frame=7 idx=011045 GeodesicLength=0.38773945263588383 rxn_smarts="[C:1]([C:2]([C:3]([C@@:4]1([H:15])[C:5]([H:16])([H:17])[C@:6]1([O:7][H:19])[H:18])([H:13])[H:14])([H:11])[H:12])([H:8])([H:9])[H:10]>>[C:1]([C:2]([H:11])([H:12])[H:14])([H:8])([H:9])[H:10].[C:3]([C@@:4]1([H:15])[C:5]([H:16])([H:17])[C@:6]1([O:7][H:19])[H:18])[H:13]"
C       -2.55264996       0.25996847      -0.54562671
C       -1.57973063       0.60950632       0.56390197
C       -0.07545750      -1.05953918       0.57958097
C        1.21647302      -0.43815627       0.82352874
C        2.38750963      -0.99568924       0.00687208
C        1.94160308       0.37822081      -0.25529867
O        1.33839812       0.61146709      -1.48470794
H       -2.02927870       0.06696817      -1.48403209
H       -3.12405920      -0.63437498      -0.29108006
H       -3.26444419       1.06815400      -0.72833182
H       -2.10414518       0.99305892       1.44510366
H       -0.92172482       1.43481226       0.28539137
H       -0.20508687      -1.26523251      -0.48897958
H       -1.17240642      -0.45893349       1.20573457
H        1.46602037      -0.15622895       1.84147421
H        2.14069939      -1.73250312      -0.74640858
H        3.31555011      -1.16706315       0.53432308
H        2.55470159       1.19525863       0.11619512
H        0.66802815       1.29030620      -1.37764033
19
Frame=8 idx=011045 GeodesicLength=0.44277794825359784 rxn_smarts="[C:1]([C:2]([C:3]([C@@:4]1([H:15])[C:5]([H:16])([H:17])[C@:6]1([O:7][H:19])[H:18])([H:13])[H:14])([H:11])[H:12])([H:8])([H:9])[H:10]>>[C:1]([C:2]([H:11])([H:12])[H:14])([H:8])([H:9])[H:10].[C:3]([C@@:4]1([H:15])[C:5]([H:16])([H:17])[C@:6]1([O:7][H:19])[H:18])[H:13]"
C       -2.56199286       0.25563321      -0.54116722
C       -1.57757328       0.61381468       0.55667602
C       -0.07911586      -1.04825564       0.56518159
C        1.21847455      -0.44505230       0.82171710
C        2.39311686      -0.99825792       0.00643034
C        1.94925687       0.37662335      -0.25105435
O        1.35105136       0.61755826      -1.48100721
H       -2.04739409       0.06053003      -1.48411968
H       -3.12657027      -0.64003034      -0.27624162
H       -3.27880466       1.05981417      -0.72131777
H       -2.09641286       1.00897046       1.43632525
H       -0.93654690       1.44865505       0.26405870
H       -0.19749637      -1.26265130      -0.50292203
H       -1.17782535      -0.46117386       1.22234760
H        1.46394256      -0.16603681       1.84147680
H        2.14927639      -1.73155472      -0.75118724
H        3.31848397      -1.17240241       0.53769917
H        2.55967583       1.19186317       0.12858132
H        0.67645411       1.29195292      -1.37147679
19
Frame=9 idx=011045 GeodesicLength=0.4977467678880255 rxn_smarts="[C:1]([C:2]([C:3]([C@@:4]1([H:15])[C:5]([H:16])([H:17])[C@:6]1([O:7][H:19])[H:18])([H:13])[H:14])([H:11])[H:12])([H:8])([H:9])[H:10]>>[C:1]([C:2]([H:11])([H:12])[H:14])([H:8])([H:9])[H:10].[C:3]([C@@:4]1([H:15])[C:5]([H:16])([H:17])[C@:6]1([O:7][H:19])[H:18])[H:13]"
C       -2.57128039       0.25123926      -0.53669891
C       -1.57536427       0.61840847       0.54906973
C       -0.08270634      -1.03658002       0.55096042
C        1.22046843      -0.45208698       0.81990807
C        2.39863593      -1.00089610       0.00586514
C        1.95687453       0.37500166      -0.24667005
O        1.36353050       0.62385206      -1.47698744
H       -2.06558071       0.05371581      -1.48409097
H       -3.12883636      -0.64561881      -0.26116194
H       -3.29314035       1.05132139      -0.71431543
H       -2.08864373       1.02464330       1.42720549
H       -0.95190968       1.46252024       0.24226164
H       -0.18986485      -1.26018316      -0.51640655
H       -1.18281148      -0.46297437       1.23869397
H        1.46199246      -0.17613839       1.84146886
H        2.15766578      -1.73052807      -0.75614583
H        3.32133210      -1.17798065       0.54083549
H        2.56466347       1.18828561       0.14116156
H        0.68497497       1.29399876      -1.36495323
19
Frame=10 idx=011045 GeodesicLength=0.5526394688009584 rxn_smarts="[C:1]([C:2]([C:3]([C@@:4]1([H:15])[C:5]([H:16])([H:17])[C@:6]1([O:7][H:19])[H:18])([H:13])[H:14])([H:11])[H:12])([H:8])([H:9])[H:10]>>[C:1]([C:2]([H:11])([H:12])[H:14])([H:8])([H:9])[H:10].[C:3]([C@@:4]1([H:15])[C:5]([H:16])([H:17])[C@:6]1([O:7][H:19])[H:18])[H:13]"
C       -2.58050472       0.24679160      -0.53221992
C       -1.57310511       0.62329134       0.54106057
C       -0.08621500      -1.02453325       0.53691813
C        1.22244770      -0.45926613       0.81809418
C        2.40407032      -1.00359754       0.00517233
C        1.96444874       0.37335620      -0.24214466
O        1.37582846       0.63034918      -1.47264381
H       -2.08383299       0.04650146      -1.48393496
H       -3.13085298      -0.65111932      -0.24583269
H       -3.30743393       1.04268567      -0.70733117
H       -2.08083512       1.04010725       1.41773284
H       -0.96780379       1.47637952       0.22000516
H       -0.18220825      -1.25782878      -0.52942821
H       -1.18737548      -0.46434493       1.25478861
H        1.46015829      -0.18654569       1.84144566
H        2.16588200      -1.72941243      -0.76129463
H        3.32409807      -1.18378695       0.54372897
H        2.56965111       1.18452634       0.15394157
H        0.69358267       1.29644647      -1.35805796
19
Frame=11 idx=011045 GeodesicLength=0.6074772845901071 rxn_smarts="[C:1]([C:2]([C:3]([C@@:4]1([H:15])[C:5]([H:16])([H:17])[C@:6]1([O:7][H:19])[H:18])([H:13])[H:14])([H:11])[H:12])([H:8])([H:9])[H:10]>>[C:1]([C:2]([H:11])([H:12])[H:14])([H:8])([H:9])[H:10].[C:3]([C@@:4]1([H:15])[C:5]([H:16])([H:17])[C@:6]1([O:7][H:19])[H:18])[H:13]"
C       -2.58966971       0.24228624      -0.52772325
C       -1.57079530       0.62846514       0.53262727
C       -0.08962795      -1.01213174       0.52303832
C        1.22440509      -0.46659783       0.81626421
C        2.40942747      -1.00635646       0.00435126
C        1.97198203       0.37168833      -0.23747435
O        1.38795853       0.63705554      -1.46797538
H       -2.10216054       0.03887030      -1.48364283
H       -3.13263048      -0.65651270      -0.23022819
H       -3.32168560       1.03390333      -0.70036001
H       -2.07297063       1.05540813       1.40789587
H       -0.98422278       1.49021062       0.19726715
H       -0.17454139      -1.25558540      -0.54198992
H       -1.19153420      -0.46530456       1.27064605
H        1.45842021      -0.19727609       1.84140133
H        2.17394693      -1.72819460      -0.76664394
H        3.32678596      -1.18981389       0.54638589
H        2.57463326       1.18058449       0.16693888
H        0.70227911       1.29930115      -1.35077834
19
Frame=12 idx=011045 GeodesicLength=0.6622466389411534 rxn_smarts="[C:1]([C:2]([C:3]([C@@:4]1([H:15])[C:5]([H:16])([H:17])[C@:6]1([O:7][H:19])[H:18])([H:13])[H:14])([H:11])[H:12])([H:8])([H:9])[H:10]>>[C:1]([C:2]([H:11])([H:12])[H:14])([H:8])([H:9])[H:10].[C:3]([C@@:4]1([H:15])[C:5]([H:16])([H:17])[C@:6]1([O:7][H:19])[H:18])[H:13]"
C       -2.59876652       0.23772754      -0.52320606
C       -1.56843463       0.63393041       0.52375126
C       -0.09293450      -0.99939467       0.50931710
C        1.22633177      -0.47408601       0.81440815
C        2.41470885      -1.00916635       0.00339864
C        1.97946669       0.36999860      -0.23265813
O        1.39991464       0.64397112      -1.46297843
H       -2.12055674       0.03080220      -1.48319873
H       -3.13416114      -0.66177871      -0.21434273
H       -3.33587629       1.02498721      -0.69340942
H       -2.06504598       1.07057066       1.39767754
H       -1.00115749       1.50397832       0.17406019
H       -0.16687984      -1.25345643      -0.55408910
H       -1.19529540      -0.46585623       1.28628437
H        1.45676584      -0.20833848       1.84132803
H        2.18187468      -1.72686356      -0.77220198
H        3.32939556      -1.19605091       0.54880510
H        2.57959447       1.17646025       0.18015812
H        0.71105604       1.30256504      -1.34310392
19
Frame=13 idx=011045 GeodesicLength=0.716956833461813 rxn_smarts="[C:1]([C:2]([C:3]([C@@:4]1([H:15])[C:5]([H:16])([H:17])[C@:6]1([O:7][H:19])[H:18])([H:13])[H:14])([H:11])[H:12])([H:8])([H:9])[H:10]>>[C:1]([C:2]([H:11])([H:12])[H:14])([H:8])([H:9])[H:10].[C:3]([C@@:4]1([H:15])[C:5]([H:16])([H:17])[C@:6]1([O:7][H:19])[H:18])[H:13]"
C       -2.60779275       0.23311623      -0.51866282
C       -1.56602273       0.63968419       0.51441576
C       -0.09612336      -0.98633842       0.49574177
C        1.22821914      -0.48173558       0.81251459
C        2.41991910      -1.01202025       0.00231327
C        1.98690012       0.36828836      -0.22769399
O        1.41170234       0.65109960      -1.45765103
H       -2.13902410       0.02228008      -1.48259079
H       -3.13544728      -0.66689547      -0.19816131
H       -3.34999768       1.01594108      -0.68647659
H       -2.05704508       1.08563010       1.38706468
H       -1.01859991       1.51765758       0.15037430
H       -0.15923887      -1.25144343      -0.56572750
H       -1.19867272      -0.46601627       1.30171952
H        1.45517551      -0.21974579       1.84121842
H        2.18968383      -1.72540643      -0.77797603
H        3.33192857      -1.20248831       0.55099096
H        2.58452571       1.17215325       0.19361116
H        0.71991016       1.30623948      -1.33502436
19
Frame=14 idx=011045 GeodesicLength=0.771613958255714 rxn_smarts="[C:1]([C:2]([C:3]([C@@:4]1([H:15])[C:5]([H:16])([H:17])[C@:6]1([O:7][H:19])[H:18])([H:13])[H:14])([H:11])[H:12])([H:8])([H:9])[H:10]>>[C:1]([C:2]([H:11])([H:12])[H:14])([H:8])([H:9])[H:10].[C:3]([C@@:4]1([H:15])[C:5]([H:16])([H:17])[C@:6]1([O:7][H:19])[H:18])[H:13]"
C       -2.61674224       0.22845404      -0.51408784
C       -1.56355993       0.64572253       0.50460059
C       -0.09918441      -0.97297963       0.48230446
C        1.23005772      -0.48954901       0.81057247
C        2.42506050      -1.01491128       0.00109451
C        1.99427916       0.36655877      -0.22258184
O        1.42332292       0.65844177      -1.45199308
H       -2.15755673       0.01329462      -1.48180349
H       -3.13648664      -0.67184210      -0.18167185
H       -3.36403773       1.00677265      -0.67955919
H       -2.04895962       1.10061080       1.37603895
H       -1.03653855       1.53122027       0.12621043
H       -0.15163373      -1.24954851      -0.57690651
H       -1.20167782      -0.46579947       1.31696921
H        1.45363117      -0.23150579       1.84106374
H        2.19738957      -1.72381154      -0.78397152
H        3.33438478      -1.20911600       0.55294710
H        2.58941474       1.16766271       0.20730392
H        0.72883685       1.31032516      -1.32653005
19
Frame=15 idx=011045 GeodesicLength=0.8262178027462316 rxn_smarts="[C:1]([C:2]([C:3]([C@@:4]1([H:15])[C:5]([H:16])([H:17])[C@:6]1([O:7][H:19])[H:18])([H:13])[H:14])([H:11])[H:12])([H:8])([H:9])[H:10]>>[C:1]([C:2]([H:11])([H:12])[H:14])([H:8])([H:9])[H:10].[C:3]([C@@:4]1([H:15])[C:5]([H:16])([H:17])[C@:6]1([O:7][H:19])[H:18])[H:13]"
C       -2.62560623       0.22374700      -0.50947736
C       -1.56104628       0.65203935       0.49428924
C       -0.10210881      -0.95933505       0.46899889
C        1.23183748      -0.49752638       0.80857056
C        2.43013455      -1.01783197      -0.00025738
C        2.00159758       0.36481031      -0.21732378
O        1.43477437       0.66599485      -1.44600588
H       -2.17614601       0.00383787      -1.48082193
H       -3.13727195      -0.67659634      -0.16487262
H       -3.37798052       0.99749535      -0.67265495
H       -2.04078104       1.11552869       1.36458611
H       -1.05496113       1.54463679       0.10157907
H       -0.14408009      -1.24777698      -0.58762572
H       -1.20432204      -0.46522128       1.33205092
H        1.45211481      -0.24362100       1.84085418
H        2.20500605      -1.72206888      -0.79019032
H        3.33676353      -1.21592122       0.55467754
H        2.59424843       1.16298904       0.22123690
H        0.73782731       1.31481986      -1.31761347
19
Frame=16 idx=011045 GeodesicLength=0.880774209937011 rxn_smarts="[C:1]([C:2]([C:3]([C@@:4]1([H:15])[C:5]([H:16])([H:17])[C@:6]1([O:7][H:19])[H:18])([H:13])[H:14])([H:11])[H:12])([H:8])([H:9])[H:10]>>[C:1]([C:2]([H:11])([H:12])[H:14])([H:8])([H:9])[H:10].[C:3]([C@@:4]1([H:15])[C:5]([H:16])([H:17])[C@:6]1([O:7][H:19])[H:18])[H:13]"
C       -2.63437563       0.21900169      -0.50482598
C       -1.55848244       0.65862643       0.48346673
C       -0.10488812      -0.94542059       0.45581789
C        1.23354843      -0.50566663       0.80649751
C        2.43514209      -1.02077480      -0.00174181
C        2.00885015       0.36304401      -0.21192197
O        1.44605743       0.67375737      -1.43969064
H       -2.19478252      -0.00609445      -1.47963055
H       -3.13779525      -0.68113548      -0.14776180
H       -3.39181307       0.98811923      -0.66576007
H       -2.03250000       1.13039996       1.35269377
H       -1.07385520       1.55788019       0.07648471
H       -0.13659407      -1.24613230      -0.59788591
H       -1.20661686      -0.46430234       1.34698297
H        1.45060734      -0.25609348       1.84057976
H        2.21254682      -1.72016789      -0.79663356
H        3.33906269      -1.22289233       0.55618736
H        2.59901394       1.15813203       0.23541099
H        0.74687427       1.31971937      -1.30826941
