16
Frame=0 idx=005859 GeodesicLength=0.0 rxn_smarts="[C:1]([C@@:2]1([H:10])[C:3]([H:11])([H:12])[C:4]([H:13])([H:14])[C:5]([H:15])([H:16])[O:6]1)([H:7])([H:8])[H:9]>>[C:1]([C@@:2]([C:3]([C:4]([H:13])([H:14])[H:15])([H:11])[H:12])([O+:6]=[C-:5][H:16])[H:10])([H:7])([H:8])[H:9]"
C        2.08404182       0.17052872       0.33506591
C        0.60444245       0.41886554       0.17093681
C       -0.10315971      -0.52620205      -0.80907123
C       -1.59655607      -0.47178882      -0.58952863
C       -1.38097368       0.43452271       1.34726348
O       -0.06379806       0.17819265       1.40811783
H        2.51034394       0.86285926       1.06097176
H        2.60092109       0.30575676      -0.61641025
H        2.25954246      -0.84860793       0.68355694
H        0.41225611       1.46061274      -0.12422289
H        0.14812962      -0.25101425      -1.83625191
H        0.26837620      -1.53889453      -0.63667113
H       -2.09193876      -1.42948868      -0.75817574
H       -2.11719548       0.31334792      -1.13036268
H       -1.96516498      -0.46278655       0.67920118
H       -1.56926694       1.38409653       0.81558060
16
Frame=1 idx=005859 GeodesicLength=0.052869554235646155 rxn_smarts="[C:1]([C@@:2]1([H:10])[C:3]([H:11])([H:12])[C:4]([H:13])([H:14])[C:5]([H:15])([H:16])[O:6]1)([H:7])([H:8])[H:9]>>[C:1]([C@@:2]([C:3]([C:4]([H:13])([H:14])[H:15])([H:11])[H:12])([O+:6]=[C-:5][H:16])[H:10])([H:7])([H:8])[H:9]"
C        2.08382330       0.17259990       0.33311424
C        0.60404209       0.41870549       0.16701725
C       -0.10200952      -0.53139763      -0.80788532
C       -1.59607064      -0.46830475      -0.58847889
C       -1.38111246       0.43371872       1.34911603
O       -0.06215322       0.18508190       1.40791253
H        2.50910045       0.86776254       1.05695727
H        2.60089113       0.30532828      -0.61864403
H        2.26070715      -0.84513332       0.68502570
H        0.41158415       1.45901013      -0.13287878
H        0.15331303      -0.26431729      -1.83612978
H        0.26541402      -1.54421612      -0.62712376
H       -2.09691834      -1.41896652      -0.77931418
H       -2.10559477       0.32319128      -1.13162463
H       -1.96949878      -0.48540358       0.68686653
H       -1.57551758       1.39234097       0.83606982
16
Frame=2 idx=005859 GeodesicLength=0.10576859528682213 rxn_smarts="[C:1]([C@@:2]1([H:10])[C:3]([H:11])([H:12])[C:4]([H:13])([H:14])[C:5]([H:15])([H:16])[O:6]1)([H:7])([H:8])[H:9]>>[C:1]([C@@:2]([C:3]([C:4]([H:13])([H:14])[H:15])([H:11])[H:12])([O+:6]=[C-:5][H:16])[H:10])([H:7])([H:8])[H:9]"
C        2.08354196       0.17460280       0.33119496
C        0.60360982       0.41855094       0.16304492
C       -0.10089482      -0.53654635      -0.80677229
C       -1.59560073      -0.46492754      -0.58742704
C       -1.38136279       0.43310467       1.35075994
O       -0.06065751       0.19213549       1.40759192
H        2.50779125       0.87258106       1.05298787
H        2.60086028       0.30478446      -0.62082095
H        2.26171627      -0.84172790       0.68655941
H        0.41095072       1.45740174      -0.14163292
H        0.15836398      -0.27747423      -1.83600705
H        0.26246167      -1.54941515      -0.61773449
H       -2.10162202      -1.40821128      -0.80004929
H       -2.09397518       0.33275593      -1.13289523
H       -1.97348514      -0.50827892       0.69425796
H       -1.58169777       1.40066428       0.85694229
16
Frame=3 idx=005859 GeodesicLength=0.1585621373358247 rxn_smarts="[C:1]([C@@:2]1([H:10])[C:3]([H:11])([H:12])[C:4]([H:13])([H:14])[C:5]([H:15])([H:16])[O:6]1)([H:7])([H:8])[H:9]>>[C:1]([C@@:2]([C:3]([C:4]([H:13])([H:14])[H:15])([H:11])[H:12])([O+:6]=[C-:5][H:16])[H:10])([H:7])([H:8])[H:9]"
C        2.08319817       0.17654321       0.32929744
C        0.60314320       0.41838553       0.15901506
C       -0.09981132      -0.54164205      -0.80570183
C       -1.59514613      -0.46162992      -0.58636844
C       -1.38172699       0.43265975       1.35215725
O       -0.05931337       0.19933362       1.40710850
H        2.50641208       0.87732410       1.04900754
H        2.60082778       0.30410710      -0.62292534
H        2.26257955      -0.83834342       0.68816128
H        0.41034748       1.45573507      -0.15048404
H        0.16330453      -0.29050625      -1.83582527
H        0.25951626      -1.55445617      -0.60846255
H       -2.10606314      -1.39717564      -0.82038692
H       -2.08232475       0.34206018      -1.13414249
H       -1.97713281      -0.53139627       0.70134062
H       -1.58781054       1.40900117       0.87820920
16
Frame=4 idx=005859 GeodesicLength=0.2113936686489734 rxn_smarts="[C:1]([C@@:2]1([H:10])[C:3]([H:11])([H:12])[C:4]([H:13])([H:14])[C:5]([H:15])([H:16])[O:6]1)([H:7])([H:8])[H:9]>>[C:1]([C@@:2]([C:3]([C:4]([H:13])([H:14])[H:15])([H:11])[H:12])([O+:6]=[C-:5][H:16])[H:10])([H:7])([H:8])[H:9]"
C        2.08279492       0.17842518       0.32743048
C        0.60264545       0.41822197       0.15493218
C       -0.09876300      -0.54669991      -0.80470025
C       -1.59471111      -0.45842097      -0.58532727
C       -1.38219420       0.43241631       1.35335642
O       -0.05811479       0.20667472       1.40650380
H        2.50496923       0.88201084       1.04505410
H        2.60079448       0.30331271      -0.62497667
H        2.26329887      -0.83501031       0.68984283
H        0.40978222       1.45405624      -0.15943559
H        0.16813330      -0.30342276      -1.83564560
H        0.25657233      -1.55938870      -0.59933051
H       -2.11025139      -1.38592929      -0.84032791
H       -2.07065233       0.35111327      -1.13541655
H       -1.98045748      -0.55474577       0.70812897
H       -1.59384651       1.41738647       0.89991158
16
Frame=5 idx=005859 GeodesicLength=0.2642245427946965 rxn_smarts="[C:1]([C@@:2]1([H:10])[C:3]([H:11])([H:12])[C:4]([H:13])([H:14])[C:5]([H:15])([H:16])[O:6]1)([H:7])([H:8])[H:9]>>[C:1]([C@@:2]([C:3]([C:4]([H:13])([H:14])[H:15])([H:11])[H:12])([O+:6]=[C-:5][H:16])[H:10])([H:7])([H:8])[H:9]"
C        2.08233263       0.18024879       0.32559198
C        0.60211683       0.41805671       0.15079460
C       -0.09774784      -0.55171484      -0.80376075
C       -1.59429521      -0.45529254      -0.58430432
C       -1.38276325       0.43238628       1.35434719
O       -0.05706337       0.21415091       1.40576223
H        2.50346046       0.88663548       1.04111964
H        2.60076215       0.30240138      -0.62696786
H        2.26387627      -0.83171938       0.69159836
H        0.40925611       1.45235206      -0.16848688
H        0.17285840      -0.31622353      -1.83545441
H        0.25363368      -1.56420099      -0.59033404
H       -2.11418728      -1.37448274      -0.85985744
H       -2.05896301       0.35991282      -1.13671667
H       -1.98347283      -0.57830742       0.71461020
H       -1.59980374       1.42579700       0.92205817
16
Frame=6 idx=005859 GeodesicLength=0.31705088255166447 rxn_smarts="[C:1]([C@@:2]1([H:10])[C:3]([H:11])([H:12])[C:4]([H:13])([H:14])[C:5]([H:15])([H:16])[O:6]1)([H:7])([H:8])[H:9]>>[C:1]([C@@:2]([C:3]([C:4]([H:13])([H:14])[H:15])([H:11])[H:12])([O+:6]=[C-:5][H:16])[H:10])([H:7])([H:8])[H:9]"
C        2.08181250       0.18201535       0.32378225
C        0.60155847       0.41788952       0.14660187
C       -0.09676542      -0.55668601      -0.80288247
C       -1.59389914      -0.45224001      -0.58330431
C       -1.38343090       0.43258597       1.35512939
O       -0.05615845       0.22175655       1.40487937
H        2.50188614       0.89119860       1.03720436
H        2.60073227       0.30137539      -0.62889677
H        2.26431368      -0.82846818       0.69342716
H        0.40877212       1.45062070      -0.17763860
H        0.17748493      -0.32891043      -1.83525190
H        0.25070153      -1.56889337      -0.58147314
H       -2.11787429      -1.36285742      -0.87896899
H       -2.04726311       0.36845895      -1.13805058
H       -1.98619328      -0.60206586       0.72077764
H       -1.60567705       1.43422027       0.94466472
16
Frame=7 idx=005859 GeodesicLength=0.36987275939712827 rxn_smarts="[C:1]([C@@:2]1([H:10])[C:3]([H:11])([H:12])[C:4]([H:13])([H:14])[C:5]([H:15])([H:16])[O:6]1)([H:7])([H:8])[H:9]>>[C:1]([C@@:2]([C:3]([C:4]([H:13])([H:14])[H:15])([H:11])[H:12])([O+:6]=[C-:5][H:16])[H:10])([H:7])([H:8])[H:9]"
C        2.08123577       0.18372615       0.32200182
C        0.60097163       0.41772083       0.14235351
C       -0.09581535      -0.56161293      -0.80206506
C       -1.59352347      -0.44925921      -0.58233179
C       -1.38419413       0.43303311       1.35570345
O       -0.05539911       0.22948747       1.40385220
H        2.50024695       0.89570108       1.03330934
H        2.60070648       0.30023689      -0.63076189
H        2.26461267      -0.82525519       0.69532906
H        0.40833353       1.44886179      -0.18689209
H        0.18201749      -0.34148555      -1.83503964
H        0.24777702      -1.57346743      -0.57274803
H       -2.12131599      -1.35107595      -0.89765883
H       -2.03555922       0.37675194      -1.13942668
H       -1.98863348      -0.62600790       0.72662616
H       -1.61146081       1.44264488       0.96774847
16
Frame=8 idx=005859 GeodesicLength=0.4226904661143804 rxn_smarts="[C:1]([C@@:2]1([H:10])[C:3]([H:11])([H:12])[C:4]([H:13])([H:14])[C:5]([H:15])([H:16])[O:6]1)([H:7])([H:8])[H:9]>>[C:1]([C@@:2]([C:3]([C:4]([H:13])([H:14])[H:15])([H:11])[H:12])([O+:6]=[C-:5][H:16])[H:10])([H:7])([H:8])[H:9]"
C        2.08060361       0.18538267       0.32025115
C        0.60035757       0.41755125       0.13804889
C       -0.09489726      -0.56649547      -0.80130791
C       -1.59316873      -0.44634584      -0.58139092
C       -1.38505028       0.43374597       1.35606911
O       -0.05478429       0.23734052       1.40267789
H        2.49854359       0.90014456       1.02943511
H        2.60068635       0.29898757      -0.63256190
H        2.26477465      -0.82207854       0.69730452
H        0.40794361       1.44707501      -0.19624930
H        0.18646054      -0.35395175      -1.83481898
H        0.24486100      -1.57792503      -0.56415792
H       -2.12451650      -1.33915988      -0.91592622
H       -2.02385752       0.38479258      -1.14085304
H       -1.99080785      -0.65012265       0.73215125
H       -1.61714851       1.45105903       0.99132826
16
Frame=9 idx=005859 GeodesicLength=0.4755042960700939 rxn_smarts="[C:1]([C@@:2]1([H:10])[C:3]([H:11])([H:12])[C:4]([H:13])([H:14])[C:5]([H:15])([H:16])[O:6]1)([H:7])([H:8])[H:9]>>[C:1]([C@@:2]([C:3]([C:4]([H:13])([H:14])[H:15])([H:11])[H:12])([O+:6]=[C-:5][H:16])[H:10])([H:7])([H:8])[H:9]"
C        2.07991716       0.18698635       0.31853072
C        0.59971761       0.41738169       0.13368722
C       -0.09401083      -0.57133349      -0.80061019
C       -1.59283541      -0.44349574      -0.58048532
C       -1.38599704       0.43474384       1.35622525
O       -0.05431285       0.24531384       1.40135368
H        2.49677689       0.90453055       1.02558221
H        2.60067349       0.29762877      -0.63429544
H        2.26480071      -0.81893634       0.69935416
H        0.40760583       1.44526016      -0.20571285
H        0.19081812      -0.36631205      -1.83459097
H        0.24195419      -1.58226795      -0.55570150
H       -2.12748000      -1.32713024      -0.93377245
H       -2.01216420       0.39258154      -1.14233754
H       -1.99273047      -0.67440127       0.73734899
H       -1.62273319       1.45945033       1.01542404
16
Frame=10 idx=005859 GeodesicLength=0.5283147964679937 rxn_smarts="[C:1]([C@@:2]1([H:10])[C:3]([H:11])([H:12])[C:4]([H:13])([H:14])[C:5]([H:15])([H:16])[O:6]1)([H:7])([H:8])[H:9]>>[C:1]([C@@:2]([C:3]([C:4]([H:13])([H:14])[H:15])([H:11])[H:12])([O+:6]=[C-:5][H:16])[H:10])([H:7])([H:8])[H:9]"
C        2.07917744       0.18853887       0.31684099
C        0.59905299       0.41721317       0.12926761
C       -0.09315578      -0.57612715      -0.79997084
C       -1.59252401      -0.44070462      -0.57961844
C       -1.38703251       0.43604661       1.35616993
O       -0.05398362       0.25340640       1.39987689
H        2.49494770       0.90886175       1.02175015
H        2.60066937       0.29616079      -0.63596138
H        2.26469170      -0.81582614       0.70147971
H        0.40732355       1.44341702      -0.21528590
H        0.19509419      -0.37857027      -1.83435646
H        0.23905693      -1.58649824      -0.54737649
H       -2.13021086      -1.31500691      -0.95120134
H       -2.00048491       0.40012008      -1.14388807
H       -1.99441529      -0.69883694       0.74221558
H       -1.62820690       1.46780558       1.04005808
16
Frame=11 idx=005859 GeodesicLength=0.5811245285413352 rxn_smarts="[C:1]([C@@:2]1([H:10])[C:3]([H:11])([H:12])[C:4]([H:13])([H:14])[C:5]([H:15])([H:16])[O:6]1)([H:7])([H:8])[H:9]>>[C:1]([C@@:2]([C:3]([C:4]([H:13])([H:14])[H:15])([H:11])[H:12])([O+:6]=[C-:5][H:16])[H:10])([H:7])([H:8])[H:9]"
C        2.07838536       0.19004185       0.31518246
C        0.59836494       0.41704717       0.12478896
C       -0.09233190      -0.58087690      -0.79938901
C       -1.59223502      -0.43796845      -0.57879353
C       -1.38815523       0.43767568       1.35590086
O       -0.05379551       0.26161863       1.39824543
H        2.49305686       0.91314108       1.01793879
H        2.60067552       0.29458360      -0.63755894
H        2.26444809      -0.81274591       0.70368344
H        0.40710028       1.44154611      -0.22497245
H        0.19929241      -0.39073061      -1.83411691
H        0.23616948      -1.59061859      -0.53918039
H       -2.13271339      -1.30280952      -0.96821855
H       -1.98882512       0.40740962      -1.14551299
H       -1.99587562      -0.72342507       0.74674803
H       -1.63356115       1.47611132       1.06525480
16
Frame=12 idx=005859 GeodesicLength=0.6339582031739559 rxn_smarts="[C:1]([C@@:2]1([H:10])[C:3]([H:11])([H:12])[C:4]([H:13])([H:14])[C:5]([H:15])([H:16])[O:6]1)([H:7])([H:8])[H:9]>>[C:1]([C@@:2]([C:3]([C:4]([H:13])([H:14])[H:15])([H:11])[H:12])([O+:6]=[C-:5][H:16])[H:10])([H:7])([H:8])[H:9]"
C        2.07754198       0.19149766       0.31355734
C        0.59765458       0.41688733       0.12025051
C       -0.09153985      -0.58558691      -0.79886786
C       -1.59196964      -0.43528489      -0.57801704
C       -1.38936289       0.43965592       1.35542186
O       -0.05374607       0.26995358       1.39646458
H        2.49110599       0.91737735       1.01415206
H        2.60069253       0.29289660      -0.63909083
H        2.26407092      -0.80969762       0.70597308
H        0.40693881       1.43965533      -0.23477888
H        0.20341464      -0.40280128      -1.83388331
H        0.23329107      -1.59464073      -0.53111198
H       -2.13499359      -1.29056198      -0.98483824
H       -1.97719071       0.41445547      -1.14722671
H       -1.99712254      -0.74816726       0.75094723
H       -1.63878522       1.48436142       1.09104821
16
Frame=13 idx=005859 GeodesicLength=0.6867332354405514 rxn_smarts="[C:1]([C@@:2]1([H:10])[C:3]([H:11])([H:12])[C:4]([H:13])([H:14])[C:5]([H:15])([H:16])[O:6]1)([H:7])([H:8])[H:9]>>[C:1]([C@@:2]([C:3]([C:4]([H:13])([H:14])[H:15])([H:11])[H:12])([O+:6]=[C-:5][H:16])[H:10])([H:7])([H:8])[H:9]"
C        2.07664745       0.19290582       0.31196065
C        0.59692326       0.41672807       0.11564886
C       -0.09077721      -0.59024460      -0.79839020
C       -1.59172670      -0.43264264      -0.57727921
C       -1.39065807       0.44200200       1.35470082
O       -0.05383804       0.27840849       1.39450365
H        2.48909380       0.92155434       1.01037307
H        2.60072438       0.29109876      -0.64054202
H        2.26355769      -0.80666219       0.70833478
H        0.40684475       1.43771677      -0.24470449
H        0.20746845      -0.41477549      -1.83361981
H        0.23042381      -1.59853342      -0.52315872
H       -2.13705203      -1.27826012      -1.00104279
H       -1.96558448       0.42124544      -1.14901716
H       -1.99817213      -0.77304680       0.75479479
H       -1.64387492       1.49250557       1.11743777
16
Frame=14 idx=005859 GeodesicLength=0.7395669474829228 rxn_smarts="[C:1]([C@@:2]1([H:10])[C:3]([H:11])([H:12])[C:4]([H:13])([H:14])[C:5]([H:15])([H:16])[O:6]1)([H:7])([H:8])[H:9]>>[C:1]([C@@:2]([C:3]([C:4]([H:13])([H:14])[H:15])([H:11])[H:12])([O+:6]=[C-:5][H:16])[H:10])([H:7])([H:8])[H:9]"
C        2.07570338       0.19426507       0.31040608
C        0.59617343       0.41658468       0.11098770
C       -0.09004815      -0.59485945      -0.79798429
C       -1.59150997      -0.43005667      -0.57659565
C       -1.39203514       0.44476996       1.35377150
O       -0.05406651       0.28699700       1.39240320
H        2.48702545       0.92568202       1.00664725
H        2.60077038       0.28919489      -0.64192597
H        2.26290809      -0.80367625       0.71078521
H        0.40682547       1.43577881      -0.25475644
H        0.21143697      -0.42664282      -1.83338819
H        0.22757411      -1.60234078      -0.51535315
H       -2.13888789      -1.26598269      -1.01684874
H       -1.95403173       0.42777924      -1.15092927
H       -1.99903019      -0.79807648       0.75832017
H       -1.64880772       1.50058347       1.14446060
16
Frame=15 idx=005859 GeodesicLength=0.7923001847499509 rxn_smarts="[C:1]([C@@:2]1([H:10])[C:3]([H:11])([H:12])[C:4]([H:13])([H:14])[C:5]([H:15])([H:16])[O:6]1)([H:7])([H:8])[H:9]>>[C:1]([C@@:2]([C:3]([C:4]([H:13])([H:14])[H:15])([H:11])[H:12])([O+:6]=[C-:5][H:16])[H:10])([H:7])([H:8])[H:9]"
C        2.07470768       0.19558197       0.30887887
C        0.59540515       0.41644114       0.10625739
C       -0.08934913      -0.59941713      -0.79760857
C       -1.59131704      -0.42750240      -0.57595007
C       -1.39350128       0.44794734       1.35256323
O       -0.05443757       0.29570909       1.39009648
H        2.48489648       0.92975805       1.00290779
H        2.60083512       0.28716853      -0.64321628
H        2.26211455      -0.80067842       0.71331744
H        0.40688547       1.43377426      -0.26493910
H        0.21534493      -0.43841993      -1.83310320
H        0.22473026      -1.60600332      -0.50764642
H       -2.14051474      -1.25366720      -1.03225557
H       -1.94251184       0.43405398      -1.15291741
H       -1.99971290      -0.82324279       0.76147611
H       -1.65357516       1.50849685       1.17213931
16
Frame=16 idx=005859 GeodesicLength=0.8450757053424784 rxn_smarts="[C:1]([C@@:2]1([H:10])[C:3]([H:11])([H:12])[C:4]([H:13])([H:14])[C:5]([H:15])([H:16])[O:6]1)([H:7])([H:8])[H:9]>>[C:1]([C@@:2]([C:3]([C:4]([H:13])([H:14])[H:15])([H:11])[H:12])([O+:6]=[C-:5][H:16])[H:10])([H:7])([H:8])[H:9]"
C        2.07366275       0.19685826       0.30738913
C        0.59461881       0.41631399       0.10145993
C       -0.08868232      -0.60393903      -0.79729012
C       -1.59115072      -0.42498449      -0.57536412
C       -1.39505095       0.45158668       1.35112233
O       -0.05494348       0.30456364       1.38763286
H        2.48271080       0.93380633       0.99919360
H        2.60091634       0.28502508      -0.64443750
H        2.26118490      -0.79770551       0.71595279
H        0.40702171       1.43175578      -0.27526852
H        0.21918671      -0.45012974      -1.83283237
H        0.22189521      -1.60958177      -0.50005156
H       -2.14193679      -1.24137176      -1.04730122
H       -1.93103750       0.44009108      -1.15503728
H       -2.00022522      -0.84856673       0.76428867
H       -1.65817024       1.51627821       1.20054337
