9
Frame=0 idx=005268 GeodesicLength=0.0 rxn_smarts="[n:1]1([H:6])[c:2]([H:7])[c:3]([H:8])[c:4]([H:9])[n:5]1>>[N:1]1([H:6])[C@@:2]2([H:7])[C:3]([H:8])=[C:4]([H:9])[N:5]12"
N       -1.43095776      -0.51001566       0.01938753
C       -0.64543013       0.61077125      -0.03243106
C        0.61504463       0.54300670       0.65264192
C        0.85308108      -0.50850524      -0.22307398
N       -0.26170369      -1.08676313      -0.77806910
H       -1.33071805      -0.93610303       0.94586666
H       -0.90696928       1.36248174      -0.77812522
H        1.29808166       1.35893848       0.81732658
H        1.80957157      -0.83381109      -0.62352329
9
Frame=1 idx=005268 GeodesicLength=0.04336674276922461 rxn_smarts="[n:1]1([H:6])[c:2]([H:7])[c:3]([H:8])[c:4]([H:9])[n:5]1>>[N:1]1([H:6])[C@@:2]2([H:7])[C:3]([H:8])=[C:4]([H:9])[N:5]12"
N       -1.42171311      -0.51474999       0.01724050
C       -0.64731394       0.61421600      -0.03530793
C        0.61923903       0.54865747       0.63814606
C        0.86035803      -0.51237798      -0.22258807
N       -0.26021050      -1.07235611      -0.78685796
H       -1.33526041      -0.94612256       0.94119202
H       -0.93320106       1.37918831      -0.75702574
H        1.30059767       1.36611907       0.80367899
H        1.81750429      -0.86257421      -0.59847787
9
Frame=2 idx=005268 GeodesicLength=0.08664930092768675 rxn_smarts="[n:1]1([H:6])[c:2]([H:7])[c:3]([H:8])[c:4]([H:9])[n:5]1>>[N:1]1([H:6])[C@@:2]2([H:7])[C:3]([H:8])=[C:4]([H:9])[N:5]12"
N       -1.41217518      -0.51938293       0.01469747
C       -0.64907622       0.61774514      -0.03840189
C        0.62363642       0.55453623       0.62307917
C        0.86777329      -0.51645346      -0.22182489
N       -0.25825132      -1.05787409      -0.79559042
H       -1.34002968      -0.95624175       0.93584282
H       -0.95982680       1.39558242      -0.73445046
H        1.30340472       1.37349184       0.78926023
H        1.82454476      -0.89140340      -0.57261203
9
Frame=3 idx=005268 GeodesicLength=0.12991988027307425 rxn_smarts="[n:1]1([H:6])[c:2]([H:7])[c:3]([H:8])[c:4]([H:9])[n:5]1>>[N:1]1([H:6])[C@@:2]2([H:7])[C:3]([H:8])=[C:4]([H:9])[N:5]12"
N       -1.40230418      -0.52386932       0.01175064
C       -0.65072944       0.62138366      -0.04172951
C        0.62822854       0.56062655       0.60737853
C        0.87533828      -0.52070758      -0.22076530
N       -0.25578839      -1.04332528      -0.80419377
H       -1.34498577      -0.96641069       0.92974170
H       -0.98684450       1.41159644      -0.71030563
H        1.30643625       1.38102211       0.77405211
H        1.83064921      -0.92031590      -0.54592876
9
Frame=4 idx=005268 GeodesicLength=0.1730116196415289 rxn_smarts="[n:1]1([H:6])[c:2]([H:7])[c:3]([H:8])[c:4]([H:9])[n:5]1>>[N:1]1([H:6])[C@@:2]2([H:7])[C:3]([H:8])=[C:4]([H:9])[N:5]12"
N       -1.39223782      -0.52817051       0.00843883
C       -0.65213478       0.62503359      -0.04544069
C        0.63294153       0.56677791       0.59125204
C        0.88298619      -0.52545777      -0.21897031
N       -0.25284068      -1.02910872      -0.81226863
H       -1.35064585      -0.97631900       0.92309792
H       -1.01367302       1.42689807      -0.68500445
H        1.30972329       1.38849982       0.75838883
H        1.83588114      -0.94815340      -0.51949355
9
Frame=5 idx=005268 GeodesicLength=0.21596386939163498 rxn_smarts="[n:1]1([H:6])[c:2]([H:7])[c:3]([H:8])[c:4]([H:9])[n:5]1>>[N:1]1([H:6])[C@@:2]2([H:7])[C:3]([H:8])=[C:4]([H:9])[N:5]12"
N       -1.38204077      -0.53227976       0.00475716
C       -0.65335276       0.62873843      -0.04954725
C        0.63780458       0.57302189       0.57466957
C        0.89072836      -0.53072332      -0.21639349
N       -0.24942014      -1.01529904      -0.81980649
H       -1.35706483      -0.98595309       0.91584234
H       -1.04037320       1.44151127      -0.65843701
H        1.31328668       1.39599794       0.74224903
H        1.84043208      -0.97501432      -0.49333387
9
Frame=6 idx=005268 GeodesicLength=0.258818734112894 rxn_smarts="[n:1]1([H:6])[c:2]([H:7])[c:3]([H:8])[c:4]([H:9])[n:5]1>>[N:1]1([H:6])[C@@:2]2([H:7])[C:3]([H:8])=[C:4]([H:9])[N:5]12"
N       -1.37169661      -0.53615804       0.00074499
C       -0.65436663       0.63248158      -0.05411584
C        0.64276552       0.57929167       0.55760552
C        0.89848601      -0.53650356      -0.21294716
N       -0.24552877      -1.00193283      -0.82669973
H       -1.36429031      -0.99522739       0.90799812
H       -1.06678546       1.45535128      -0.63062726
H        1.31703243       1.40340659       0.72566637
H        1.84438383      -1.00070931      -0.46762501
9
Frame=7 idx=005268 GeodesicLength=0.30151957769980126 rxn_smarts="[n:1]1([H:6])[c:2]([H:7])[c:3]([H:8])[c:4]([H:9])[n:5]1>>[N:1]1([H:6])[C@@:2]2([H:7])[C:3]([H:8])=[C:4]([H:9])[N:5]12"
N       -1.36133714      -0.53976862      -0.00352295
C       -0.65511661       0.63621632      -0.05926283
C        0.64777170       0.58546214       0.54018568
C        0.90616587      -0.54298930      -0.20828895
N       -0.24120581      -0.98933195      -0.83261357
H       -1.37269867      -1.00388070       0.89967110
H       -1.09255081       1.46822311      -0.60190810
H        1.32096699       1.41055544       0.70893836
H        1.84800449      -1.02448643      -0.44319873
9
Frame=8 idx=005268 GeodesicLength=0.34409027396582076 rxn_smarts="[n:1]1([H:6])[c:2]([H:7])[c:3]([H:8])[c:4]([H:9])[n:5]1>>[N:1]1([H:6])[C@@:2]2([H:7])[C:3]([H:8])=[C:4]([H:9])[N:5]12"
N       -1.35097103      -0.54312287      -0.00804786
C       -0.65569690       0.64001718      -0.06499652
C        0.65287415       0.59161885       0.52227821
C        0.91379198      -0.55002192      -0.20262756
N       -0.23648226      -0.97741027      -0.83777296
H       -1.38216121      -1.01200850       0.89078292
H       -1.11793477       1.48023658      -0.57198045
H        1.32510791       1.41757946       0.69193611
H        1.85147214      -1.04688852      -0.41957190
9
Frame=9 idx=005268 GeodesicLength=0.3865467761410281 rxn_smarts="[n:1]1([H:6])[c:2]([H:7])[c:3]([H:8])[c:4]([H:9])[n:5]1>>[N:1]1([H:6])[C@@:2]2([H:7])[C:3]([H:8])=[C:4]([H:9])[N:5]12"
N       -1.34058721      -0.54618370      -0.01275973
C       -0.65605355       0.64380391      -0.07141256
C        0.65796718       0.59765713       0.50387775
C        0.92122675      -0.55760541      -0.19577663
N       -0.23132619      -0.96623092      -0.84196841
H       -1.39282671      -1.01946911       0.88134889
H       -1.14253958       1.49122763      -0.54088555
H        1.32928765       1.42432675       0.67468305
H        1.85485165      -1.06752628      -0.39710680
9
Frame=10 idx=005268 GeodesicLength=0.4288815153002729 rxn_smarts="[n:1]1([H:6])[c:2]([H:7])[c:3]([H:8])[c:4]([H:9])[n:5]1>>[N:1]1([H:6])[C@@:2]2([H:7])[C:3]([H:8])=[C:4]([H:9])[N:5]12"
N       -1.33022920      -0.54898984      -0.01764623
C       -0.65628876       0.64768283      -0.07852158
C        0.66314790       0.60367670       0.48484910
C        0.92853891      -0.56553251      -0.18805027
N       -0.22582782      -0.95577517      -0.84543405
H       -1.40455956      -1.02637102       0.87128777
H       -1.16666220       1.50128423      -0.50837551
H        1.33361027       1.43096516       0.65715210
H        1.85827045      -1.08694038      -0.37526133
9
Frame=11 idx=005268 GeodesicLength=0.4711724590787547 rxn_smarts="[n:1]1([H:6])[c:2]([H:7])[c:3]([H:8])[c:4]([H:9])[n:5]1>>[N:1]1([H:6])[C@@:2]2([H:7])[C:3]([H:8])=[C:4]([H:9])[N:5]12"
N       -1.31978437      -0.55156228      -0.02272630
C       -0.65642980       0.65169411      -0.08638062
C        0.66843900       0.60977639       0.46492419
C        0.93572798      -0.57351066      -0.17980199
N       -0.21997861      -0.94583112      -0.84842018
H       -1.41710602      -1.03286370       0.86044568
H       -1.19043447       1.51038639      -0.47391086
H        1.33803116       1.43761995       0.63908520
H        1.86153513      -1.10570908      -0.35321512
9
Frame=12 idx=005268 GeodesicLength=0.5133588021414378 rxn_smarts="[n:1]1([H:6])[c:2]([H:7])[c:3]([H:8])[c:4]([H:9])[n:5]1>>[N:1]1([H:6])[C@@:2]2([H:7])[C:3]([H:8])=[C:4]([H:9])[N:5]12"
N       -1.30929185      -0.55388183      -0.02794146
C       -0.65649511       0.65579594      -0.09511430
C        0.67377327       0.61590533       0.44408456
C        0.94273285      -0.58152991      -0.17094926
N       -0.21379869      -0.93654159      -0.85080666
H       -1.43055790      -1.03881898       0.84884606
H       -1.21348319       1.51839896      -0.43748780
H        1.34241352       1.44423484       0.62058116
H        1.86470709      -1.12356276      -0.33121230
9
Frame=13 idx=005268 GeodesicLength=0.5555076917390571 rxn_smarts="[n:1]1([H:6])[c:2]([H:7])[c:3]([H:8])[c:4]([H:9])[n:5]1>>[N:1]1([H:6])[C@@:2]2([H:7])[C:3]([H:8])=[C:4]([H:9])[N:5]12"
N       -1.29870952      -0.55596391      -0.03327063
C       -0.65654109       0.66009927      -0.10474124
C        0.67921425       0.62217878       0.42210585
C        0.94962880      -0.58929378      -0.16191799
N       -0.20735585      -0.92774083      -0.85284697
H       -1.44472507      -1.04440162       0.83637252
H       -1.23595305       1.52520662      -0.39873052
H        1.34681050       1.45096466       0.60152609
H        1.86763102      -1.14104919      -0.30849713
9
Frame=14 idx=005268 GeodesicLength=0.5976323525710859 rxn_smarts="[n:1]1([H:6])[c:2]([H:7])[c:3]([H:8])[c:4]([H:9])[n:5]1>>[N:1]1([H:6])[C@@:2]2([H:7])[C:3]([H:8])=[C:4]([H:9])[N:5]12"
N       -1.28803220      -0.55777550      -0.03863542
C       -0.65658570       0.66452264      -0.11541260
C        0.68465180       0.62849920       0.39896427
C        0.95629263      -0.59680009      -0.15255828
N       -0.20071018      -0.91955687      -0.85438369
H       -1.45961827      -1.04943248       0.82308487
H       -1.25727790       1.53060905      -0.35773920
H        1.35098686       1.45766312       0.58209397
H        1.87029295      -1.15772906      -0.28541391
9
Frame=15 idx=005268 GeodesicLength=0.6396727571401423 rxn_smarts="[n:1]1([H:6])[c:2]([H:7])[c:3]([H:8])[c:4]([H:9])[n:5]1>>[N:1]1([H:6])[C@@:2]2([H:7])[C:3]([H:8])=[C:4]([H:9])[N:5]12"
N       -1.27736744      -0.55931273      -0.04379924
C       -0.65670983       0.66913813      -0.12701334
C        0.69008251       0.63485676       0.37470921
C        0.96274810      -0.60394535      -0.14302563
N       -0.19402326      -0.91202752      -0.85536093
H       -1.47532268      -1.05395746       0.80911902
H       -1.27712450       1.53440258      -0.31507218
H        1.35492718       1.46432292       0.56269626
H        1.87278991      -1.17347734      -0.26225318
9
Frame=16 idx=005268 GeodesicLength=0.6816543448472201 rxn_smarts="[n:1]1([H:6])[c:2]([H:7])[c:3]([H:8])[c:4]([H:9])[n:5]1>>[N:1]1([H:6])[C@@:2]2([H:7])[C:3]([H:8])=[C:4]([H:9])[N:5]12"
N       -1.26675651      -0.56058036      -0.04855159
C       -0.65700736       0.67392317      -0.13944770
C        0.69548385       0.64122808       0.34929286
C        0.96895773      -0.61063318      -0.13340787
N       -0.18745841      -0.90515313      -0.85572564
H       -1.49176841      -1.05799522       0.79458779
H       -1.29507132       1.53647127      -0.27122028
H        1.35849590       1.47088006       0.54371397
H        1.87512454      -1.18814070      -0.23924155
