17
Frame=0 idx=006659 GeodesicLength=0.0 rxn_smarts="[C:1]([O:2][C@@:3]1([H:11])[C:4]([H:12])([H:13])[O:5][C@:6]1([C:7]([H:15])([H:16])[H:17])[H:14])([H:8])([H:9])[H:10]>>[C:1]([O:2][C@@:3]([C:4]([O:5][C:7]([H:15])([H:16])[H:17])([H:12])[H:13])([C:6][H:14])[H:11])([H:8])([H:9])[H:10]"
C        2.08652509       1.12324700      -0.53895619
O        0.70194297       0.94203660      -0.67207958
C        0.31872725      -0.41879999      -0.63728189
C        0.16766633      -1.02023120       0.76462777
O       -1.26504196      -1.16356717       0.66074601
C       -1.17080872      -0.60060319      -0.83138726
C       -2.07990231       0.41655886       0.68921951
H        2.46235639       0.74887019       0.42334090
H        2.63569538       0.61487485      -1.34280610
H        2.28524128       2.19264872      -0.59787670
H        0.97949746      -0.98727873      -1.30463131
H        0.46065874      -0.37102456       1.59383685
H        0.59726366      -2.01439690       0.89971863
H       -1.43779710      -1.43317634      -1.48603216
H       -1.55490366       1.30756415       0.37262147
H       -3.05089608       0.32518344       0.22589080
H       -2.13622468       0.33809426       1.78104931
17
Frame=1 idx=006659 GeodesicLength=0.027224707462928145 rxn_smarts="[C:1]([O:2][C@@:3]1([H:11])[C:4]([H:12])([H:13])[O:5][C@:6]1([C:7]([H:15])([H:16])[H:17])[H:14])([H:8])([H:9])[H:10]>>[C:1]([O:2][C@@:3]([C:4]([O:5][C:7]([H:15])([H:16])[H:17])([H:12])[H:13])([C:6][H:14])[H:11])([H:8])([H:9])[H:10]"
C        2.08987867       1.12136469      -0.53571575
O        0.70488267       0.94283756      -0.66874490
C        0.31964694      -0.41688010      -0.63700094
C        0.17088825      -1.02212634       0.76303887
O       -1.26205053      -1.16597533       0.65987659
C       -1.17098556      -0.59702780      -0.82808555
C       -2.08228827       0.41364958       0.68336149
H        2.46513955       0.74476436       0.42592647
H        2.63796705       0.61337555      -1.34053207
H        2.29034381       2.19052521      -0.59279412
H        0.97631068      -0.98556305      -1.30813270
H        0.46296560      -0.37327434       1.59290694
H        0.60220072      -2.01575849       0.89616776
H       -1.44207293      -1.42771411      -1.48323883
H       -1.57937232       1.31459167       0.35708050
H       -3.06104825       0.30671188       0.23889610
H       -2.12240607       0.35649904       1.77699015
17
Frame=2 idx=006659 GeodesicLength=0.054451668627336254 rxn_smarts="[C:1]([O:2][C@@:3]1([H:11])[C:4]([H:12])([H:13])[O:5][C@:6]1([C:7]([H:15])([H:16])[H:17])[H:14])([H:8])([H:9])[H:10]>>[C:1]([O:2][C@@:3]([C:4]([O:5][C:7]([H:15])([H:16])[H:17])([H:12])[H:13])([C:6][H:14])[H:11])([H:8])([H:9])[H:10]"
C        2.09315975       1.11953534      -0.53239275
O        0.70775012       0.94363709      -0.66530502
C        0.32055204      -0.41499098      -0.63670253
C        0.17411520      -1.02415656       0.76143027
O       -1.25908690      -1.16833861       0.65904991
C       -1.17117600      -0.59352673      -0.82477653
C       -2.08452180       0.41091166       0.67751279
H        2.46789504       0.74064985       0.42856333
H        2.64016105       0.61201651      -1.33823455
H        2.29533288       2.18847375      -0.58755485
H        0.97310867      -0.98378716      -1.31164803
H        0.46536555      -0.37574506       1.59200902
H        0.60704167      -2.01731211       0.89250980
H       -1.44636967      -1.42235205      -1.48039071
H       -1.60430329       1.32125809       0.34116417
H       -3.07063127       0.28835133       0.25245550
H       -2.10839305       0.37537565       1.77231017
17
Frame=3 idx=006659 GeodesicLength=0.08168776006278836 rxn_smarts="[C:1]([O:2][C@@:3]1([H:11])[C:4]([H:12])([H:13])[O:5][C@:6]1([C:7]([H:15])([H:16])[H:17])[H:14])([H:8])([H:9])[H:10]>>[C:1]([O:2][C@@:3]([C:4]([O:5][C:7]([H:15])([H:16])[H:17])([H:12])[H:13])([C:6][H:14])[H:11])([H:8])([H:9])[H:10]"
C        2.09632656       1.11771089      -0.52899036
O        0.71052898       0.94439747      -0.66174087
C        0.32146111      -0.41312309      -0.63637058
C        0.17735158      -1.02627899       0.75976900
O       -1.25611902      -1.17061519       0.65824158
C       -1.17133201      -0.59007280      -0.82142807
C       -2.08660271       0.40833566       0.67167799
H        2.47056351       0.73650818       0.43121656
H        2.64225328       0.61074856      -1.33589388
H        2.30014215       2.18640908      -0.58217319
H        0.96992452      -0.98193328      -1.31514838
H        0.46782271      -0.37840794       1.59108551
H        0.61181011      -2.01897976       0.88870028
H       -1.45060541      -1.41703532      -1.47744321
H       -1.62968905       1.32748771       0.32496729
H       -3.07959007       0.27017131       0.26657470
H       -2.09424626       0.39467751       1.76695563
17
Frame=4 idx=006659 GeodesicLength=0.10888906214822558 rxn_smarts="[C:1]([O:2][C@@:3]1([H:11])[C:4]([H:12])([H:13])[O:5][C@:6]1([C:7]([H:15])([H:16])[H:17])[H:14])([H:8])([H:9])[H:10]>>[C:1]([O:2][C@@:3]([C:4]([O:5][C:7]([H:15])([H:16])[H:17])([H:12])[H:13])([C:6][H:14])[H:11])([H:8])([H:9])[H:10]"
C        2.09944815       1.11596085      -0.52553052
O        0.71325054       0.94516979      -0.65809491
C        0.32235512      -0.41128957      -0.63602098
C        0.18058566      -1.02853800       0.75811074
O       -1.25319479      -1.17287650       0.65747580
C       -1.17151521      -0.58668801      -0.81808588
C       -2.08855221       0.40591675       0.66585650
H        2.47322828       0.73240428       0.43392673
H        2.64429003       0.60961333      -1.33354344
H        2.30487532       2.18444996      -0.57670879
H        0.96671869      -0.98003805      -1.31865692
H        0.47036538      -0.38127558       1.59022251
H        0.61647887      -2.02084693       0.88483008
H       -1.45489012      -1.41181765      -1.47446836
H       -1.65548218       1.33329530       0.30853862
H       -3.08795793       0.25222612       0.28118494
H       -2.08000360       0.41433392       1.76096386
17
Frame=5 idx=006659 GeodesicLength=0.13614300832645534 rxn_smarts="[C:1]([O:2][C@@:3]1([H:11])[C:4]([H:12])([H:13])[O:5][C@:6]1([C:7]([H:15])([H:16])[H:17])[H:14])([H:8])([H:9])[H:10]>>[C:1]([O:2][C@@:3]([C:4]([O:5][C:7]([H:15])([H:16])[H:17])([H:12])[H:13])([C:6][H:14])[H:11])([H:8])([H:9])[H:10]"
C        2.10244628       1.11420286      -0.52197201
O        0.71587999       0.94589914      -0.65431195
C        0.32325273      -0.40947190      -0.63563992
C        0.18382894      -1.03088100       0.75638511
O       -1.25026168      -1.17503582       0.65672396
C       -1.17165825      -0.58334925      -0.81470595
C       -2.09035314       0.40366981       0.66003482
H        2.47580022       0.72823020       0.43664889
H        2.64621710       0.60857951      -1.33114107
H        2.30941574       2.18245983      -0.57103744
H        0.96353520      -0.97805183      -1.32215239
H        0.47295812      -0.38433240       1.58931723
H        0.62107532      -2.02281598       0.88078858
H       -1.45910499      -1.40663927      -1.47139192
H       -1.68179557       1.33860406       0.29176420
H       -3.09569706       0.23444875       0.29643874
H       -2.06553895       0.43448328       1.75425110
17
Frame=6 idx=006659 GeodesicLength=0.1633954142597534 rxn_smarts="[C:1]([O:2][C@@:3]1([H:11])[C:4]([H:12])([H:13])[O:5][C@:6]1([C:7]([H:15])([H:16])[H:17])[H:14])([H:8])([H:9])[H:10]>>[C:1]([O:2][C@@:3]([C:4]([O:5][C:7]([H:15])([H:16])[H:17])([H:12])[H:13])([C:6][H:14])[H:11])([H:8])([H:9])[H:10]"
C        2.10540643       1.11251484      -0.51834389
O        0.71845719       0.94664490      -0.65044234
C        0.32413272      -0.40768145      -0.63524525
C        0.18706722      -1.03335454       0.75465652
O       -1.24737490      -1.17717705       0.65601311
C       -1.17183150      -0.58007760      -0.81133911
C       -2.09203870       0.40157914       0.65421287
H        2.47837791       0.72406825       0.43943025
H        2.64809460       0.60768560      -1.32872376
H        2.31389453       2.18056991      -0.56524512
H        0.96032688      -0.97601389      -1.32566238
H        0.47563007      -0.38758800       1.58846712
H        0.62557355      -2.02497583       0.87667904
H       -1.46337578      -1.40155795      -1.46829355
H       -1.70857152       1.34342740       0.27473116
H       -3.10284820       0.21690525       0.31225113
H       -2.05092049       0.45503101       1.74685420
17
Frame=7 idx=006659 GeodesicLength=0.19065804800859737 rxn_smarts="[C:1]([O:2][C@@:3]1([H:11])[C:4]([H:12])([H:13])[O:5][C@:6]1([C:7]([H:15])([H:16])[H:17])[H:14])([H:8])([H:9])[H:10]>>[C:1]([O:2][C@@:3]([C:4]([O:5][C:7]([H:15])([H:16])[H:17])([H:12])[H:13])([C:6][H:14])[H:11])([H:8])([H:9])[H:10]"
C        2.10827209       1.11083514      -0.51464598
O        0.72096166       0.94736191      -0.64646487
C        0.32501620      -0.40590713      -0.63482023
C        0.19030617      -1.03590457       0.75288226
O       -1.24448988      -1.17924714       0.65530970
C       -1.17197325      -0.57683937      -0.80794892
C       -2.09360491       0.39963653       0.64839762
H        2.48088000       0.71989201       0.44223323
H        2.64988767       0.60686613      -1.32626409
H        2.31822666       2.17867509      -0.55933957
H        0.95713133      -0.97390756      -1.32915448
H        0.47833505      -0.39100248       1.58760077
H        0.63000293      -2.02723254       0.87244266
H       -1.46759553      -1.39650861      -1.46512366
H       -1.73579808       1.34768702       0.25754884
H       -3.10934539       0.19966110       0.32862997
H       -2.03621271       0.47593444       1.73871675
17
Frame=8 idx=006659 GeodesicLength=0.21791388278785218 rxn_smarts="[C:1]([O:2][C@@:3]1([H:11])[C:4]([H:12])([H:13])[O:5][C@:6]1([C:7]([H:15])([H:16])[H:17])[H:14])([H:8])([H:9])[H:10]>>[C:1]([O:2][C@@:3]([C:4]([O:5][C:7]([H:15])([H:16])[H:17])([H:12])[H:13])([C:6][H:14])[H:11])([H:8])([H:9])[H:10]"
C        2.11108593       1.10919018      -0.51089626
O        0.72341514       0.94807248      -0.64240438
C        0.32589666      -0.40414846      -0.63436919
C        0.19353935      -1.03853907       0.75108825
O       -1.24163182      -1.18127744       0.65461920
C       -1.17211421      -0.57363302      -0.80455243
C       -2.09507780       0.39782848       0.64258987
H        2.48335228       0.71573284       0.44506923
H        2.65162981       0.60612936      -1.32377666
H        2.32247436       2.17681862      -0.55336738
H        0.95393406      -0.97174447      -1.33263013
H        0.48107874      -0.39456856       1.58675260
H        0.63435563      -2.02960587       0.86812894
H       -1.47181596      -1.39149530      -1.46191314
H       -1.76344590       1.35136925       0.24028185
H       -3.11521609       0.18275013       0.34552889
H       -2.02146018       0.49712087       1.72985074
17
Frame=9 idx=006659 GeodesicLength=0.24519088996435975 rxn_smarts="[C:1]([O:2][C@@:3]1([H:11])[C:4]([H:12])([H:13])[O:5][C@:6]1([C:7]([H:15])([H:16])[H:17])[H:14])([H:8])([H:9])[H:10]>>[C:1]([O:2][C@@:3]([C:4]([O:5][C:7]([H:15])([H:16])[H:17])([H:12])[H:13])([C:6][H:14])[H:11])([H:8])([H:9])[H:10]"
C        2.11384441       1.10757930      -0.50707649
O        0.72581675       0.94877911      -0.63825237
C        0.32677045      -0.40240543      -0.63389897
C        0.19676508      -1.04126253       0.74926886
O       -1.23880020      -1.18326523       0.65394526
C       -1.17225436      -0.57046787      -0.80115797
C       -2.09645722       0.39616177       0.63677808
H        2.48579940       0.71155705       0.44794140
H        2.65331375       0.60549954      -1.32126390
H        2.32663439       2.17500411      -0.54726311
H        0.95073132      -0.96952029      -1.33610244
H        0.48385968      -0.39829106       1.58592149
H        0.63862511      -2.03210501       0.86372229
H       -1.47603977      -1.38653455      -1.45866722
H       -1.79156739       1.35444700       0.22286278
H       -3.12045792       0.16614830       0.36302033
H       -2.00658348       0.51867581       1.72022198
17
Frame=10 idx=006659 GeodesicLength=0.27253048929307083 rxn_smarts="[C:1]([O:2][C@@:3]1([H:11])[C:4]([H:12])([H:13])[O:5][C@:6]1([C:7]([H:15])([H:16])[H:17])[H:14])([H:8])([H:9])[H:10]>>[C:1]([O:2][C@@:3]([C:4]([O:5][C:7]([H:15])([H:16])[H:17])([H:12])[H:13])([C:6][H:14])[H:11])([H:8])([H:9])[H:10]"
C        2.11653852       1.10599333      -0.50316740
O        0.72816085       0.94947864      -0.63400093
C        0.32763427      -0.40067325      -0.63341326
C        0.19998541      -1.04407342       0.74740955
O       -1.23599073      -1.18519795       0.65328764
C       -1.17239318      -0.56734672      -0.79776483
C       -2.09774477       0.39464163       0.63094999
H        2.48821114       0.70733849       0.45085494
H        2.65493773       0.60498244      -1.31870875
H        2.33069641       2.17321703      -0.54097446
H        0.94752134      -0.96722019      -1.33957998
H        0.48667757      -0.40217446       1.58509008
H        0.64281604      -2.03472416       0.85919675
H       -1.48026560      -1.38162968      -1.45537461
H       -1.82021707       1.35687684       0.20524315
H       -3.12505877       0.14984077       0.38117993
H       -1.99150917       0.54067066       1.70977218
17
Frame=11 idx=006659 GeodesicLength=0.29989871330995244 rxn_smarts="[C:1]([O:2][C@@:3]1([H:11])[C:4]([H:12])([H:13])[O:5][C@:6]1([C:7]([H:15])([H:16])[H:17])[H:14])([H:8])([H:9])[H:10]>>[C:1]([O:2][C@@:3]([C:4]([O:5][C:7]([H:15])([H:16])[H:17])([H:12])[H:13])([C:6][H:14])[H:11])([H:8])([H:9])[H:10]"
C        2.11918325       1.10443121      -0.49919395
O        0.73046092       0.95017410      -0.62967178
C        0.32849370      -0.39894817      -0.63291055
C        0.20319509      -1.04695409       0.74551964
O       -1.23320459      -1.18709179       0.65262834
C       -1.17252682      -0.56424711      -0.79437789
C       -2.09896602       0.39324219       0.62511836
H        2.49058211       0.70312270       0.45381507
H        2.65652159       0.60453137      -1.31610707
H        2.33468428       2.17145468      -0.53459617
H        0.94430965      -0.96485869      -1.34304999
H        0.48951029      -0.40618844       1.58426700
H        0.64693880      -2.03743960       0.85458385
H       -1.48448409      -1.37674864      -1.45205834
H       -1.84933407       1.35862619       0.18759192
H       -3.12901277       0.13391402       0.39993855
H       -1.97635133       0.56298008       1.69850301
17
Frame=12 idx=006659 GeodesicLength=0.32734652074365783 rxn_smarts="[C:1]([O:2][C@@:3]1([H:11])[C:4]([H:12])([H:13])[O:5][C@:6]1([C:7]([H:15])([H:16])[H:17])[H:14])([H:8])([H:9])[H:10]>>[C:1]([O:2][C@@:3]([C:4]([O:5][C:7]([H:15])([H:16])[H:17])([H:12])[H:13])([C:6][H:14])[H:11])([H:8])([H:9])[H:10]"
C        2.12178171       1.10288595      -0.49513410
O        0.73271956       0.95086486      -0.62525105
C        0.32934182      -0.39722199      -0.63239172
C        0.20639213      -1.04990071       0.74358617
O       -1.23044439      -1.18893304       0.65197285
C       -1.17266186      -0.56117456      -0.79099283
C       -2.10012075       0.39196607       0.61927167
H        2.49292366       0.69886905       0.45681781
H        2.65806303       0.60417382      -1.31345178
H        2.33860662       2.16970457      -0.52805673
H        0.94108468      -0.96241367      -1.34651744
H        0.49236172      -0.41033858       1.58343597
H        0.65098525      -2.04024255       0.84985419
H       -1.48871119      -1.37189481      -1.44870387
H       -1.87898013       1.35964382       0.16982710
H       -3.13230337       0.11831724       0.41938452
H       -1.96103850       0.58569452       1.68634923
17
Frame=13 idx=006659 GeodesicLength=0.35483785437677773 rxn_smarts="[C:1]([O:2][C@@:3]1([H:11])[C:4]([H:12])([H:13])[O:5][C@:6]1([C:7]([H:15])([H:16])[H:17])[H:14])([H:8])([H:9])[H:10]>>[C:1]([O:2][C@@:3]([C:4]([O:5][C:7]([H:15])([H:16])[H:17])([H:12])[H:13])([C:6][H:14])[H:11])([H:8])([H:9])[H:10]"
C        2.12434066       1.10135644      -0.49101089
O        0.73494513       0.95154965      -0.62076483
C        0.33018553      -0.39549463      -0.63185807
C        0.20957195      -1.05289792       0.74161561
O       -1.22770995      -1.19073761       0.65129934
C       -1.17279187      -0.55810774      -0.78761735
C       -2.10123180       0.39078937       0.61342093
H        2.49521927       0.69462623       0.45987332
H        2.65958382       0.60385847      -1.31073112
H        2.34247088       2.16796457      -0.52145016
H        0.93786002      -0.95990266      -1.34997024
H        0.49520613      -0.41459432       1.58260055
H        0.65496581      -2.04311209       0.84504029
H       -1.49293168      -1.36703803      -1.44533415
H       -1.90908755       1.35990582       0.15212467
H       -3.13492770       0.10314920       0.43944922
H       -1.94566865       0.60868525       1.67331289
17
Frame=14 idx=006659 GeodesicLength=0.3824022507700899 rxn_smarts="[C:1]([O:2][C@@:3]1([H:11])[C:4]([H:12])([H:13])[O:5][C@:6]1([C:7]([H:15])([H:16])[H:17])[H:14])([H:8])([H:9])[H:10]>>[C:1]([O:2][C@@:3]([C:4]([O:5][C:7]([H:15])([H:16])[H:17])([H:12])[H:13])([C:6][H:14])[H:11])([H:8])([H:9])[H:10]"
C        2.12686391       1.09984910      -0.48680598
O        0.73713841       0.95224264      -0.61620025
C        0.33101713      -0.39376476      -0.63131677
C        0.21273403      -1.05595949       0.73961111
O       -1.22500384      -1.19250851       0.65062152
C       -1.17292528      -0.55506138      -0.78426371
C       -2.10230025       0.38972557       0.60755506
H        2.49749171       0.69034516       0.46298075
H        2.66106990       0.60362923      -1.30796754
H        2.34628793       2.16625238      -0.51468702
H        0.93462150      -0.95732078      -1.35343017
H        0.49805050      -0.41896947       1.58177634
H        0.65887501      -2.04607432       0.84013250
H       -1.49716069      -1.36220938      -1.44195940
H       -1.93971868       1.35938472       0.13440248
H       -3.13686527       0.08838138       0.46021431
H       -1.93017602       0.63205791       1.65933676
17
Frame=15 idx=006659 GeodesicLength=0.4100236396882386 rxn_smarts="[C:1]([O:2][C@@:3]1([H:11])[C:4]([H:12])([H:13])[O:5][C@:6]1([C:7]([H:15])([H:16])[H:17])[H:14])([H:8])([H:9])[H:10]>>[C:1]([O:2][C@@:3]([C:4]([O:5][C:7]([H:15])([H:16])[H:17])([H:12])[H:13])([C:6][H:14])[H:11])([H:8])([H:9])[H:10]"
C        2.12936458       1.09834565      -0.48254661
O        0.73931333       0.95293091      -0.61157465
C        0.33184524      -0.39202116      -0.63075638
C        0.21587336      -1.05904624       0.73757005
O       -1.22232507      -1.19424573       0.64991052
C       -1.17305366      -0.55200347      -0.78091941
C       -2.10335448       0.38873424       0.60168658
H        2.49973012       0.68606540       0.46612830
H        2.66254370       0.60342667      -1.30514511
H        2.35007681       2.16453024      -0.50786705
H        0.93137937      -0.95466529      -1.35686660
H        0.50086222      -0.42341709       1.58094224
H        0.66272735      -2.04906492       0.83514984
H       -1.50137578      -1.35735409      -1.43857364
H       -1.97079527       1.35804088       0.11686093
H       -3.13811683       0.07409268       0.48158471
H       -1.91469499       0.65565132       1.64441629
17
Frame=16 idx=006659 GeodesicLength=0.4377521219037425 rxn_smarts="[C:1]([O:2][C@@:3]1([H:11])[C:4]([H:12])([H:13])[O:5][C@:6]1([C:7]([H:15])([H:16])[H:17])[H:14])([H:8])([H:9])[H:10]>>[C:1]([O:2][C@@:3]([C:4]([O:5][C:7]([H:15])([H:16])[H:17])([H:12])[H:13])([C:6][H:14])[H:11])([H:8])([H:9])[H:10]"
C        2.13182871       1.09684561      -0.47820082
O        0.74145979       0.95361777      -0.60687441
C        0.33266274      -0.39026479      -0.63018791
C        0.21899201      -1.06217322       0.73547978
O       -1.21967052      -1.19594148       0.64917440
C       -1.17318015      -0.54894925      -0.77759374
C       -2.10438667       0.38783471       0.59580209
H        2.50193059       0.68173917       0.46932661
H        2.66399242       0.60328701      -1.30225803
H        2.35381761       2.16280329      -0.50088825
H        0.92813016      -0.95192689      -1.36030002
H        0.50364985      -0.42796071       1.58009402
H        0.66651893      -2.05210773       0.83006022
H       -1.50558495      -1.35249620      -1.43517911
H       -2.00239804       1.35582656       0.09938866
H       -3.13864489       0.06025988       0.50369814
H       -1.89911761       0.67960628       1.62845836
