15
Frame=0 idx=006409 GeodesicLength=0.0 rxn_smarts="[C:1]([C@@:2]1([H:11])[O:3]/[C:4](=[N:5]\[H:12])[C@:6]1([N:7]([H:14])[H:15])[H:13])([H:8])([H:9])[H:10]>>[C:1]([C@@:2]1([H:11])[O:3][C@:4]1([N:5]([H:12])[H:15])/[C:6](=[N:7]/[H:14])[H:13])([H:8])([H:9])[H:10]"
C        1.91473639      -0.62193176       0.64525653
C        0.95598021      -0.45059330      -0.48817363
O        0.02148540      -1.47227930      -0.74485251
C       -0.58110037      -0.36742071      -0.07539476
N       -1.14158392      -0.34652488       1.13442751
C       -1.10745914       0.64800541      -0.96908657
N       -1.88751205       1.49475852      -0.38551783
H        1.37569234      -0.67499288       1.59399745
H        2.59742314       0.22842729       0.68248806
H        2.50575650      -1.53262856       0.52196501
H        1.36665268      -0.00876860      -1.39626061
H       -0.84953134      -1.11366043       1.71885158
H       -0.85231451       0.71957877      -2.01815472
H       -2.27642520       2.31144595      -0.82249451
H       -2.04180013       1.18658453       0.60294901
15
Frame=1 idx=006409 GeodesicLength=0.09681594355088759 rxn_smarts="[C:1]([C@@:2]1([H:11])[O:3]/[C:4](=[N:5]\[H:12])[C@:6]1([N:7]([H:14])[H:15])[H:13])([H:8])([H:9])[H:10]>>[C:1]([C@@:2]1([H:11])[O:3][C@:4]1([N:5]([H:12])[H:15])/[C:6](=[N:7]/[H:14])[H:13])([H:8])([H:9])[H:10]"
C        1.90957236      -0.60369678       0.64059626
C        0.94474363      -0.44686895      -0.49052968
O        0.01992378      -1.48189689      -0.74002617
C       -0.60027954      -0.38969279      -0.07410343
N       -1.16674059      -0.36705278       1.13282357
C       -1.07537653       0.66098889      -0.95983108
N       -1.83887272       1.52359978      -0.36908204
H        1.37601084      -0.66301353       1.59188308
H        2.58080627       0.25588019       0.67470905
H        2.51276370      -1.50620570       0.51674970
H        1.36157421      -0.02911077      -1.40736928
H       -0.88220072      -1.14039329       1.71336875
H       -0.85928360       0.70079933      -2.01936242
H       -2.26227145       2.30850967      -0.83218522
H       -2.02036964       1.17815363       0.62235890
15
Frame=2 idx=006409 GeodesicLength=0.19388945210465014 rxn_smarts="[C:1]([C@@:2]1([H:11])[O:3]/[C:4](=[N:5]\[H:12])[C@:6]1([N:7]([H:14])[H:15])[H:13])([H:8])([H:9])[H:10]>>[C:1]([C@@:2]1([H:11])[O:3][C@:4]1([N:5]([H:12])[H:15])/[C:6](=[N:7]/[H:14])[H:13])([H:8])([H:9])[H:10]"
C        1.90409546      -0.58491812       0.63584954
C        0.93373313      -0.44342495      -0.49329559
O        0.01832033      -1.49147955      -0.73455398
C       -0.61910569      -0.41087344      -0.07381912
N       -1.19197483      -0.38686946       1.13002454
C       -1.04480631       0.67121382      -0.95140131
N       -1.79171271       1.54939579      -0.35366125
H        1.37588378      -0.64895803       1.58961370
H        2.56424443       0.28336299       0.66601153
H        2.51882515      -1.47956510       0.51254158
H        1.35664585      -0.04981015      -1.41821831
H       -0.91596038      -1.16676748       1.70646871
H       -0.86638941       0.68372450      -2.01877275
H       -2.24453172       2.30481661      -0.83849729
H       -1.99726708       1.17015255       0.64171000
15
Frame=3 idx=006409 GeodesicLength=0.29107323237520555 rxn_smarts="[C:1]([C@@:2]1([H:11])[O:3]/[C:4](=[N:5]\[H:12])[C@:6]1([N:7]([H:14])[H:15])[H:13])([H:8])([H:9])[H:10]>>[C:1]([C@@:2]1([H:11])[O:3][C@:4]1([N:5]([H:12])[H:15])/[C:6](=[N:7]/[H:14])[H:13])([H:8])([H:9])[H:10]"
C        1.89830387      -0.56552156       0.63100813
C        0.92287712      -0.44025404      -0.49641603
O        0.01678319      -1.50116244      -0.72840869
C       -0.63766707      -0.43129456      -0.07436804
N       -1.21734579      -0.40621989       1.12620750
C       -1.01614627       0.67852462      -0.94390860
N       -1.74659373       1.57184548      -0.33945464
H        1.37532114      -0.63302575       1.58720577
H        2.54754376       0.31110636       0.65646944
H        2.52417666      -1.45248902       0.50917444
H        1.35168197      -0.07064696      -1.42873620
H       -0.95083716      -1.19302203       1.69828128
H       -0.87332651       0.66805147      -2.01692116
H       -2.22278312       2.30148535      -0.84185083
H       -1.97198807       1.16262297       0.66171764
15
Frame=4 idx=006409 GeodesicLength=0.3885198105310299 rxn_smarts="[C:1]([C@@:2]1([H:11])[O:3]/[C:4](=[N:5]\[H:12])[C@:6]1([N:7]([H:14])[H:15])[H:13])([H:8])([H:9])[H:10]>>[C:1]([C@@:2]1([H:11])[O:3][C@:4]1([N:5]([H:12])[H:15])/[C:6](=[N:7]/[H:14])[H:13])([H:8])([H:9])[H:10]"
C        1.89229891      -0.54532145       0.62593857
C        0.91208428      -0.43739830      -0.49984527
O        0.01539593      -1.51116231      -0.72135400
C       -0.65600453      -0.45132518      -0.07539896
N       -1.24273281      -0.42532580       1.12179550
C       -0.98974587       0.68275768      -0.93725775
N       -1.70321403       1.59110465      -0.32608557
H        1.37456054      -0.61517509       1.58461959
H        2.53059572       0.33946267       0.64583649
H        2.52913761      -1.42464795       0.50639169
H        1.34638608      -0.09155111      -1.43896773
H       -0.98655033      -1.21928819       1.68923856
H       -0.88034466       0.65308869      -2.01417740
H       -2.19478554       2.30112482      -0.84258436
H       -1.94708130       1.15365687       0.68185065
15
Frame=5 idx=006409 GeodesicLength=0.4860570281872876 rxn_smarts="[C:1]([C@@:2]1([H:11])[O:3]/[C:4](=[N:5]\[H:12])[C@:6]1([N:7]([H:14])[H:15])[H:13])([H:8])([H:9])[H:10]>>[C:1]([C@@:2]1([H:11])[O:3][C@:4]1([N:5]([H:12])[H:15])/[C:6](=[N:7]/[H:14])[H:13])([H:8])([H:9])[H:10]"
C        1.88623434      -0.52475204       0.62065540
C        0.90150406      -0.43482838      -0.50347607
O        0.01403703      -1.52115667      -0.71346278
C       -0.67396821      -0.47067046      -0.07672929
N       -1.26795339      -0.44382691       1.11695988
C       -0.96504803       0.68480231      -0.93120823
N       -1.66100964       1.60800615      -0.31331299
H        1.37375224      -0.59592188       1.58186064
H        2.51376227       0.36783266       0.63428539
H        2.53366076      -1.39658673       0.50399119
H        1.34100148      -0.11248667      -1.44878507
H       -1.02317158      -1.24534796       1.67934440
H       -0.88695239       0.63922372      -2.01068033
H       -2.16363306       2.30202147      -0.84176641
H       -1.92221588       1.14369139       0.70232425
15
Frame=6 idx=006409 GeodesicLength=0.5836997876350609 rxn_smarts="[C:1]([C@@:2]1([H:11])[O:3]/[C:4](=[N:5]\[H:12])[C@:6]1([N:7]([H:14])[H:15])[H:13])([H:8])([H:9])[H:10]>>[C:1]([C@@:2]1([H:11])[O:3][C@:4]1([N:5]([H:12])[H:15])/[C:6](=[N:7]/[H:14])[H:13])([H:8])([H:9])[H:10]"
C        1.88021429      -0.50396843       0.61513973
C        0.89118964      -0.43252022      -0.50724018
O        0.01267979      -1.53102999      -0.70473250
C       -0.69150800      -0.48927952      -0.07819619
N       -1.29291199      -0.46162795       1.11187228
C       -0.94179706       0.68510139      -0.92560323
N       -1.61968024       1.62297954      -0.30098304
H        1.37302690      -0.57551570       1.57892143
H        2.49718915       0.39603435       0.62186475
H        2.53781866      -1.36847781       0.50180900
H        1.33557458      -0.13338721      -1.45814101
H       -1.06070400      -1.27114393       1.66866510
H       -0.89310095       0.62636810      -2.00657597
H       -2.13014201       2.30386370      -0.83987070
H       -1.89784878       1.13260368       0.72307054
15
Frame=7 idx=006409 GeodesicLength=0.6814549451230193 rxn_smarts="[C:1]([C@@:2]1([H:11])[O:3]/[C:4](=[N:5]\[H:12])[C@:6]1([N:7]([H:14])[H:15])[H:13])([H:8])([H:9])[H:10]>>[C:1]([C@@:2]1([H:11])[O:3][C@:4]1([N:5]([H:12])[H:15])/[C:6](=[N:7]/[H:14])[H:13])([H:8])([H:9])[H:10]"
C        1.87431426      -0.48312124       0.60940445
C        0.88119634      -0.43044113      -0.51107693
O        0.01130441      -1.54066185      -0.69520200
C       -0.70859575      -0.50708544      -0.07971147
N       -1.31757719      -0.47864385       1.10661138
C       -0.91972635       0.68407047      -0.92033112
N       -1.57905140       1.63638837      -0.28904710
H        1.37245554      -0.55419320       1.57580660
H        2.48099988       0.42388654       0.60867677
H        2.54165561      -1.34049558       0.49974239
H        1.33018645      -0.15421645      -1.46699599
H       -1.09923325      -1.29662211       1.65716510
H       -0.89870354       0.61450801      -2.00198030
H       -2.09540689       2.30604124      -0.83727495
H       -1.87381812       1.12058621       0.74421316
15
Frame=8 idx=006409 GeodesicLength=0.7793147351891256 rxn_smarts="[C:1]([C@@:2]1([H:11])[O:3]/[C:4](=[N:5]\[H:12])[C@:6]1([N:7]([H:14])[H:15])[H:13])([H:8])([H:9])[H:10]>>[C:1]([C@@:2]1([H:11])[O:3][C@:4]1([N:5]([H:12])[H:15])/[C:6](=[N:7]/[H:14])[H:13])([H:8])([H:9])[H:10]"
C        1.86858943      -0.46229336       0.60345787
C        0.87155493      -0.42856216      -0.51493848
O        0.00990748      -1.54997999      -0.68489304
C       -0.72522728      -0.52407166      -0.08120854
N       -1.34194487      -0.49484686       1.10123386
C       -0.89864797       0.68199440      -0.91531255
N       -1.53899924       1.64848962      -0.27748368
H        1.37209352      -0.53211359       1.57251717
H        2.46526570       0.45130176       0.59479419
H        2.54522625      -1.31272815       0.49771396
H        1.32487674      -0.17494234      -1.47532908
H       -1.13884530      -1.32175280       1.64479560
H       -0.90374926       0.60355883      -1.99698424
H       -2.06006417       2.30819981      -0.83419539
H       -1.85003596       1.10774651       0.76583235
15
Frame=9 idx=006409 GeodesicLength=0.8772382680488694 rxn_smarts="[C:1]([C@@:2]1([H:11])[O:3]/[C:4](=[N:5]\[H:12])[C@:6]1([N:7]([H:14])[H:15])[H:13])([H:8])([H:9])[H:10]>>[C:1]([C@@:2]1([H:11])[O:3][C@:4]1([N:5]([H:12])[H:15])/[C:6](=[N:7]/[H:14])[H:13])([H:8])([H:9])[H:10]"
C        1.86308446      -0.44153384       0.59730746
C        0.86228352      -0.42685856      -0.51878414
O        0.00849303      -1.55893666      -0.67381573
C       -0.74140917      -0.54024408      -0.08263585
N       -1.36602450      -0.51023482       1.09578046
C       -0.87841884       0.67908108      -0.91048822
N       -1.49943370       1.65947705      -0.26628310
H        1.37198905      -0.50938755       1.56905392
H        2.45003595       0.47823445       0.58027102
H        2.54858532      -1.28522349       0.49566699
H        1.31966462      -0.19554471      -1.48312962
H       -1.17962417      -1.34650582       1.63149596
H       -0.90825517       0.59341929      -1.99165585
H       -2.02453985       2.31011969      -0.83075581
H       -1.82643056       1.09413797       0.78797250
15
Frame=10 idx=006409 GeodesicLength=0.975264313060254 rxn_smarts="[C:1]([C@@:2]1([H:11])[O:3]/[C:4](=[N:5]\[H:12])[C@:6]1([N:7]([H:14])[H:15])[H:13])([H:8])([H:9])[H:10]>>[C:1]([C@@:2]1([H:11])[O:3][C@:4]1([N:5]([H:12])[H:15])/[C:6](=[N:7]/[H:14])[H:13])([H:8])([H:9])[H:10]"
C        1.85783485      -0.42087313       0.59096067
C        0.85339384      -0.42530524      -0.52257938
O        0.00707325      -1.56749804      -0.66197683
C       -0.75715456      -0.55561881      -0.08395615
N       -1.38983748      -0.52482554       1.09027576
C       -0.85892894       0.67549209      -0.90581231
N       -1.46029596       1.66950679      -0.25545814
H        1.37217871      -0.48608833       1.56541730
H        2.43535103       0.50465745       0.56514678
H        2.55177881      -1.25801502       0.49356437
H        1.31456620      -0.21601439      -1.49039418
H       -1.22166249      -1.37085836       1.61718125
H       -0.91223372       0.58400613      -1.98604786
H       -1.98917530       2.31161501      -0.82706740
H       -1.80288823       1.07981939       0.81074613
15
Frame=11 idx=006409 GeodesicLength=1.0733883987114763 rxn_smarts="[C:1]([C@@:2]1([H:11])[O:3]/[C:4](=[N:5]\[H:12])[C@:6]1([N:7]([H:14])[H:15])[H:13])([H:8])([H:9])[H:10]>>[C:1]([C@@:2]1([H:11])[O:3][C@:4]1([N:5]([H:12])[H:15])/[C:6](=[N:7]/[H:14])[H:13])([H:8])([H:9])[H:10]"
C        1.85286979      -0.40031851       0.58442128
C        0.84489002      -0.42388527      -0.52629504
O        0.00566231      -1.57564654      -0.64936921
C       -0.77247944      -0.57022572      -0.08513725
N       -1.41340829      -0.53864925       1.08473919
C       -0.84009310       0.67134279      -0.90124697
N       -1.42152914       1.67870043      -0.24501208
H        1.37269543      -0.46224683       1.56160501
H        2.42123956       0.53056919       0.54943709
H        2.55485013      -1.23111002       0.49138435
H        1.30958264      -0.23635512      -1.49712470
H       -1.26505342      -1.39478113       1.60175664
H       -0.91571578       0.57522490      -1.98019781
H       -1.95417511       2.31259653      -0.82317681
H       -1.77933559       1.06478456       0.83421632
15
Frame=12 idx=006409 GeodesicLength=1.171609810767941 rxn_smarts="[C:1]([C@@:2]1([H:11])[O:3]/[C:4](=[N:5]\[H:12])[C@:6]1([N:7]([H:14])[H:15])[H:13])([H:8])([H:9])[H:10]>>[C:1]([C@@:2]1([H:11])[O:3][C@:4]1([N:5]([H:12])[H:15])/[C:6](=[N:7]/[H:14])[H:13])([H:8])([H:9])[H:10]"
C        1.84821210      -0.37986625       0.57769166
C        0.83677249      -0.42258662      -0.52990627
O        0.00427601      -1.58337329      -0.63597930
C       -0.78740170      -0.58410025      -0.08615411
N       -1.43676746      -0.55174396       1.07918136
C       -0.82184220       0.66672175      -0.89676066
N       -1.38308447       1.68715679      -0.23494914
H        1.37356482      -0.43787245       1.55761288
H        2.40772032       0.55598006       0.53314719
H        2.55783858      -1.20450372       0.48911540
H        1.30471127      -0.25658093      -1.50332596
H       -1.30988814      -1.41823232       1.58511528
H       -0.91873171       0.56698989      -1.97413365
H       -1.91969243       2.31300378      -0.81910766
H       -1.75568748       1.04900752       0.85845296
15
Frame=13 idx=006409 GeodesicLength=1.269932666451025 rxn_smarts="[C:1]([C@@:2]1([H:11])[O:3]/[C:4](=[N:5]\[H:12])[C@:6]1([N:7]([H:14])[H:15])[H:13])([H:8])([H:9])[H:10]>>[C:1]([C@@:2]1([H:11])[O:3][C@:4]1([N:5]([H:12])[H:15])/[C:6](=[N:7]/[H:14])[H:13])([H:8])([H:9])[H:10]"
C        1.84387866      -0.35950560       0.57077262
C        0.82903861      -0.42140156      -0.53339137
O        0.00293052      -1.59067418      -0.62178749
C       -0.80194001      -0.59728035      -0.08698785
N       -1.45994938      -0.56415159       1.07360425
C       -0.80411871       0.66169860      -0.89232550
N       -1.34492106       1.69495553      -0.22527450
H        1.37480567      -0.41295752       1.55343374
H        2.39480375       0.58090651       0.51627343
H        2.56077804      -1.17818370       0.48675468
H        1.29994675      -0.27671482      -1.50900261
H       -1.35624986      -1.44115214       1.56713880
H       -0.92130861       0.55922628      -1.96787476
H       -1.88584553       2.31279234      -0.81486866
H       -1.73184885       1.03244222       0.88353523
15
Frame=14 idx=006409 GeodesicLength=1.3683606634534706 rxn_smarts="[C:1]([C@@:2]1([H:11])[O:3]/[C:4](=[N:5]\[H:12])[C@:6]1([N:7]([H:14])[H:15])[H:13])([H:8])([H:9])[H:10]>>[C:1]([C@@:2]1([H:11])[O:3][C@:4]1([N:5]([H:12])[H:15])/[C:6](=[N:7]/[H:14])[H:13])([H:8])([H:9])[H:10]"
C        1.83988307      -0.33921699       0.56366174
C        0.82168371      -0.42032851      -0.53673131
O        0.00164219      -1.59755148      -0.60676485
C       -0.81611280      -0.60980795      -0.08762154
N       -1.48298948      -0.57591643       1.06800767
C       -0.78687424       0.65632486      -0.88791531
N       -1.30699929       1.70216143      -0.21598748
H        1.37643306      -0.38747350       1.54905709
H        2.38249514       0.60537306       0.49879763
H        2.56369974      -1.15212788       0.48430599
H        1.29527958      -0.29678883      -1.51416022
H       -1.40422280      -1.46346585       1.54769821
H       -0.92347388       0.55186264      -1.96143333
H       -1.85270859       2.31194631      -0.81044680
H       -1.70773540       1.01500912       0.90953250
15
Frame=15 idx=006409 GeodesicLength=1.4668995245535874 rxn_smarts="[C:1]([C@@:2]1([H:11])[O:3]/[C:4](=[N:5]\[H:12])[C@:6]1([N:7]([H:14])[H:15])[H:13])([H:8])([H:9])[H:10]>>[C:1]([C@@:2]1([H:11])[O:3][C@:4]1([N:5]([H:12])[H:15])/[C:6](=[N:7]/[H:14])[H:13])([H:8])([H:9])[H:10]"
C        1.83623559      -0.31897812       0.55635418
C        0.81470157      -0.41936907      -0.53990828
O        0.00042702      -1.60400801      -0.59087588
C       -0.82993829      -0.62172485      -0.08804130
N       -1.50592418      -0.58708248       1.06238671
C       -0.77006691       0.65064177      -0.88350387
N       -1.26928629       1.70882595      -0.20708504
H        1.37845792      -0.36137956       1.54446819
H        2.37079670       0.62940341       0.48069270
H        2.56662989      -1.12631201       0.48177803
H        1.29069868      -0.31684183      -1.51880187
H       -1.45387673      -1.48507452       1.52665679
H       -0.92524999       0.54483837      -1.95481468
H       -1.82033480       2.31045710      -0.80582015
H       -1.68327018       0.99660383       0.93651445
15
Frame=16 idx=006409 GeodesicLength=1.5655538082777307 rxn_smarts="[C:1]([C@@:2]1([H:11])[O:3]/[C:4](=[N:5]\[H:12])[C@:6]1([N:7]([H:14])[H:15])[H:13])([H:8])([H:9])[H:10]>>[C:1]([C@@:2]1([H:11])[O:3][C@:4]1([N:5]([H:12])[H:15])/[C:6](=[N:7]/[H:14])[H:13])([H:8])([H:9])[H:10]"
C        1.83294469      -0.29876543       0.54884261
C        0.80808493      -0.41852758      -0.54290484
O       -0.00069959      -1.61004635      -0.57407853
C       -0.84343402      -0.63307256      -0.08823489
N       -1.52878881      -0.59769202       1.05673444
C       -0.75365982       0.64468234      -0.87906441
N       -1.23175609       1.71499033      -0.19856132
H        1.38088913      -0.33462551       1.53964838
H        2.35970990       0.65301904       0.46192353
H        2.56959090      -1.10071142       0.47918230
H        1.28619146      -0.33691719      -1.52292751
H       -1.50526577      -1.50585441       1.50387302
H       -0.92665508       0.53810070      -1.94801880
H       -1.78876033       2.30832468      -0.80095817
H       -1.65839150       0.97709538       0.96454420
