14
Frame=0 idx=001161 GeodesicLength=0.0 rxn_smarts="[C:1]([O:2][C:3]([C:4](=[O:5])[C:6]([H:12])([H:13])[H:14])([H:10])[H:11])([H:7])([H:8])[H:9]>>[C:1]([O:2][C@@:3]1([H:11])[C@@:4]([C:6]([H:12])([H:13])[H:14])([H:10])[O:5]1)([H:7])([H:8])[H:9]"
C       -1.69239914       0.78260221       0.19822957
O       -1.59173257      -0.64403437       0.20381888
C       -0.43970475      -1.21697883       0.10938879
C        0.95708935      -0.68665126       0.28181580
O        1.79437628      -1.61913769       0.55066279
C        1.41933132       0.42578290      -0.67578970
H       -1.41726816       1.17451718      -0.77836032
H       -2.73084682       1.00626019       0.42209745
H       -1.03153262       1.19154170       0.96705824
H        0.55169344      -0.15456967       1.25286555
H       -0.52668262      -2.30136244       0.19811826
H        2.37473873       0.78307928      -0.29471785
H        0.74182256       1.27548656      -0.77780254
H        1.59111494      -0.01653576      -1.65738496
14
Frame=1 idx=001161 GeodesicLength=0.13057333927518727 rxn_smarts="[C:1]([O:2][C:3]([C:4](=[O:5])[C:6]([H:12])([H:13])[H:14])([H:10])[H:11])([H:7])([H:8])[H:9]>>[C:1]([O:2][C@@:3]1([H:11])[C@@:4]([C:6]([H:12])([H:13])[H:14])([H:10])[O:5]1)([H:7])([H:8])[H:9]"
C       -1.72457124       0.77910414       0.21520509
O       -1.58090041      -0.63584771       0.11762287
C       -0.41642825      -1.19774043       0.12986944
C        0.97530597      -0.66341910       0.28158150
O        1.77369429      -1.62403121       0.57100589
C        1.45452518       0.41308941      -0.70122496
H       -1.41879175       1.24856454      -0.71742572
H       -2.77897199       0.96274281       0.39887469
H       -1.11953579       1.15157048       1.04589805
H        0.53853636      -0.12665722       1.25051442
H       -0.51182711      -2.28063511       0.23072736
H        2.42913107       0.74524580      -0.34713353
H        0.79482556       1.27767130      -0.79565970
H        1.58500812      -0.04965768      -1.67985539
14
Frame=2 idx=001161 GeodesicLength=0.2610369868669551 rxn_smarts="[C:1]([O:2][C:3]([C:4](=[O:5])[C:6]([H:12])([H:13])[H:14])([H:10])[H:11])([H:7])([H:8])[H:9]>>[C:1]([O:2][C@@:3]1([H:11])[C@@:4]([C:6]([H:12])([H:13])[H:14])([H:10])[O:5]1)([H:7])([H:8])[H:9]"
C       -1.75934440       0.77332239       0.23509925
O       -1.55956802      -0.61855096       0.02598008
C       -0.39405834      -1.17307170       0.15020774
C        0.99454033      -0.63852556       0.28053570
O        1.75175180      -1.62555713       0.59345684
C        1.49215977       0.39742607      -0.73001058
H       -1.41919085       1.32868571      -0.63687920
H       -2.82832995       0.91389937       0.36668895
H       -1.22085035       1.09568712       1.13004569
H        0.52769101      -0.09229620       1.24490443
H       -0.50201785      -2.25342016       0.26643216
H        2.48408747       0.70365560      -0.40184626
H        0.85101541       1.27627305      -0.82207493
H        1.58211399      -0.08752759      -1.70253988
14
Frame=3 idx=001161 GeodesicLength=0.39031263677207173 rxn_smarts="[C:1]([O:2][C:3]([C:4](=[O:5])[C:6]([H:12])([H:13])[H:14])([H:10])[H:11])([H:7])([H:8])[H:9]>>[C:1]([O:2][C@@:3]1([H:11])[C@@:4]([C:6]([H:12])([H:13])[H:14])([H:10])[O:5]1)([H:7])([H:8])[H:9]"
C       -1.79654687       0.76486181       0.25771693
O       -1.52862209      -0.59104082      -0.06101406
C       -0.37285514      -1.14249500       0.16971313
C        1.01463333      -0.61191770       0.27862237
O        1.72807534      -1.62366997       0.61753540
C        1.53186616       0.37910016      -0.76121252
H       -1.42102128       1.40750587      -0.53693823
H       -2.87633087       0.86375360       0.32515500
H       -1.33321983       1.02429426       1.21331621
H        0.51926896      -0.05163664       1.23622515
H       -0.49708357      -2.21962677       0.29947558
H        2.53898266       0.65895740      -0.45690184
H        0.90978793       1.27135256      -0.85709962
H        1.58306528      -0.12943877      -1.72459350
14
Frame=4 idx=001161 GeodesicLength=0.5175809366446806 rxn_smarts="[C:1]([O:2][C:3]([C:4](=[O:5])[C:6]([H:12])([H:13])[H:14])([H:10])[H:11])([H:7])([H:8])[H:9]>>[C:1]([O:2][C@@:3]1([H:11])[C@@:4]([C:6]([H:12])([H:13])[H:14])([H:10])[O:5]1)([H:7])([H:8])[H:9]"
C       -1.83546480       0.75387217       0.28196354
O       -1.49155012      -0.55440187      -0.13565944
C       -0.35254130      -1.10661376       0.18756967
C        1.03539219      -0.58372623       0.27621258
O        1.70267515      -1.61809908       0.64308417
C        1.57295369       0.35862051      -0.79323674
H       -1.42866752       1.47839468      -0.42241934
H       -2.92019146       0.81640418       0.27792791
H       -1.45151749       0.94105062       1.28850746
H        0.51250691      -0.00591268       1.22512978
H       -0.49515980      -2.18054005       0.32489082
H        2.59352775       0.61095103      -0.51084802
H        0.97114457       1.26386406      -0.89810846
H        1.58689223      -0.17386358      -1.74501394
14
Frame=5 idx=001161 GeodesicLength=0.6422608518263778 rxn_smarts="[C:1]([O:2][C:3]([C:4](=[O:5])[C:6]([H:12])([H:13])[H:14])([H:10])[H:11])([H:7])([H:8])[H:9]>>[C:1]([O:2][C@@:3]1([H:11])[C@@:4]([C:6]([H:12])([H:13])[H:14])([H:10])[O:5]1)([H:7])([H:8])[H:9]"
C       -1.87549921       0.74070347       0.30700684
O       -1.45206802      -0.51037194      -0.19638194
C       -0.33285626      -1.06657615       0.20340246
C        1.05662069      -0.55419629       0.27331241
O        1.67600115      -1.60859966       0.66968638
C        1.61484804       0.33646362      -0.82505766
H       -1.44455398       1.53820679      -0.29811444
H       -2.95874752       0.77453077       0.22816040
H       -1.57092821       0.84848384       1.35193135
H        0.50688926       0.04360532       1.21194436
H       -0.49475950      -2.13751334       0.34294957
H        2.64755179       0.55933324      -0.56299182
H        1.03558058       1.25498377      -0.94227542
H        1.59192118      -0.21905344      -1.76357249
14
Frame=6 idx=001161 GeodesicLength=0.7650247425189745 rxn_smarts="[C:1]([O:2][C:3]([C:4](=[O:5])[C:6]([H:12])([H:13])[H:14])([H:10])[H:11])([H:7])([H:8])[H:9]>>[C:1]([O:2][C@@:3]1([H:11])[C@@:4]([C:6]([H:12])([H:13])[H:14])([H:10])[O:5]1)([H:7])([H:8])[H:9]"
C       -1.91648242       0.72550335       0.33243259
O       -1.41167325      -0.45919173      -0.24531539
C       -0.31342352      -1.02255487       0.21756239
C        1.07844593      -0.52322897       0.27006786
O        1.64829199      -1.59466793       0.69774002
C        1.65757043       0.31234301      -0.85639030
H       -1.47091213       1.58709714      -0.16586272
H       -2.99221408       0.73792610       0.17874763
H       -1.68957404       0.74773396       1.40243483
H        0.50238550       0.09711596       1.19656866
H       -0.49500955      -2.09080176       0.35415285
H        2.70137835       0.50272109      -0.61365468
H        1.10412014       1.24484850      -0.98824626
H        1.59709667      -0.26484384      -1.78023746
14
Frame=7 idx=001161 GeodesicLength=0.8858076860214512 rxn_smarts="[C:1]([O:2][C:3]([C:4](=[O:5])[C:6]([H:12])([H:13])[H:14])([H:10])[H:11])([H:7])([H:8])[H:9]>>[C:1]([O:2][C@@:3]1([H:11])[C@@:4]([C:6]([H:12])([H:13])[H:14])([H:10])[O:5]1)([H:7])([H:8])[H:9]"
C       -1.95837838       0.70821913       0.35832715
O       -1.37166953      -0.40081183      -0.28407452
C       -0.29422621      -0.97455215       0.23007117
C        1.10075442      -0.49070153       0.26628253
O        1.61950591      -1.57580128       0.72726860
C        1.70114679       0.28600950      -0.88711486
H       -1.50857748       1.62463837      -0.02697735
H       -3.02123533       0.70665336       0.13148758
H       -1.80508697       0.63900415       1.43965875
H        0.49901753       0.15485699       1.17853904
H       -0.49568808      -2.04024089       0.35966688
H        2.75481088       0.44064012      -0.66241088
H        1.17746077       1.23316626      -1.03570135
H        1.60216567      -0.31108022      -1.79502273
14
Frame=8 idx=001161 GeodesicLength=1.005307543106193 rxn_smarts="[C:1]([O:2][C:3]([C:4](=[O:5])[C:6]([H:12])([H:13])[H:14])([H:10])[H:11])([H:7])([H:8])[H:9]>>[C:1]([O:2][C@@:3]1([H:11])[C@@:4]([C:6]([H:12])([H:13])[H:14])([H:10])[O:5]1)([H:7])([H:8])[H:9]"
C       -2.00118913       0.68874738       0.38480855
O       -1.33200345      -0.33398247      -0.31390049
C       -0.27502388      -0.92190904       0.24176129
C        1.12378760      -0.45612129       0.26204184
O        1.58982403      -1.55103386       0.75894656
C        1.74554271       0.25675416      -0.91750148
H       -1.55787744       1.65080718       0.12050944
H       -3.04629194       0.68065332       0.08641370
H       -1.91824928       0.52117252       1.46334028
H        0.49736452       0.21814009       1.15745907
H       -0.49619894      -1.98534004       0.35911817
H        2.80772021       0.37175637      -0.70975846
H        1.25611229       1.21900279      -1.08527234
H        1.60648271      -0.35864713      -1.80796612
14
Frame=9 idx=001161 GeodesicLength=1.1228935187427447 rxn_smarts="[C:1]([O:2][C:3]([C:4](=[O:5])[C:6]([H:12])([H:13])[H:14])([H:10])[H:11])([H:7])([H:8])[H:9]>>[C:1]([O:2][C@@:3]1([H:11])[C@@:4]([C:6]([H:12])([H:13])[H:14])([H:10])[O:5]1)([H:7])([H:8])[H:9]"
C       -2.04451512       0.66681742       0.41174157
O       -1.29373735      -0.25866883      -0.33480752
C       -0.25593454      -0.86457072       0.25271436
C        1.14723886      -0.41931740       0.25716830
O        1.55914676      -1.51974177       0.79249650
C        1.79014450       0.22448571      -0.94723852
H       -1.61811409       1.66327507       0.27526155
H       -3.06760200       0.66086154       0.04456975
H       -2.02621957       0.39478583       1.47218006
H        0.49743303       0.28705217       1.13295222
H       -0.49631854      -1.92586098       0.35332067
H        2.85904153       0.29594279      -0.75499616
H        1.34016082       1.20190817      -1.13644240
H        1.60927570      -0.40696902      -1.81892038
14
Frame=10 idx=001161 GeodesicLength=1.2390111254129228 rxn_smarts="[C:1]([O:2][C:3]([C:4](=[O:5])[C:6]([H:12])([H:13])[H:14])([H:10])[H:11])([H:7])([H:8])[H:9]>>[C:1]([O:2][C@@:3]1([H:11])[C@@:4]([C:6]([H:12])([H:13])[H:14])([H:10])[O:5]1)([H:7])([H:8])[H:9]"
C       -2.08750413       0.64243140       0.43860157
O       -1.25639899      -0.17408418      -0.34614322
C       -0.23660722      -0.80208968       0.26461387
C        1.17138770      -0.37986597       0.25185280
O        1.52831806      -1.48101184       0.82796275
C        1.83381734       0.18888304      -0.97645110
H       -1.68798793       1.65974819       0.43976784
H       -3.08413548       0.64937764       0.00444416
H       -2.13073434       0.25871622       1.46339972
H        0.50027899       0.36228322       1.10534800
H       -0.49510843      -1.86143416       0.34284188
H        2.90740244       0.21252462      -0.79882228
H        1.42851757       1.18081096      -1.18967745
H        1.60875441      -0.45628946      -1.82773854
14
Frame=11 idx=001161 GeodesicLength=1.352725197476964 rxn_smarts="[C:1]([O:2][C:3]([C:4](=[O:5])[C:6]([H:12])([H:13])[H:14])([H:10])[H:11])([H:7])([H:8])[H:9]>>[C:1]([O:2][C@@:3]1([H:11])[C@@:4]([C:6]([H:12])([H:13])[H:14])([H:10])[O:5]1)([H:7])([H:8])[H:9]"
C       -2.12913722       0.61542780       0.46415318
O       -1.22161347      -0.08250996      -0.34761013
C       -0.21719620      -0.73547985       0.27757537
C        1.19565696      -0.33803545       0.24606812
O        1.49786533      -1.43488647       0.86459268
C        1.87490739       0.15066789      -1.00438730
H       -1.76445426       1.63624326       0.60944072
H       -3.09603334       0.64820575      -0.03212501
H       -2.22692225       0.11646913       1.43446337
H        0.50541921       0.44258448       1.07503390
H       -0.49224354      -1.79278953       0.33037549
H        2.95061777       0.12220099      -0.84043500
H        1.52030318       1.15617887      -1.24274738
H        1.60283045      -0.50427691      -1.83439801
14
Frame=12 idx=001161 GeodesicLength=1.4644706104461676 rxn_smarts="[C:1]([O:2][C:3]([C:4](=[O:5])[C:6]([H:12])([H:13])[H:14])([H:10])[H:11])([H:7])([H:8])[H:9]>>[C:1]([O:2][C@@:3]1([H:11])[C@@:4]([C:6]([H:12])([H:13])[H:14])([H:10])[O:5]1)([H:7])([H:8])[H:9]"
C       -2.16752782       0.58644450       0.48709364
O       -1.18857428       0.01480121      -0.33804336
C       -0.19733673      -0.66538730       0.29391814
C        1.22013489      -0.29429667       0.24015281
O        1.46926641      -1.38206989       0.90119144
C        1.91136303       0.11056439      -1.03072988
H       -1.84566169       1.58984745       0.78147616
H       -3.10159606       0.65897819      -0.06486374
H       -2.31493677      -0.02881182       1.38152550
H        0.51385453       0.52637323       1.04394485
H       -0.48712033      -1.72040498       0.31834939
H        2.98617574       0.02608433      -0.88036519
H        1.61244423       1.12745744      -1.29509153
H        1.58951486      -0.54958007      -1.83855823
14
Frame=13 idx=001161 GeodesicLength=1.5741600914612248 rxn_smarts="[C:1]([O:2][C:3]([C:4](=[O:5])[C:6]([H:12])([H:13])[H:14])([H:10])[H:11])([H:7])([H:8])[H:9]>>[C:1]([O:2][C@@:3]1([H:11])[C@@:4]([C:6]([H:12])([H:13])[H:14])([H:10])[O:5]1)([H:7])([H:8])[H:9]"
C       -2.20170414       0.55594874       0.50595140
O       -1.15837919       0.11418019      -0.31818446
C       -0.17700581      -0.59352674       0.31398552
C        1.24437530      -0.24935574       0.23433851
O        1.44378711      -1.32367964       0.93733530
C        1.94159984       0.06972504      -1.05489846
H       -1.92800036       1.51876948       0.94887300
H       -3.10181974       0.68192865      -0.09119592
H       -2.39057700      -0.17109673       1.30364117
H        0.52476771       0.61169243       1.01344344
H       -0.47948181      -1.64601308       0.31006021
H        3.01197391      -0.07467451      -0.91832876
H        1.70343747       1.09562152      -1.34450490
H        1.56702670      -0.58951960      -1.84051603
14
Frame=14 idx=001161 GeodesicLength=1.6824144871634399 rxn_smarts="[C:1]([O:2][C:3]([C:4](=[O:5])[C:6]([H:12])([H:13])[H:14])([H:10])[H:11])([H:7])([H:8])[H:9]>>[C:1]([O:2][C@@:3]1([H:11])[C@@:4]([C:6]([H:12])([H:13])[H:14])([H:10])[O:5]1)([H:7])([H:8])[H:9]"
C       -2.23069483       0.52449103       0.51961063
O       -1.13084514       0.21287214      -0.28871125
C       -0.15599390      -0.52106365       0.33884743
C        1.26815949      -0.20374188       0.22888460
O        1.42267816      -1.26066439       0.97279802
C        1.96437439       0.02910300      -1.07670914
H       -2.00869832       1.42235060       1.10593107
H       -3.09707561       0.71607489      -0.10938386
H       -2.45229908      -0.30529988       1.20022611
H        0.53777544       0.69698280       0.98498404
H       -0.46921365      -1.57084403       0.30866455
H        3.02607272      -0.17927804      -0.95482284
H        1.79173780       1.06100193      -1.38999479
H        1.53402254      -0.62198452      -1.84032458
14
Frame=15 idx=001161 GeodesicLength=1.7898809356277567 rxn_smarts="[C:1]([O:2][C:3]([C:4](=[O:5])[C:6]([H:12])([H:13])[H:14])([H:10])[H:11])([H:7])([H:8])[H:9]>>[C:1]([O:2][C@@:3]1([H:11])[C@@:4]([C:6]([H:12])([H:13])[H:14])([H:10])[O:5]1)([H:7])([H:8])[H:9]"
C       -2.25403615       0.49259256       0.52762897
O       -1.10564509       0.30945482      -0.25043957
C       -0.13416053      -0.44876551       0.36889485
C        1.29130611      -0.15811690       0.22387331
O        1.40660735      -1.19430502       1.00740249
C        1.97912568      -0.01076027      -1.09611345
H       -2.08637956       1.30163918       1.24710046
H       -3.08854630       0.75844206      -0.11748703
H       -2.49821483      -0.42628662       1.07284532
H        0.55254984       0.78098775       0.95969459
H       -0.45663056      -1.49578638       0.31577177
H        3.02720632      -0.28642599      -0.98971251
H        1.87599785       1.02332529      -1.43148464
H        1.49081988      -0.64599497      -1.83797456
14
Frame=16 idx=001161 GeodesicLength=1.8970824656036496 rxn_smarts="[C:1]([O:2][C:3]([C:4](=[O:5])[C:6]([H:12])([H:13])[H:14])([H:10])[H:11])([H:7])([H:8])[H:9]>>[C:1]([O:2][C@@:3]1([H:11])[C@@:4]([C:6]([H:12])([H:13])[H:14])([H:10])[O:5]1)([H:7])([H:8])[H:9]"
C       -2.27146753       0.46066433       0.52993934
O       -1.08227345       0.40381463      -0.20363160
C       -0.11135991      -0.37698277       0.40424633
C        1.31368161      -0.11318673       0.21933367
O        1.39575674      -1.12610998       1.04088545
C        1.98560934      -0.04959392      -1.11316402
H       -2.16062846       1.15912655       1.36733408
H       -3.07763620       0.80453488      -0.11458407
H       -2.52629279      -0.52965847       0.92471538
H        0.56909522       0.86272439       0.93869778
H       -0.44230273      -1.42124050       0.33177570
H        3.01458746      -0.39476257      -1.02277972
H        1.95489139       0.98202781      -1.46942366
H        1.43833930      -0.66135764      -1.83334466
