12
Frame=0 idx=011937 GeodesicLength=0.0 rxn_smarts="[N:1]([c:2]1[c:3]([H:10])[n:4]([H:11])[c:5]([O:6][H:12])[n:7]1)([H:8])[H:9]>>[N:1]([c:2]1[c:3]([H:10])[n:4]([H:11])[c:5](=[O:6])[n:7]1[H:12])([H:8])[H:9]"
N        1.96883391       0.74693104      -0.20523012
C        0.71626338       0.17252214      -0.07407241
C        0.33925670      -1.13402107      -0.01271064
N       -1.07938148      -1.14380454       0.03228962
C       -1.47173273       0.12960667       0.00419693
O       -2.55826935       0.80496357       0.01017514
N       -0.42576014       0.94565419      -0.05644824
H        2.72566715       0.13862563       0.05925773
H        2.03934423       1.64453012       0.24654605
H        0.91573904      -2.04152363      -0.00619677
H       -1.67624466      -1.94749483       0.06406319
H       -1.49371604       1.68401076      -0.06187044
12
Frame=1 idx=011937 GeodesicLength=0.03363073741054617 rxn_smarts="[N:1]([c:2]1[c:3]([H:10])[n:4]([H:11])[c:5]([O:6][H:12])[n:7]1)([H:8])[H:9]>>[N:1]([c:2]1[c:3]([H:10])[n:4]([H:11])[c:5](=[O:6])[n:7]1[H:12])([H:8])[H:9]"
N        1.96799763       0.74822318      -0.20389625
C        0.71620983       0.17122327      -0.07091492
C        0.34009289      -1.13489543      -0.00628689
N       -1.07752361      -1.14448008       0.03692135
C       -1.47360067       0.12585447      -0.05266947
O       -2.55696244       0.80236752       0.02400654
N       -0.42585712       0.94466231      -0.06740727
H        2.72615538       0.13894892       0.05466752
H        2.03923438       1.64220638       0.25512057
H        0.91652309      -2.04246655      -0.00828069
H       -1.67639789      -1.94607475       0.08138118
H       -1.49587148       1.69443077      -0.04264166
12
Frame=2 idx=011937 GeodesicLength=0.06757400876095501 rxn_smarts="[N:1]([c:2]1[c:3]([H:10])[n:4]([H:11])[c:5]([O:6][H:12])[n:7]1)([H:8])[H:9]>>[N:1]([c:2]1[c:3]([H:10])[n:4]([H:11])[c:5](=[O:6])[n:7]1[H:12])([H:8])[H:9]"
N        1.96742981       0.74936184      -0.20331006
C        0.71613381       0.16999546      -0.07046407
C        0.34061238      -1.13556457      -0.00179542
N       -1.07602110      -1.14417477       0.03890770
C       -1.47449487       0.12292548      -0.09335864
O       -2.55511574       0.79784549       0.03011470
N       -0.42582596       0.94369621      -0.08293071
H        2.72635738       0.13928308       0.05123892
H        2.03864034       1.64005083       0.26230938
H        0.91685621      -2.04324542      -0.00678655
H       -1.67698478      -1.94341465       0.09525379
H       -1.49758748       1.70324102      -0.01917905
12
Frame=3 idx=011937 GeodesicLength=0.10180742183519925 rxn_smarts="[N:1]([c:2]1[c:3]([H:10])[n:4]([H:11])[c:5]([O:6][H:12])[n:7]1)([H:8])[H:9]>>[N:1]([c:2]1[c:3]([H:10])[n:4]([H:11])[c:5](=[O:6])[n:7]1[H:12])([H:8])[H:9]"
N        1.96674870       0.75083380      -0.20251326
C        0.71595023       0.16890264      -0.07070689
C        0.34105621      -1.13617473       0.00045942
N       -1.07454436      -1.14376723       0.04008663
C       -1.47516710       0.12026907      -0.12381255
O       -2.55300188       0.79309704       0.03574779
N       -0.42575317       0.94284657      -0.09653880
H        2.72647674       0.13955134       0.04687864
H        2.03804418       1.63738372       0.27115711
H        0.91722975      -2.04389541      -0.00520071
H       -1.67763956      -1.94054682       0.10735591
H       -1.49939973       1.71150001      -0.00291329
12
Frame=4 idx=011937 GeodesicLength=0.13593830782088784 rxn_smarts="[N:1]([c:2]1[c:3]([H:10])[n:4]([H:11])[c:5]([O:6][H:12])[n:7]1)([H:8])[H:9]>>[N:1]([c:2]1[c:3]([H:10])[n:4]([H:11])[c:5](=[O:6])[n:7]1[H:12])([H:8])[H:9]"
N        1.96599031       0.75253838      -0.20179290
C        0.71567173       0.16785527      -0.07216629
C        0.34145944      -1.13676073       0.00128700
N       -1.07309217      -1.14334504       0.04021868
C       -1.47576503       0.11768411      -0.14987016
O       -2.55077588       0.78834633       0.03952851
N       -0.42569966       0.94199244      -0.11003259
H        2.72647623       0.13987130       0.04198095
H        2.03720876       1.63435861       0.28086168
H        0.91770178      -2.04444484      -0.00236264
H       -1.67831179      -1.93738682       0.11940896
H       -1.50086372       1.71929100       0.01293880
12
Frame=5 idx=011937 GeodesicLength=0.17007023141539596 rxn_smarts="[N:1]([c:2]1[c:3]([H:10])[n:4]([H:11])[c:5]([O:6][H:12])[n:7]1)([H:8])[H:9]>>[N:1]([c:2]1[c:3]([H:10])[n:4]([H:11])[c:5](=[O:6])[n:7]1[H:12])([H:8])[H:9]"
N        1.96519151       0.75448696      -0.20093851
C        0.71533421       0.16683397      -0.07486583
C        0.34185686      -1.13733840       0.00079552
N       -1.07162129      -1.14287751       0.03999137
C       -1.47633394       0.11507110      -0.17352945
O       -2.54850792       0.78363978       0.04154959
N       -0.42565909       0.94115685      -0.12363365
H        2.72638159       0.14025142       0.03679398
H        2.03606704       1.63091827       0.29171191
H        0.91824102      -2.04492797       0.00063542
H       -1.67894189      -1.93382685       0.13265055
H       -1.50200810       1.72661239       0.02883909
12
Frame=6 idx=011937 GeodesicLength=0.204360753402376 rxn_smarts="[N:1]([c:2]1[c:3]([H:10])[n:4]([H:11])[c:5]([O:6][H:12])[n:7]1)([H:8])[H:9]>>[N:1]([c:2]1[c:3]([H:10])[n:4]([H:11])[c:5](=[O:6])[n:7]1[H:12])([H:8])[H:9]"
N        1.96435159       0.75670934      -0.19976175
C        0.71495403       0.16580825      -0.07893959
C        0.34227619      -1.13793104      -0.00118515
N       -1.07010357      -1.14239906       0.03913708
C       -1.47692059       0.11240083      -0.19570739
O       -2.54617387       0.77898635       0.04234077
N       -0.42563527       0.94028058      -0.13754123
H        2.72619235       0.14072728       0.03143947
H        2.03451514       1.62693189       0.30408859
H        0.91886945      -2.04535858       0.00345109
H       -1.67945456      -1.92967977       0.14803446
H       -1.50287090       1.73352393       0.04464365
12
Frame=7 idx=011937 GeodesicLength=0.2386890086334074 rxn_smarts="[N:1]([c:2]1[c:3]([H:10])[n:4]([H:11])[c:5]([O:6][H:12])[n:7]1)([H:8])[H:9]>>[N:1]([c:2]1[c:3]([H:10])[n:4]([H:11])[c:5](=[O:6])[n:7]1[H:12])([H:8])[H:9]"
N        1.96339697       0.75893408      -0.19889593
C        0.71454319       0.16479325      -0.08267402
C        0.34268109      -1.13848272      -0.00219804
N       -1.06862109      -1.14193772       0.03842261
C       -1.47745815       0.10967761      -0.21627671
O       -2.54380826       0.77440850       0.04227349
N       -0.42561497       0.93941557      -0.15026760
H        2.72601632       0.14132180       0.02546153
H        2.03307099       1.62289003       0.31590987
H        0.91946984      -2.04574352       0.00652466
H       -1.68001302      -1.92546998       0.16176614
H       -1.50366292       1.74019309       0.05995400
12
Frame=8 idx=011937 GeodesicLength=0.2730320131113557 rxn_smarts="[N:1]([c:2]1[c:3]([H:10])[n:4]([H:11])[c:5]([O:6][H:12])[n:7]1)([H:8])[H:9]>>[N:1]([c:2]1[c:3]([H:10])[n:4]([H:11])[c:5](=[O:6])[n:7]1[H:12])([H:8])[H:9]"
N        1.96235254       0.76118840      -0.19826400
C        0.71411003       0.16378282      -0.08633304
C        0.34307869      -1.13899142      -0.00258572
N       -1.06716643      -1.14147794       0.03778248
C       -1.47794631       0.10689684      -0.23567684
O       -2.54140995       0.76991092       0.04148962
N       -0.42560631       0.93854768      -0.16217194
H        2.72583626       0.14203648       0.01897244
H        2.03166725       1.61873144       0.32741188
H        0.92006205      -2.04607009       0.00996995
H       -1.68061814      -1.92117741       0.17432370
H       -1.50435968       1.74662227       0.07508146
12
Frame=9 idx=011937 GeodesicLength=0.30740358668880513 rxn_smarts="[N:1]([c:2]1[c:3]([H:10])[n:4]([H:11])[c:5]([O:6][H:12])[n:7]1)([H:8])[H:9]>>[N:1]([c:2]1[c:3]([H:10])[n:4]([H:11])[c:5](=[O:6])[n:7]1[H:12])([H:8])[H:9]"
N        1.96123639       0.76354780      -0.19765882
C        0.71365662       0.16276817      -0.09033280
C        0.34348021      -1.13947581      -0.00289587
N       -1.06571465      -1.14102037       0.03712239
C       -1.47841755       0.10403387      -0.25423850
O       -2.53894994       0.76551232       0.04014151
N       -0.42562212       0.93766319      -0.17375377
H        2.72563313       0.14287926       0.01209412
H        2.03016143       1.61429855       0.33919814
H        0.92067738      -2.04634342       0.01356693
H       -1.68120896      -1.91668161       0.18671537
H       -1.50493193       1.75281806       0.09004130
12
Frame=10 idx=011937 GeodesicLength=0.34180831012932256 rxn_smarts="[N:1]([c:2]1[c:3]([H:10])[n:4]([H:11])[c:5]([O:6][H:12])[n:7]1)([H:8])[H:9]>>[N:1]([c:2]1[c:3]([H:10])[n:4]([H:11])[c:5](=[O:6])[n:7]1[H:12])([H:8])[H:9]"
N        1.96004025       0.76604658      -0.19706383
C        0.71318438       0.16175022      -0.09480240
C        0.34388738      -1.13993249      -0.00328998
N       -1.06426145      -1.14056545       0.03632282
C       -1.47887641       0.10108935      -0.27221064
O       -2.53643272       0.76120946       0.03822229
N       -0.42567144       0.93676707      -0.18512733
H        2.72540747       0.14386107       0.00469098
H        2.02852824       1.60948847       0.35146326
H        0.92133621      -2.04653620       0.01757405
H       -1.68176952      -1.91192695       0.19914727
H       -1.50537239       1.75874888       0.10507350
12
Frame=11 idx=011937 GeodesicLength=0.37625100805300504 rxn_smarts="[N:1]([c:2]1[c:3]([H:10])[n:4]([H:11])[c:5]([O:6][H:12])[n:7]1)([H:8])[H:9]>>[N:1]([c:2]1[c:3]([H:10])[n:4]([H:11])[c:5](=[O:6])[n:7]1[H:12])([H:8])[H:9]"
N        1.95875898       0.76873906      -0.19637404
C        0.71269251       0.16071400      -0.10012780
C        0.34430682      -1.14038430      -0.00428562
N       -1.06278970      -1.14011804       0.03524639
C       -1.47936255       0.09805978      -0.28976407
O       -2.53382225       0.75701913       0.03593752
N       -0.42576893       0.93585143      -0.19660221
H        2.72513887       0.14501098      -0.00321835
H        2.02662695       1.60413024       0.36461384
H        0.92207660      -2.04662003       0.02224623
H       -1.68223558      -1.90680335       0.21209100
H       -1.50562172       1.76440111       0.12023711
12
Frame=12 idx=011937 GeodesicLength=0.41074061349177693 rxn_smarts="[N:1]([c:2]1[c:3]([H:10])[n:4]([H:11])[c:5]([O:6][H:12])[n:7]1)([H:8])[H:9]>>[N:1]([c:2]1[c:3]([H:10])[n:4]([H:11])[c:5](=[O:6])[n:7]1[H:12])([H:8])[H:9]"
N        1.95737001       0.77166665      -0.19557892
C        0.71217922       0.15965231      -0.10655867
C        0.34474084      -1.14084702      -0.00625280
N       -1.06129091      -1.13967729       0.03378429
C       -1.47990889       0.09495856      -0.30701382
O       -2.53110130       0.75295246       0.03343866
N       -0.42593109       0.93492302      -0.20829871
H        2.72482009       0.14636196      -0.01180239
H        2.02438422       1.59804846       0.37889472
H        0.92293224      -2.04653023       0.02816055
H       -1.68255865      -1.90126378       0.22555378
H       -1.50563578       1.76975490       0.13567331
12
Frame=13 idx=011937 GeodesicLength=0.4452876701464863 rxn_smarts="[N:1]([c:2]1[c:3]([H:10])[n:4]([H:11])[c:5]([O:6][H:12])[n:7]1)([H:8])[H:9]>>[N:1]([c:2]1[c:3]([H:10])[n:4]([H:11])[c:5](=[O:6])[n:7]1[H:12])([H:8])[H:9]"
N        1.95584598       0.77487770      -0.19456230
C        0.71164683       0.15855220      -0.11433283
C        0.34520406      -1.14133730      -0.00941370
N       -1.05974491      -1.13923680       0.03198294
C       -1.48054779       0.09176451      -0.32404095
O       -2.52824814       0.74902491       0.03080241
N       -0.42617338       0.93396839      -0.22042540
H        2.72444425       0.14797027      -0.02113386
H        2.02167672       1.59102510       0.39468697
H        0.92391717      -2.04621897       0.03525689
H       -1.68265639      -1.89520416       0.23990484
H       -1.50536439       1.77481415       0.15127499
12
Frame=14 idx=011937 GeodesicLength=0.4799036778071003 rxn_smarts="[N:1]([c:2]1[c:3]([H:10])[n:4]([H:11])[c:5]([O:6][H:12])[n:7]1)([H:8])[H:9]>>[N:1]([c:2]1[c:3]([H:10])[n:4]([H:11])[c:5](=[O:6])[n:7]1[H:12])([H:8])[H:9]"
N        1.95414633       0.77840622      -0.19324473
C        0.71109429       0.15739397      -0.12377675
C        0.34570515      -1.14188729      -0.01419605
N       -1.05813192      -1.13879643       0.02975906
C       -1.48132537       0.08847676      -0.34091925
O       -2.52522315       0.74525503       0.02819493
N       -0.42651130       0.93297798      -0.23318449
H        2.72399369       0.14990781      -0.03129067
H        2.01834351       1.58280154       0.41231284
H        0.92504888      -2.04558091       0.04391015
H       -1.68242268      -1.88851762       0.25535756
H       -1.50471742       1.77956295       0.16707741
12
Frame=15 idx=011937 GeodesicLength=0.5145809246175475 rxn_smarts="[N:1]([c:2]1[c:3]([H:10])[n:4]([H:11])[c:5]([O:6][H:12])[n:7]1)([H:8])[H:9]>>[N:1]([c:2]1[c:3]([H:10])[n:4]([H:11])[c:5](=[O:6])[n:7]1[H:12])([H:8])[H:9]"
N        1.95226272       0.78213471      -0.19171471
C        0.71053125       0.15617616      -0.13436032
C        0.34623884      -1.14249693      -0.02004962
N       -1.05646493      -1.13835095       0.02733767
C       -1.48220727       0.08508804      -0.35757973
O       -2.52203859       0.74163839       0.02556572
N       -0.42692629       0.93194607      -0.24628284
H        2.72347865       0.15220263      -0.04209624
H        2.01449754       1.57353864       0.43110784
H        0.92625792      -2.04459256       0.05377049
H       -1.68189565      -1.88132924       0.27130531
H       -1.50373419       1.78404504       0.18299645
12
Frame=16 idx=011937 GeodesicLength=0.5493027040332756 rxn_smarts="[N:1]([c:2]1[c:3]([H:10])[n:4]([H:11])[c:5]([O:6][H:12])[n:7]1)([H:8])[H:9]>>[N:1]([c:2]1[c:3]([H:10])[n:4]([H:11])[c:5](=[O:6])[n:7]1[H:12])([H:8])[H:9]"
N        1.95021318       0.78591967      -0.19002820
C        0.70996614       0.15489519      -0.14544865
C        0.34679552      -1.14317056      -0.02638259
N       -1.05476257      -1.13791146       0.02491113
C       -1.48314780       0.08158266      -0.37394753
O       -2.51870448       0.73816475       0.02285355
N       -0.42738803       0.93085497      -0.25944268
H        2.72290286       0.15484647      -0.05312539
H        2.01026714       1.56355126       0.45029372
H        0.92747174      -2.04331903       0.06406554
H       -1.68113061      -1.87374868       0.28739615
H       -1.50248308       1.78833477       0.19885494
