11
Frame=0 idx=000897 GeodesicLength=0.0 rxn_smarts="[N:1](=[C:2]1/[C:3]([H:8])=[C:4]([H:9])[C:5]([H:10])([H:11])[O:6]1)\[H:7]>>[N:1]([C:2]1=[C:3]=[C:4]([H:9])[C:5]([H:10])([H:11])[O:6]1)([H:7])[H:8]"
N        2.10373377       0.28210366      -0.23641530
C        0.86540202      -0.04110030      -0.07019442
C        0.06490841       1.15622907      -0.18738141
C       -1.17951545       0.69690216      -0.00331180
C       -1.17103748      -0.79806502       0.23384823
O        0.23590109      -1.16769693       0.16628132
H        2.88686354      -0.35443637      -0.20916748
H        1.55110381       1.45281524      -0.37259818
H       -2.11562227       1.24296590      -0.00795232
H       -1.69949378      -1.37322774      -0.53060621
H       -1.54224363      -1.09648965       1.21749752
11
Frame=1 idx=000897 GeodesicLength=0.03860884218734634 rxn_smarts="[N:1](=[C:2]1/[C:3]([H:8])=[C:4]([H:9])[C:5]([H:10])([H:11])[O:6]1)\[H:7]>>[N:1]([C:2]1=[C:3]=[C:4]([H:9])[C:5]([H:10])([H:11])[O:6]1)([H:7])[H:8]"
N        2.10578196       0.28305193      -0.23719099
C        0.86702869      -0.03871525      -0.07030221
C        0.06366541       1.15794105      -0.18928828
C       -1.17943588       0.69514220      -0.00429587
C       -1.16886020      -0.79869506       0.23409999
O        0.23723528      -1.16627289       0.16688691
H        2.87562954      -0.36991969      -0.20977827
H        1.55129751       1.46805142      -0.36890461
H       -2.11571462       1.24091842      -0.00945861
H       -1.69678520      -1.37507938      -0.52987451
H       -1.53984248      -1.09642274       1.21810645
11
Frame=2 idx=000897 GeodesicLength=0.07729898724568675 rxn_smarts="[N:1](=[C:2]1/[C:3]([H:8])=[C:4]([H:9])[C:5]([H:10])([H:11])[O:6]1)\[H:7]>>[N:1]([C:2]1=[C:3]=[C:4]([H:9])[C:5]([H:10])([H:11])[O:6]1)([H:7])[H:8]"
N        2.10879019       0.28537205      -0.22788662
C        0.86864570      -0.03646554      -0.07054106
C        0.06269630       1.15994313      -0.18887459
C       -1.17913728       0.69367920      -0.00339392
C       -1.16678802      -0.79944851       0.23359336
O        0.23833921      -1.16523582       0.16558633
H        2.86454495      -0.38482638      -0.20913940
H        1.55024606       1.48124257      -0.37833595
H       -2.11544874       1.23941688      -0.00783509
H       -1.69460766      -1.37556105      -0.53073269
H       -1.53728072      -1.09811651       1.21755964
11
Frame=3 idx=000897 GeodesicLength=0.11586160109389959 rxn_smarts="[N:1](=[C:2]1/[C:3]([H:8])=[C:4]([H:9])[C:5]([H:10])([H:11])[O:6]1)\[H:7]>>[N:1]([C:2]1=[C:3]=[C:4]([H:9])[C:5]([H:10])([H:11])[O:6]1)([H:7])[H:8]"
N        2.10909509       0.28270526      -0.24815005
C        0.86998233      -0.03487219      -0.07398190
C        0.06164869       1.16155926      -0.19029354
C       -1.17874795       0.69225957      -0.00219520
C       -1.16473034      -0.80015035       0.23342796
O        0.23918486      -1.16462952       0.16223382
H        2.85537496      -0.39589353      -0.18776759
H        1.55020221       1.49618769      -0.37661891
H       -2.11491609       1.23826960      -0.00434126
H       -1.69395223      -1.37584527      -0.53031610
H       -1.53314152      -1.09959053       1.21800275
11
Frame=4 idx=000897 GeodesicLength=0.15448337056296305 rxn_smarts="[N:1](=[C:2]1/[C:3]([H:8])=[C:4]([H:9])[C:5]([H:10])([H:11])[O:6]1)\[H:7]>>[N:1]([C:2]1=[C:3]=[C:4]([H:9])[C:5]([H:10])([H:11])[O:6]1)([H:7])[H:8]"
N        2.11297405       0.28597974      -0.23021085
C        0.87188958      -0.03233573      -0.07116451
C        0.06083619       1.16348704      -0.18950143
C       -1.17847175       0.69058390      -0.00259274
C       -1.16268670      -0.80085779       0.23323847
O        0.24048091      -1.16323567       0.16408848
H        2.84314573      -0.41218348      -0.19976283
H        1.54919760       1.50980645      -0.38421530
H       -2.11481738       1.23629313      -0.00616158
H       -1.69031020      -1.37724191      -0.53116464
H       -1.53223802      -1.10029568       1.21744690
11
Frame=5 idx=000897 GeodesicLength=0.19311537561583564 rxn_smarts="[N:1](=[C:2]1/[C:3]([H:8])=[C:4]([H:9])[C:5]([H:10])([H:11])[O:6]1)\[H:7]>>[N:1]([C:2]1=[C:3]=[C:4]([H:9])[C:5]([H:10])([H:11])[O:6]1)([H:7])[H:8]"
N        2.11375124       0.28356968      -0.24620626
C        0.87352998      -0.03042581      -0.07143859
C        0.06004777       1.16523087      -0.18931285
C       -1.17802394       0.68910596      -0.00172737
C       -1.16068365      -0.80156589       0.23306651
O        0.24145260      -1.16238996       0.16309809
H        2.83337577      -0.42378937      -0.18529706
H        1.54892473       1.52478571      -0.38345493
H       -2.11432172       1.23491472      -0.00456633
H       -1.68835215      -1.37778720      -0.53150056
H       -1.52970064      -1.10164873       1.21733936
11
Frame=6 idx=000897 GeodesicLength=0.23168399165150805 rxn_smarts="[N:1](=[C:2]1/[C:3]([H:8])=[C:4]([H:9])[C:5]([H:10])([H:11])[O:6]1)\[H:7]>>[N:1]([C:2]1=[C:3]=[C:4]([H:9])[C:5]([H:10])([H:11])[O:6]1)([H:7])[H:8]"
N        2.11653241       0.28437138      -0.24112145
C        0.87503277      -0.02884699      -0.07323514
C        0.05931530       1.16692033      -0.18910841
C       -1.17747457       0.68772976      -0.00020821
C       -1.15874959      -0.80235162       0.23241215
O        0.24221168      -1.16190809       0.16021727
H        2.82292590      -0.43640723      -0.17850820
H        1.54753091       1.53807804      -0.39378614
H       -2.11359779       1.23385884      -0.00115992
H       -1.68722224      -1.37771112      -0.53232312
H       -1.52650478      -1.10373329       1.21682117
11
Frame=7 idx=000897 GeodesicLength=0.27027990015489617 rxn_smarts="[N:1](=[C:2]1/[C:3]([H:8])=[C:4]([H:9])[C:5]([H:10])([H:11])[O:6]1)\[H:7]>>[N:1]([C:2]1=[C:3]=[C:4]([H:9])[C:5]([H:10])([H:11])[O:6]1)([H:7])[H:8]"
N        2.11876678       0.28399128      -0.24174363
C        0.87694400      -0.02666688      -0.07062415
C        0.05858279       1.16843342      -0.18956710
C       -1.17712987       0.68591462      -0.00143132
C       -1.15675467      -0.80297709       0.23279853
O        0.24342774      -1.16061554       0.16292279
H        2.81150412      -0.45042810      -0.18283444
H        1.54737962       1.55366188      -0.39032368
H       -2.11339660       1.23180401      -0.00429488
H       -1.68369169      -1.37970232      -0.53203938
H       -1.52563221      -1.10341528       1.21713726
11
Frame=8 idx=000897 GeodesicLength=0.30888007377417875 rxn_smarts="[N:1](=[C:2]1/[C:3]([H:8])=[C:4]([H:9])[C:5]([H:10])([H:11])[O:6]1)\[H:7]>>[N:1]([C:2]1=[C:3]=[C:4]([H:9])[C:5]([H:10])([H:11])[O:6]1)([H:7])[H:8]"
N        2.12114366       0.28359460      -0.24147188
C        0.87857115      -0.02508485      -0.07122180
C        0.05785496       1.16980279      -0.19056634
C       -1.17663716       0.68428338      -0.00148051
C       -1.15482154      -0.80366969       0.23277012
O        0.24430642      -1.15990461       0.16235762
H        2.80076390      -0.46315254      -0.18017301
H        1.54666790       1.56859753      -0.39165640
H       -2.11283050       1.23031353      -0.00410368
H       -1.68182036      -1.38074526      -0.53183318
H       -1.52319845      -1.10403485       1.21737905
11
Frame=9 idx=000897 GeodesicLength=0.3475146676278231 rxn_smarts="[N:1](=[C:2]1/[C:3]([H:8])=[C:4]([H:9])[C:5]([H:10])([H:11])[O:6]1)\[H:7]>>[N:1]([C:2]1=[C:3]=[C:4]([H:9])[C:5]([H:10])([H:11])[O:6]1)([H:7])[H:8]"
N        2.12343645       0.28274114      -0.24258349
C        0.88005941      -0.02387201      -0.07347385
C        0.05724798       1.17120299      -0.19095096
C       -1.17597543       0.68286091      -0.00020164
C       -1.15296163      -0.80443997       0.23227164
O        0.24492385      -1.15963922       0.15945449
H        2.79069479      -0.47444278      -0.17044730
H        1.54541062       1.58283565      -0.39800612
H       -2.11192525       1.22932837      -0.00100034
H       -1.68099883      -1.38078846      -0.53223633
H       -1.51991196      -1.10578661       1.21717390
11
Frame=10 idx=000897 GeodesicLength=0.3861275557400675 rxn_smarts="[N:1](=[C:2]1/[C:3]([H:8])=[C:4]([H:9])[C:5]([H:10])([H:11])[O:6]1)\[H:7]>>[N:1]([C:2]1=[C:3]=[C:4]([H:9])[C:5]([H:10])([H:11])[O:6]1)([H:7])[H:8]"
N        2.12562830       0.28151443      -0.24501576
C        0.88177358      -0.02235659      -0.07337139
C        0.05657150       1.17234160      -0.19265873
C       -1.17547708       0.68108833      -0.00112951
C       -1.15104415      -0.80507837       0.23262537
O        0.24584846      -1.15884624       0.16025204
H        2.77981638      -0.48706843      -0.17004149
H        1.54495522       1.59879398      -0.39448463
H       -2.11139794       1.22762182      -0.00263413
H       -1.67873089      -1.38246363      -0.53141747
H       -1.51794339      -1.10554689       1.21787571
11
Frame=11 idx=000897 GeodesicLength=0.42477595410328345 rxn_smarts="[N:1](=[C:2]1/[C:3]([H:8])=[C:4]([H:9])[C:5]([H:10])([H:11])[O:6]1)\[H:7]>>[N:1]([C:2]1=[C:3]=[C:4]([H:9])[C:5]([H:10])([H:11])[O:6]1)([H:7])[H:8]"
N        2.12847827       0.28110381      -0.24097337
C        0.88323869      -0.02138190      -0.07614574
C        0.05616990       1.17380794      -0.19200297
C       -1.17462531       0.67984110       0.00126264
C       -1.14926766      -0.80593214       0.23161164
O        0.24626036      -1.15892831       0.15583433
H        2.76991421      -0.49776263      -0.15879793
H        1.54283061       1.61220689      -0.40775265
H       -2.11016386       1.22704594       0.00270206
H       -1.67846922      -1.38163177      -0.53272753
H       -1.51436598      -1.10836893       1.21698952
11
Frame=12 idx=000897 GeodesicLength=0.46343493375265743 rxn_smarts="[N:1](=[C:2]1/[C:3]([H:8])=[C:4]([H:9])[C:5]([H:10])([H:11])[O:6]1)\[H:7]>>[N:1]([C:2]1=[C:3]=[C:4]([H:9])[C:5]([H:10])([H:11])[O:6]1)([H:7])[H:8]"
N        2.13051006       0.27912263      -0.24578877
C        0.88511499      -0.01976055      -0.07450990
C        0.05556799       1.17480774      -0.19394933
C       -1.17413406       0.67792417      -0.00056770
C       -1.14735141      -0.80651194       0.23234248
O        0.24729876      -1.15793347       0.15854629
H        2.75883981      -0.51063696      -0.16153124
H        1.54252138       1.62920124      -0.40000223
H       -2.10972088       1.22506126      -0.00102312
H       -1.67542624      -1.38397616      -0.53151669
H       -1.51322038      -1.10729797       1.21800021
11
Frame=13 idx=000897 GeodesicLength=0.502107602290853 rxn_smarts="[N:1](=[C:2]1/[C:3]([H:8])=[C:4]([H:9])[C:5]([H:10])([H:11])[O:6]1)\[H:7]>>[N:1]([C:2]1=[C:3]=[C:4]([H:9])[C:5]([H:10])([H:11])[O:6]1)([H:7])[H:8]"
N        2.13314340       0.27773653      -0.24485075
C        0.88677208      -0.01868044      -0.07547509
C        0.05535617       1.17626113      -0.19260946
C       -1.17321883       0.67662127       0.00148305
C       -1.14560909      -0.80734594       0.23146519
O        0.24777620      -1.15789805       0.15568485
H        2.74886804      -0.52106971      -0.15169303
H        1.54037216       1.64327599      -0.41096768
H       -2.10847095       1.22434407       0.00297481
H       -1.67442434      -1.38340772      -0.53301219
H       -1.51056484      -1.10983714       1.21700031
11
Frame=14 idx=000897 GeodesicLength=0.540760876212747 rxn_smarts="[N:1](=[C:2]1/[C:3]([H:8])=[C:4]([H:9])[C:5]([H:10])([H:11])[O:6]1)\[H:7]>>[N:1]([C:2]1=[C:3]=[C:4]([H:9])[C:5]([H:10])([H:11])[O:6]1)([H:7])[H:8]"
N        2.13559271       0.27588531      -0.24606294
C        0.88851827      -0.01752098      -0.07561687
C        0.05494171       1.17725212      -0.19390249
C       -1.17250210       0.67492671       0.00105932
C       -1.14378864      -0.80802229       0.23160812
O        0.24850321      -1.15744093       0.15579521
H        2.73826775      -0.53276972      -0.14971243
H        1.53913447       1.65941965      -0.41048353
H       -2.10759556       1.22293718       0.00245204
H       -1.67254103      -1.38463811      -0.53256772
H       -1.50853079      -1.11002894       1.21743129
11
Frame=15 idx=000897 GeodesicLength=0.5794362417358969 rxn_smarts="[N:1](=[C:2]1/[C:3]([H:8])=[C:4]([H:9])[C:5]([H:10])([H:11])[O:6]1)\[H:7]>>[N:1]([C:2]1=[C:3]=[C:4]([H:9])[C:5]([H:10])([H:11])[O:6]1)([H:7])[H:8]"
N        2.13817563       0.27398431      -0.24637286
C        0.89024599      -0.01650199      -0.07616332
C        0.05457508       1.17817362      -0.19530732
C       -1.17173072       0.67324954       0.00074455
C       -1.14198857      -0.80870805       0.23169682
O        0.24916557      -1.15710000       0.15551420
H        2.72772925      -0.54430548      -0.14742156
H        1.53766499       1.67564756      -0.41072365
H       -2.10662267       1.22162062       0.00230281
H       -1.67088726      -1.38575529      -0.53212479
H       -1.50632727      -1.11030484       1.21785511
11
Frame=16 idx=000897 GeodesicLength=0.6181103996502317 rxn_smarts="[N:1](=[C:2]1/[C:3]([H:8])=[C:4]([H:9])[C:5]([H:10])([H:11])[O:6]1)\[H:7]>>[N:1]([C:2]1=[C:3]=[C:4]([H:9])[C:5]([H:10])([H:11])[O:6]1)([H:7])[H:8]"
N        2.14115884       0.27250262      -0.24294201
C        0.89198528      -0.01556533      -0.07680821
C        0.05434891       1.17920241      -0.19576264
C       -1.17084444       0.67169846       0.00122120
C       -1.14023115      -0.80945019       0.23142591
O        0.24972628      -1.15693976       0.15435684
H        2.71726977      -0.55569666      -0.14456228
H        1.53556520       1.69132014      -0.41583157
H       -2.10546348       1.22054966       0.00354498
H       -1.66948660      -1.38626961      -0.53239343
H       -1.50402861      -1.11135174       1.21775122
