11
Frame=0 idx=001426 GeodesicLength=0.0 rxn_smarts="[C:1](#[C:2][C:3]1([H:7])[C:4]([H:8])([H:9])[C:5]1([H:10])[H:11])[H:6]>>[C:1]1([H:6])=[C:2]=[C:3]([H:7])[C:4]([H:8])([H:9])[C:5]1([H:10])[H:11]"
C        1.43965293       0.27376265       0.16096956
C        1.55072463       0.14443855      -1.13370061
C        0.09396463       0.34842086      -0.86768058
C       -0.90723215      -0.64898556      -0.43236450
C       -0.36293193      -0.05473110       0.82579713
H        1.93166303       0.63685224       1.04620534
H       -0.31083131       1.32952574      -1.11387630
H       -1.93456242      -0.40823616      -0.67929112
H       -0.64492002      -1.68660038      -0.60918923
H       -0.89905120       0.79249070       1.23664313
H        0.04352381      -0.72693752       1.56648717
11
Frame=1 idx=001426 GeodesicLength=0.08437482076549428 rxn_smarts="[C:1](#[C:2][C:3]1([H:7])[C:4]([H:8])([H:9])[C:5]1([H:10])[H:11])[H:6]>>[C:1]1([H:6])=[C:2]=[C:3]([H:7])[C:4]([H:8])([H:9])[C:5]1([H:10])[H:11]"
C        1.45568362       0.27738817       0.17141235
C        1.53658934       0.14951597      -1.12319234
C        0.08473698       0.35758033      -0.87292356
C       -0.90685399      -0.64953139      -0.43400342
C       -0.36290090      -0.05052094       0.82455620
H        1.96972084       0.62178054       1.05123842
H       -0.32383681       1.33231638      -1.13539636
H       -1.93658955      -0.41689994      -0.67962059
H       -0.64012386      -1.68638749      -0.60921485
H       -0.90735742       0.79078130       1.23746921
H        0.03093175      -0.72602293       1.56967494
11
Frame=2 idx=001426 GeodesicLength=0.16872215381366032 rxn_smarts="[C:1](#[C:2][C:3]1([H:7])[C:4]([H:8])([H:9])[C:5]1([H:10])[H:11])[H:6]>>[C:1]1([H:6])=[C:2]=[C:3]([H:7])[C:4]([H:8])([H:9])[C:5]1([H:10])[H:11]"
C        1.47200463       0.28084950       0.18226350
C        1.52234573       0.15626175      -1.11186813
C        0.07507180       0.36692540      -0.87834070
C       -0.90639726      -0.65011004      -0.43557160
C       -0.36299277      -0.04591220       0.82329124
H        2.00902643       0.60459969       1.05584540
H       -0.33759585       1.33466474      -1.15771113
H       -1.93857197      -0.42604826      -0.67987823
H       -0.63482703      -1.68610250      -0.60906871
H       -0.91595708       0.78936024       1.23803650
H        0.01789337      -0.72448832       1.57300186
11
Frame=3 idx=001426 GeodesicLength=0.25303384432083775 rxn_smarts="[C:1](#[C:2][C:3]1([H:7])[C:4]([H:8])([H:9])[C:5]1([H:10])[H:11])[H:6]>>[C:1]1([H:6])=[C:2]=[C:3]([H:7])[C:4]([H:8])([H:9])[C:5]1([H:10])[H:11]"
C        1.48862032       0.28415834       0.19357070
C        1.50797974       0.16480576      -1.09965127
C        0.06494641       0.37647776      -0.88393130
C       -0.90583305      -0.65071769      -0.43705772
C       -0.36322411      -0.04087233       0.82201005
H        2.04958682       0.58509512       1.05991757
H       -0.35215354       1.33651758      -1.18086884
H       -1.94047670      -0.43572492      -0.68005705
H       -0.62895202      -1.68571921      -0.60873888
H       -0.92488893       0.78824953       1.23833083
H        0.00439505      -0.72226996       1.57647591
11
Frame=4 idx=001426 GeodesicLength=0.33731015490999083 rxn_smarts="[C:1](#[C:2][C:3]1([H:7])[C:4]([H:8])([H:9])[C:5]1([H:10])[H:11])[H:6]>>[C:1]1([H:6])=[C:2]=[C:3]([H:7])[C:4]([H:8])([H:9])[C:5]1([H:10])[H:11]"
C        1.50552734       0.28733912       0.20536434
C        1.49346627       0.17532306      -1.08642956
C        0.05433248       0.38626457      -0.88969816
C       -0.90512399      -0.65135345      -0.43844907
C       -0.36361374      -0.03535477       0.82072814
H        2.09141697       0.56297151       1.06333408
H       -0.36756862       1.33781443      -1.20493798
H       -1.94226254      -0.44599105      -0.68015901
H       -0.62239824      -1.68521521      -0.60820299
H       -0.93420122       0.78748804       1.23833819
H       -0.00957472      -0.71928625       1.58011203
11
Frame=5 idx=001426 GeodesicLength=0.4215137922509008 rxn_smarts="[C:1](#[C:2][C:3]1([H:7])[C:4]([H:8])([H:9])[C:5]1([H:10])[H:11])[H:6]>>[C:1]1([H:6])=[C:2]=[C:3]([H:7])[C:4]([H:8])([H:9])[C:5]1([H:10])[H:11]"
C        1.52274491       0.29038931       0.21772953
C        1.47879797       0.18792531      -1.07211799
C        0.04322017       0.39629761      -0.89562557
C       -0.90423879      -0.65200651      -0.43973136
C       -0.36418431      -0.02934096       0.81945747
H        2.13445682       0.53808107       1.06589612
H       -0.38384526       1.33848896      -1.22993816
H       -1.94388798      -0.45687193      -0.68017339
H       -0.61509083      -1.68454861      -0.60745493
H       -0.94393774       0.78707562       1.23804771
H       -0.02403496      -0.71548987       1.58391057
11
Frame=6 idx=001426 GeodesicLength=0.5056605752152817 rxn_smarts="[C:1](#[C:2][C:3]1([H:7])[C:4]([H:8])([H:9])[C:5]1([H:10])[H:11])[H:6]>>[C:1]1([H:6])=[C:2]=[C:3]([H:7])[C:4]([H:8])([H:9])[C:5]1([H:10])[H:11]"
C        1.54026609       0.29333954       0.23070472
C        1.46392793       0.20285202      -1.05653571
C        0.03158270       0.40660866      -0.90171335
C       -0.90312375      -0.65267588      -0.44088637
C       -0.36496409      -0.02277400       0.81822482
H        2.17869055       0.51005277       1.06738818
H       -0.40102769       1.33845836      -1.25595546
H       -1.94528454      -0.46844432      -0.68010908
H       -0.60689893      -1.68368834      -0.60645667
H       -0.95416430       0.78706015       1.23744586
H       -0.03900398      -0.71078897       1.58789306
11
Frame=7 idx=001426 GeodesicLength=0.589724662242515 rxn_smarts="[C:1](#[C:2][C:3]1([H:7])[C:4]([H:8])([H:9])[C:5]1([H:10])[H:11])[H:6]>>[C:1]1([H:6])=[C:2]=[C:3]([H:7])[C:4]([H:8])([H:9])[C:5]1([H:10])[H:11]"
C        1.55812589       0.29613977       0.24439174
C        1.44882759       0.22023274      -1.03953340
C        0.01943097       0.41720013      -0.90793240
C       -0.90174141      -0.65334108      -0.44189595
C       -0.36598693      -0.01564138       0.81705174
H        2.22397829       0.47881264       1.06749223
H       -0.41905875       1.33763261      -1.28300237
H       -1.94638883      -0.48071769      -0.67996273
H       -0.59775792      -1.68257728      -0.60520081
H       -0.96493038       0.78742900       1.23653046
H       -0.05449850      -0.70516947       1.59206148
11
Frame=8 idx=001426 GeodesicLength=0.6737927133450158 rxn_smarts="[C:1](#[C:2][C:3]1([H:7])[C:4]([H:8])([H:9])[C:5]1([H:10])[H:11])[H:6]>>[C:1]1([H:6])=[C:2]=[C:3]([H:7])[C:4]([H:8])([H:9])[C:5]1([H:10])[H:11]"
C        1.57632041       0.29877058       0.25881872
C        1.43338712       0.24030507      -1.02080145
C        0.00676339       0.42810996      -0.91427623
C       -0.90003370      -0.65400160      -0.44273737
C       -0.36728963      -0.00790935       0.81599075
H        2.27023832       0.44410950       1.06584743
H       -0.43788335       1.33594750      -1.31118786
H       -1.94711112      -0.49375498      -0.67977378
H       -0.58755046      -1.68119089      -0.60363272
H       -0.97629370       0.78821210       1.23531388
H       -0.07054727      -0.69859788       1.59643862
11
Frame=9 idx=001426 GeodesicLength=0.7578773683055043 rxn_smarts="[C:1](#[C:2][C:3]1([H:7])[C:4]([H:8])([H:9])[C:5]1([H:10])[H:11])[H:6]>>[C:1]1([H:6])=[C:2]=[C:3]([H:7])[C:4]([H:8])([H:9])[C:5]1([H:10])[H:11]"
C        1.59508162       0.30059276       0.27396496
C        1.41749510       0.26320842      -1.00025819
C       -0.00631530       0.43917309      -0.92071789
C       -0.89801222      -0.65456392      -0.44342244
C       -0.36886114       0.00039054       0.81500832
H        2.31691975       0.40667237       1.06224180
H       -0.45720545       1.33308571      -1.34027104
H       -1.94744050      -0.50733844      -0.67946647
H       -0.57638440      -1.67939075      -0.60191263
H       -0.98824425       0.78931559       1.23379879
H       -0.08703321      -0.69114537       1.60103479
11
Frame=10 idx=001426 GeodesicLength=0.8420119688372575 rxn_smarts="[C:1](#[C:2][C:3]1([H:7])[C:4]([H:8])([H:9])[C:5]1([H:10])[H:11])[H:6]>>[C:1]1([H:6])=[C:2]=[C:3]([H:7])[C:4]([H:8])([H:9])[C:5]1([H:10])[H:11]"
C        1.61427339       0.30169991       0.28991433
C        1.40108026       0.28911844      -0.97740251
C       -0.01980540       0.45049330      -0.92720231
C       -0.89562447      -0.65506338      -0.44392299
C       -0.37080770       0.00923733       0.81423678
H        2.36424568       0.36626046       1.05604495
H       -0.47693254       1.32910725      -1.37049563
H       -1.94726545      -0.52158082      -0.67917313
H       -0.56413136      -1.67720573      -0.59992528
H       -1.00087648       0.79077646       1.23204460
H       -0.10415592      -0.68284323       1.60588120
11
Frame=11 idx=001426 GeodesicLength=0.9260709999788871 rxn_smarts="[C:1](#[C:2][C:3]1([H:7])[C:4]([H:8])([H:9])[C:5]1([H:10])[H:11])[H:6]>>[C:1]1([H:6])=[C:2]=[C:3]([H:7])[C:4]([H:8])([H:9])[C:5]1([H:10])[H:11]"
C        1.63397594       0.30161446       0.30665405
C        1.38409519       0.31804837      -0.95201859
C       -0.03361608       0.46198308      -0.93367599
C       -0.89289497      -0.65545331      -0.44423848
C       -0.37315349       0.01854591       0.81371432
H        2.41193909       0.32358286       1.04693404
H       -0.49676165       1.32387422      -1.40176967
H       -1.94658478      -0.53631869      -0.67889847
H       -0.55090315      -1.67458236      -0.59775361
H       -1.01416817       0.79251451       1.23010023
H       -0.12192792      -0.67380905       1.61095218
11
Frame=12 idx=001426 GeodesicLength=1.0100519984314071 rxn_smarts="[C:1](#[C:2][C:3]1([H:7])[C:4]([H:8])([H:9])[C:5]1([H:10])[H:11])[H:6]>>[C:1]1([H:6])=[C:2]=[C:3]([H:7])[C:4]([H:8])([H:9])[C:5]1([H:10])[H:11]"
C        1.65420443       0.30012054       0.32414092
C        1.36637329       0.35018468      -0.92371333
C       -0.04765480       0.47360185      -0.94008609
C       -0.88980146      -0.65570166      -0.44434330
C       -0.37598135       0.02829391       0.81351403
H        2.45987059       0.27882649       1.03442643
H       -0.51638607       1.31723221      -1.43412682
H       -1.94533079      -0.55150331      -0.67869495
H       -0.53668422      -1.67146709      -0.59537293
H       -1.02822627       0.79448402       1.22799248
H       -0.14038335      -0.66407163       1.61626356
11
Frame=13 idx=001426 GeodesicLength=1.0939537996763893 rxn_smarts="[C:1](#[C:2][C:3]1([H:7])[C:4]([H:8])([H:9])[C:5]1([H:10])[H:11])[H:6]>>[C:1]1([H:6])=[C:2]=[C:3]([H:7])[C:4]([H:8])([H:9])[C:5]1([H:10])[H:11]"
C        1.67491275       0.29726829       0.34231311
C        1.34768125       0.38588184      -0.89190205
C       -0.06178312       0.48533036      -0.94635883
C       -0.88625058      -0.65580034      -0.44418797
C       -0.37940332       0.03853403       0.81374079
H        2.50774594       0.23165778       1.01775638
H       -0.53546886       1.30901576      -1.46768097
H       -1.94335965      -0.56717356      -0.67866826
H       -0.52131147      -1.66782968      -0.59265102
H       -1.04325223       0.79668171       1.22574287
H       -0.15951070      -0.65356620       1.62189595
11
Frame=14 idx=001426 GeodesicLength=1.1776390487973303 rxn_smarts="[C:1](#[C:2][C:3]1([H:7])[C:4]([H:8])([H:9])[C:5]1([H:10])[H:11])[H:6]>>[C:1]1([H:6])=[C:2]=[C:3]([H:7])[C:4]([H:8])([H:9])[C:5]1([H:10])[H:11]"
C        1.69609671       0.29272806       0.36097982
C        1.32787628       0.42488304      -0.85617137
C       -0.07581054       0.49704632      -0.95238817
C       -0.88233016      -0.65568598      -0.44376767
C       -0.38352191       0.04911482       0.81449953
H        2.55536052       0.18311200       0.99642982
H       -0.55331783       1.29909026      -1.50233855
H       -1.94070161      -0.58306130      -0.67891678
H       -0.50504683      -1.66363762      -0.58963159
H       -1.05931569       0.79892592       1.22346636
H       -0.17928894      -0.64251552       1.62783859
11
Frame=15 idx=001426 GeodesicLength=1.2611181954055526 rxn_smarts="[C:1](#[C:2][C:3]1([H:7])[C:4]([H:8])([H:9])[C:5]1([H:10])[H:11])[H:6]>>[C:1]1([H:6])=[C:2]=[C:3]([H:7])[C:4]([H:8])([H:9])[C:5]1([H:10])[H:11]"
C        1.71775848       0.28590638       0.37975109
C        1.30675378       0.46658920      -0.81604580
C       -0.08943189       0.50855144      -0.95804461
C       -0.87824472      -0.65527685      -0.44310918
C       -0.38845920       0.05976216       0.81592328
H        2.60267043       0.13507108       0.97006509
H       -0.56898610       1.28737400      -1.53798771
H       -1.93749415      -0.59867265      -0.67960647
H       -0.48844012      -1.65891555      -0.58640279
H       -1.07641738       0.80099084       1.22136398
H       -0.19970912      -0.63138003       1.63409312
11
Frame=16 idx=001426 GeodesicLength=1.3444032914427313 rxn_smarts="[C:1](#[C:2][C:3]1([H:7])[C:4]([H:8])([H:9])[C:5]1([H:10])[H:11])[H:6]>>[C:1]1([H:6])=[C:2]=[C:3]([H:7])[C:4]([H:8])([H:9])[C:5]1([H:10])[H:11]"
C        1.73973393       0.27735740       0.39836124
C        1.28405789       0.51063741      -0.77097433
C       -0.10234135       0.51978323      -0.96312976
C       -0.87399156      -0.65452781      -0.44216393
C       -0.39445504       0.07041466       0.81822199
H        2.64942683       0.08767372       0.93771006
H       -0.58156953       1.27372372      -1.57464882
H       -1.93365387      -0.61383294      -0.68097910
H       -0.47155838      -1.65366056      -0.58279560
H       -1.09493560       0.80270722       1.21958493
H       -0.22071332      -0.62027605       1.64081332
