12
Frame=0 idx=007321 GeodesicLength=0.0 rxn_smarts="[O:1]([C:2]([c:3]1[n:4][n:5]([H:11])[c:6]([H:12])[n:7]1)([H:9])[H:10])[H:8]>>[O:1][C:2]([C:3]1=[N:7][C:6]([H:8])([H:12])[N:5]([H:11])[N:4]1)([H:9])[H:10]"
O       -1.24920568       0.97241627       0.32470461
C       -1.74464302      -0.27690432       0.00893140
C       -0.35043933      -0.82629646      -0.21072520
N        0.26808912      -0.15888565      -1.29051166
N        1.34497865       0.27145981      -0.80003200
C        1.32156841       0.08744312       0.62004941
N        0.44418853      -0.95515263       0.82835846
H        0.37365248       0.90879355       0.79639661
H       -2.34617809      -0.29043225      -0.90893737
H       -2.26060484      -0.79644017       0.82318451
H        1.94134001       0.87558343      -1.34857428
H        2.25725372       0.18841530       1.15715550
12
Frame=1 idx=007321 GeodesicLength=0.08624840054824875 rxn_smarts="[O:1]([C:2]([c:3]1[n:4][n:5]([H:11])[c:6]([H:12])[n:7]1)([H:9])[H:10])[H:8]>>[O:1][C:2]([C:3]1=[N:7][C:6]([H:8])([H:12])[N:5]([H:11])[N:4]1)([H:9])[H:10]"
O       -1.25764750       0.97814797       0.31888572
C       -1.74474615      -0.27728966       0.00914602
C       -0.35031741      -0.82270100      -0.21557977
N        0.26458203      -0.14452568      -1.28820792
N        1.35232513       0.26880785      -0.79883972
C        1.32110895       0.08867997       0.62092049
N        0.45076484      -0.96298684       0.81820797
H        0.35483311       0.92972370       0.79980657
H       -2.35297800      -0.30548463      -0.90373148
H       -2.25325856      -0.79382163       0.82981997
H        1.95520641       0.86721313      -1.34589226
H        2.26012714       0.17423681       1.15546440
12
Frame=2 idx=007321 GeodesicLength=0.17242395405591315 rxn_smarts="[O:1]([C:2]([c:3]1[n:4][n:5]([H:11])[c:6]([H:12])[n:7]1)([H:9])[H:10])[H:8]>>[O:1][C:2]([C:3]1=[N:7][C:6]([H:8])([H:12])[N:5]([H:11])[N:4]1)([H:9])[H:10]"
O       -1.26619549       0.98395214       0.31284500
C       -1.74478682      -0.27760154       0.00932466
C       -0.35015970      -0.81905650      -0.22034264
N        0.26126808      -0.13025789      -1.28567233
N        1.35963735       0.26604456      -0.79760698
C        1.32091704       0.08940118       0.62177123
N        0.45736222      -0.97094617       0.80794912
H        0.33564255       0.95113035       0.80306083
H       -2.35949324      -0.32069432      -0.89839293
H       -2.24581109      -0.79094900       0.83642963
H        1.96858323       0.85918585      -1.34304115
H        2.26303588       0.15979133       1.15367557
12
Frame=3 idx=007321 GeodesicLength=0.25855350212013295 rxn_smarts="[O:1]([C:2]([c:3]1[n:4][n:5]([H:11])[c:6]([H:12])[n:7]1)([H:9])[H:10])[H:8]>>[O:1][C:2]([C:3]1=[N:7][C:6]([H:8])([H:12])[N:5]([H:11])[N:4]1)([H:9])[H:10]"
O       -1.27486214       0.98982501       0.30656954
C       -1.74476708      -0.27784502       0.00947365
C       -0.34996634      -0.81536052      -0.22501371
N        0.25814570      -0.11607749      -1.28290347
N        1.36691461       0.26318566      -0.79632965
C        1.32099957       0.08958435       0.62260498
N        0.46397869      -0.97905670       0.79756879
H        0.31604565       0.97307651       0.80613382
H       -2.36572804      -0.33607125      -0.89290581
H       -2.23825652      -0.78781963       0.84302590
H        1.98150184       0.85151057      -1.34001556
H        2.26599409       0.14504853       1.15179153
12
Frame=4 idx=007321 GeodesicLength=0.34465902532143544 rxn_smarts="[O:1]([C:2]([c:3]1[n:4][n:5]([H:11])[c:6]([H:12])[n:7]1)([H:9])[H:10])[H:8]>>[O:1][C:2]([C:3]1=[N:7][C:6]([H:8])([H:12])[N:5]([H:11])[N:4]1)([H:9])[H:10]"
O       -1.28366252       0.99576326       0.30004011
C       -1.74469033      -0.27802585       0.00960010
C       -0.34973691      -0.81160851      -0.22959293
N        0.25521277      -0.10197695      -1.27990190
N        1.37415907       0.26024563      -0.79500607
C        1.32136679       0.08920477       0.62342233
N        0.47061122      -0.98733811       0.78705491
H        0.29599934       0.99562212       0.80900223
H       -2.37169095      -0.35162746      -0.88725381
H       -2.23058905      -0.78443046       0.84962401
H        1.99399404       0.84419824      -1.33680666
H        2.26902652       0.12997332       1.14981769
12
Frame=5 idx=007321 GeodesicLength=0.430748228240146 rxn_smarts="[O:1]([C:2]([c:3]1[n:4][n:5]([H:11])[c:6]([H:12])[n:7]1)([H:9])[H:10])[H:8]>>[O:1][C:2]([C:3]1=[N:7][C:6]([H:8])([H:12])[N:5]([H:11])[N:4]1)([H:9])[H:10]"
O       -1.29261372       1.00176157       0.29324472
C       -1.74455659      -0.27814687       0.00970714
C       -0.34946989      -0.80779583      -0.23407572
N        0.25247222      -0.08794562      -1.27665550
N        1.38136774       0.25723725      -0.79363165
C        1.32202916       0.08823665       0.62422782
N        0.47725770      -0.99581618       0.77639560
H        0.27546028       1.01883539       0.81163525
H       -2.37737115      -0.36737674      -0.88141694
H       -2.22280256      -0.78077376       0.85623047
H        2.00607923       0.83726027      -1.33340929
H        2.27214759       0.11452387       1.14774809
12
Frame=6 idx=007321 GeodesicLength=0.5168517866935002 rxn_smarts="[O:1]([C:2]([c:3]1[n:4][n:5]([H:11])[c:6]([H:12])[n:7]1)([H:9])[H:10])[H:8]>>[O:1][C:2]([C:3]1=[N:7][C:6]([H:8])([H:12])[N:5]([H:11])[N:4]1)([H:9])[H:10]"
O       -1.30173736       1.00781608       0.28616599
C       -1.74436607      -0.27821384       0.00980269
C       -0.34916344      -0.80391547      -0.23845900
N        0.24992435      -0.07396946      -1.27315310
N        1.38854150       0.25417752      -0.79219822
C        1.32299739       0.08665203       0.62502800
N        0.48391746      -1.00451929       0.76557320
H        0.25437547       1.04280101       0.81399177
H       -2.38276748      -0.38333624      -0.87537628
H       -2.21488634      -0.77684471       0.86285893
H        2.01778475       0.83070666      -1.32980970
H        2.27537978       0.09864571       1.14557572
12
Frame=7 idx=007321 GeodesicLength=0.6029843122107986 rxn_smarts="[O:1]([C:2]([c:3]1[n:4][n:5]([H:11])[c:6]([H:12])[n:7]1)([H:9])[H:10])[H:8]>>[O:1][C:2]([C:3]1=[N:7][C:6]([H:8])([H:12])[N:5]([H:11])[N:4]1)([H:9])[H:10]"
O       -1.31105738       1.01392406       0.27877729
C       -1.74412265      -0.27823571       0.00989618
C       -0.34881546      -0.79995738      -0.24274259
N        0.24756771      -0.06002764      -1.26939002
N        1.39568694       0.25108693      -0.79069720
C        1.32428382       0.08442237       0.62582771
N        0.49058847      -1.01346958       0.75456657
H        0.23268367       1.06760060       0.81602654
H       -2.38788897      -0.39952789      -0.86910523
H       -2.20682914      -0.77263937       0.86953035
H        2.02914872       0.82454682      -1.32598841
H        2.27875427       0.08227679       1.14329882
12
Frame=8 idx=007321 GeodesicLength=0.6891714829351587 rxn_smarts="[O:1]([C:2]([c:3]1[n:4][n:5]([H:11])[c:6]([H:12])[n:7]1)([H:9])[H:10])[H:8]>>[O:1][C:2]([C:3]1=[N:7][C:6]([H:8])([H:12])[N:5]([H:11])[N:4]1)([H:9])[H:10]"
O       -1.32060295       1.02007964       0.27105341
C       -1.74382572      -0.27821774       0.00999567
C       -0.34842265      -0.79591112      -0.24692354
N        0.24540537      -0.04609779      -1.26534961
N        1.40280838       0.24798410      -0.78911633
C        1.32590235       0.08151154       0.62663453
N        0.49727020      -1.02269886       0.74335167
H        0.21031555       1.09333005       0.81768540
H       -2.39273005      -0.41597844      -0.86257408
H       -2.19861559      -0.76814292       0.87626169
H        2.04019727       0.81879638      -1.32192365
H        2.28229785       0.06534514       1.14090485
12
Frame=9 idx=007321 GeodesicLength=0.7753566160677221 rxn_smarts="[O:1]([C:2]([c:3]1[n:4][n:5]([H:11])[c:6]([H:12])[n:7]1)([H:9])[H:10])[H:8]>>[O:1][C:2]([C:3]1=[N:7][C:6]([H:8])([H:12])[N:5]([H:11])[N:4]1)([H:9])[H:10]"
O       -1.33039566       1.02628288       0.26296982
C       -1.74347957      -0.27817237       0.01011132
C       -0.34798280      -0.79176718      -0.25100412
N        0.24343449      -0.03215305      -1.26102539
N        1.40990988       0.24488707      -0.78744756
C        1.32786431       0.07788998       0.62745242
N        0.50395915      -1.03222583       0.73190738
H        0.18722032       1.12007035       0.81892273
H       -2.39730247      -0.43270564      -0.85576259
H       -2.19023261      -0.76335942       0.88307584
H        2.05096389       0.81346060      -1.31759653
H        2.28604108       0.04779261       1.13839667
12
Frame=10 idx=007321 GeodesicLength=0.8615906633485935 rxn_smarts="[O:1]([C:2]([c:3]1[n:4][n:5]([H:11])[c:6]([H:12])[n:7]1)([H:9])[H:10])[H:8]>>[O:1][C:2]([C:3]1=[N:7][C:6]([H:8])([H:12])[N:5]([H:11])[N:4]1)([H:9])[H:10]"
O       -1.34047454       1.03252539       0.25449145
C       -1.74307968      -0.27809957       0.01025514
C       -0.34749065      -0.78750896      -0.25497717
N        0.24166299      -0.01816459      -1.25639084
N        1.41700064       0.24181969      -0.78566842
C        1.33018893       0.07350966       0.62829479
N        0.51065729      -1.04209266       0.72019778
H        0.16329886       1.14793975       0.81965509
H       -2.40158833      -0.44975049      -0.84862587
H       -2.18165658      -0.75826016       0.88999512
H        2.06147327       0.80856737      -1.31296966
H        2.29000779       0.02951458       1.13574260
12
Frame=11 idx=007321 GeodesicLength=0.947875467423465 rxn_smarts="[O:1]([C:2]([c:3]1[n:4][n:5]([H:11])[c:6]([H:12])[n:7]1)([H:9])[H:10])[H:8]>>[O:1][C:2]([C:3]1=[N:7][C:6]([H:8])([H:12])[N:5]([H:11])[N:4]1)([H:9])[H:10]"
O       -1.35087458       1.03880228       0.24557868
C       -1.74262626      -0.27800831       0.01044302
C       -0.34694091      -0.78312047      -0.25884296
N        0.24009531      -0.00409660      -1.25142749
N        1.42409276       0.23880539      -0.78376014
C        1.33289545       0.06832178       0.62916981
N        0.51736479      -1.05233268       0.70818507
H        0.13845451       1.17704903       0.81979785
H       -2.40559316      -0.46714337      -0.84112307
H       -2.17286191      -0.75283047       0.89705245
H        2.07176020       0.80413833      -1.30800428
H        2.29423379       0.01041508       1.13293107
12
Frame=12 idx=007321 GeodesicLength=1.0342068852507522 rxn_smarts="[O:1]([C:2]([c:3]1[n:4][n:5]([H:11])[c:6]([H:12])[n:7]1)([H:9])[H:10])[H:8]>>[O:1][C:2]([C:3]1=[N:7][C:6]([H:8])([H:12])[N:5]([H:11])[N:4]1)([H:9])[H:10]"
O       -1.36163842       1.04510629       0.23619143
C       -1.74211530      -0.27790638       0.01068971
C       -0.34632712      -0.77858333      -0.26259368
N        0.23873921       0.01008805      -1.24610241
N        1.43119565       0.23587086      -0.78169675
C        1.33600629       0.06226956       0.63008907
N        0.52408260      -1.06298585       0.69582685
H        0.11258281       1.20752219       0.81925064
H       -2.40930429      -0.48491948      -0.83320569
H       -2.16382027      -0.74704595       0.90427495
H        2.08185145       0.80020206      -1.30265445
H        2.29874740      -0.00961802       1.12993033
12
Frame=13 idx=007321 GeodesicLength=1.120549228964409 rxn_smarts="[O:1]([C:2]([c:3]1[n:4][n:5]([H:11])[c:6]([H:12])[n:7]1)([H:9])[H:10])[H:8]>>[O:1][C:2]([C:3]1=[N:7][C:6]([H:8])([H:12])[N:5]([H:11])[N:4]1)([H:9])[H:10]"
O       -1.37280506       1.05143203       0.22628138
C       -1.74154639      -0.27780253       0.01101537
C       -0.34564284      -0.77387831      -0.26623048
N        0.23759980       0.02443327      -1.24039389
N        1.43832401       0.23304471      -0.77945151
C        1.33954195       0.05529190       0.63106159
N        0.53081069      -1.07409078       0.68307279
H        0.08557245       1.23947708       0.81790320
H       -2.41272667      -0.50311620      -0.82482180
H       -2.15449842      -0.74088352       0.91170545
H        2.09178412       0.79678965      -1.29686409
H        2.30358636      -0.03069729       1.12672197
12
Frame=14 idx=007321 GeodesicLength=1.2068947857694206 rxn_smarts="[O:1]([C:2]([c:3]1[n:4][n:5]([H:11])[c:6]([H:12])[n:7]1)([H:9])[H:10])[H:8]>>[O:1][C:2]([C:3]1=[N:7][C:6]([H:8])([H:12])[N:5]([H:11])[N:4]1)([H:9])[H:10]"
O       -1.38442447       1.05777062       0.21579707
C       -1.74091098      -0.27770031       0.01144043
C       -0.34487997      -0.76898249      -0.26974613
N        0.23669200       0.03898605      -1.23425582
N        1.44549119       0.23035721      -0.77698805
C        1.34352660       0.04731281       0.63210123
N        0.53755281      -1.08570496       0.66985515
H        0.05728760       1.27305740       0.81561552
H       -2.41584087      -0.52177903      -0.81589888
H       -2.14485379      -0.73430202       0.91937932
H        2.10158304       0.79394492      -1.29056630
H        2.30877685      -0.05296020       1.12326647
12
Frame=15 idx=007321 GeodesicLength=1.2931909277850562 rxn_smarts="[O:1]([C:2]([c:3]1[n:4][n:5]([H:11])[c:6]([H:12])[n:7]1)([H:9])[H:10])[H:8]>>[O:1][C:2]([C:3]1=[N:7][C:6]([H:8])([H:12])[N:5]([H:11])[N:4]1)([H:9])[H:10]"
O       -1.39654667       1.06411206       0.20467680
C       -1.74020421      -0.27760565       0.01198994
C       -0.34402957      -0.76387118      -0.27313846
N        0.23602783       0.05380048      -1.22764972
N        1.45271420       0.22784397      -0.77426804
C        1.34798566       0.03825153       0.63321837
N        0.54430970      -1.09787592       0.65610352
H        0.02758593       1.30839439       0.81223799
H       -2.41864085      -0.54095333      -0.80636155
H       -2.13484004      -0.72726095       0.92734656
H        2.11128509       0.79171456      -1.28368148
H        2.31435293      -0.07654995       1.11952608
12
Frame=16 idx=007321 GeodesicLength=1.3793968187232852 rxn_smarts="[O:1]([C:2]([c:3]1[n:4][n:5]([H:11])[c:6]([H:12])[n:7]1)([H:9])[H:10])[H:8]>>[O:1][C:2]([C:3]1=[N:7][C:6]([H:8])([H:12])[N:5]([H:11])[N:4]1)([H:9])[H:10]"
O       -1.40922779       1.07044609       0.19285145
C       -1.73941530      -0.27752201       0.01269451
C       -0.34308161      -0.75851716      -0.27640285
N        0.23562462       0.06893571      -1.22052280
N        1.46001158       0.22554327      -0.77124397
C        1.35294577       0.02801197       0.63442454
N        0.55108488      -1.11066573       0.64172818
H       -0.00369829       1.34563579       0.80759163
H       -2.42111278      -0.56069161      -0.79612046
H       -2.12439929      -0.71970457       0.93566110
H        2.12092202       0.79015844      -1.27611406
H        2.32034620      -0.10163019       1.11545273
