15
Frame=0 idx=011143 GeodesicLength=0.0 rxn_smarts="[C:1]([C:2]([C@@:3]1([C:6]#[C:7][H:15])[C:4]([H:13])([H:14])[O:5]1)([H:11])[H:12])([H:8])([H:9])[H:10]>>[C:1]([C:2]([C+:3]1[C:4]([H:13])([H:14])[O:5][C:6]1=[C-:7][H:15])([H:11])[H:12])([H:8])([H:9])[H:10]"
C       -1.99282507      -0.53166516       0.05899709
C       -0.55053753      -0.88961482       0.39355973
C        0.43964322       0.12805482      -0.01194557
C        0.34153924       1.56386026      -0.25213125
O        1.61930303       1.94666630      -0.38904453
C        1.81046347      -0.07335189      -0.15794259
C        2.80653870      -0.82429250      -0.18820659
H       -2.66830264      -1.30552160       0.42270557
H       -2.13515683      -0.44126874      -1.01864677
H       -2.28746199       0.41285783       0.51848288
H       -0.42626716      -1.00710629       1.47897983
H       -0.24966254      -1.85275428      -0.02660977
H       -0.34533565       1.71261936      -1.12441849
H       -0.23441667       2.01975830       0.59069591
H        3.87247847      -0.85824156      -0.29447550
15
Frame=1 idx=011143 GeodesicLength=0.07358209437119217 rxn_smarts="[C:1]([C:2]([C@@:3]1([C:6]#[C:7][H:15])[C:4]([H:13])([H:14])[O:5]1)([H:11])[H:12])([H:8])([H:9])[H:10]>>[C:1]([C:2]([C+:3]1[C:4]([H:13])([H:14])[O:5][C:6]1=[C-:7][H:15])([H:11])[H:12])([H:8])([H:9])[H:10]"
C       -1.98371590      -0.54892828       0.03972372
C       -0.54714857      -0.87131536       0.43075808
C        0.44100131       0.14383930       0.01126387
C        0.33504808       1.57855333      -0.22985014
O        1.63095518       1.93204869      -0.28586298
C        1.79938800      -0.07874825      -0.20452676
C        2.78217340      -0.84801737      -0.27729016
H       -2.65813646      -1.32361591       0.40396573
H       -2.09247601      -0.49045938      -1.04404390
H       -2.31085037       0.40177990       0.46322158
H       -0.45140729      -0.94297516       1.52269843
H       -0.22785237      -1.84873914       0.06000766
H       -0.30277267       1.73810676      -1.13378525
H       -0.26607195       2.03690860       0.59143558
H        3.85186561      -0.87843774      -0.34771547
15
Frame=2 idx=011143 GeodesicLength=0.14805387999165806 rxn_smarts="[C:1]([C:2]([C@@:3]1([C:6]#[C:7][H:15])[C:4]([H:13])([H:14])[O:5]1)([H:11])[H:12])([H:8])([H:9])[H:10]>>[C:1]([C:2]([C+:3]1[C:4]([H:13])([H:14])[O:5][C:6]1=[C-:7][H:15])([H:11])[H:12])([H:8])([H:9])[H:10]"
C       -1.97272770      -0.56778434       0.02017972
C       -0.54443159      -0.85256848       0.46707916
C        0.44188416       0.15924979       0.03322624
C        0.33012364       1.59349111      -0.20772302
O        1.64027020       1.91108753      -0.18599554
C        1.78561103      -0.08164101      -0.24651672
C        2.75419308      -0.86711265      -0.36298685
H       -2.64610578      -1.34250100       0.38636631
H       -2.04694670      -0.54318542      -1.06780490
H       -2.33055973       0.38854272       0.40440694
H       -0.47906627      -0.87798063       1.56295029
H       -0.20694804      -1.84175179       0.14731440
H       -0.25877179       1.76651323      -1.13899621
H       -0.29255854       2.05484704       0.59306218
H        3.82603404      -0.89920608      -0.40456200
15
Frame=3 idx=011143 GeodesicLength=0.22244648183916133 rxn_smarts="[C:1]([C:2]([C@@:3]1([C:6]#[C:7][H:15])[C:4]([H:13])([H:14])[O:5]1)([H:11])[H:12])([H:8])([H:9])[H:10]>>[C:1]([C:2]([C+:3]1[C:4]([H:13])([H:14])[O:5][C:6]1=[C-:7][H:15])([H:11])[H:12])([H:8])([H:9])[H:10]"
C       -1.96049891      -0.58763272       0.00125862
C       -0.54248415      -0.83396786       0.50102543
C        0.44223897       0.17388897       0.05253919
C        0.32640044       1.60839929      -0.18658669
O        1.64706235       1.88509545      -0.09500723
C        1.77042136      -0.08223360      -0.28396870
C        2.72425276      -0.88189475      -0.44224458
H       -2.63296077      -1.36176372       0.37049007
H       -2.00083509      -0.59673438      -1.08876580
H       -2.34669985       0.37305959       0.34510518
H       -0.50789947      -0.81463526       1.59807190
H       -0.18742838      -1.83182673       0.23136726
H       -0.21622622       1.79737142      -1.13981613
H       -0.31251095       2.07317718       0.59668374
H        3.79716790      -0.92030288      -0.46015227
15
Frame=4 idx=011143 GeodesicLength=0.297021623654164 rxn_smarts="[C:1]([C:2]([C@@:3]1([C:6]#[C:7][H:15])[C:4]([H:13])([H:14])[O:5]1)([H:11])[H:12])([H:8])([H:9])[H:10]>>[C:1]([C:2]([C+:3]1[C:4]([H:13])([H:14])[O:5][C:6]1=[C-:7][H:15])([H:11])[H:12])([H:8])([H:9])[H:10]"
C       -1.94746725      -0.60832208      -0.01770501
C       -0.54208753      -0.81542718       0.53342317
C        0.44183674       0.18750496       0.07048738
C        0.32419495       1.62286895      -0.16581770
O        1.65225512       1.85463668      -0.01182036
C        1.75445679      -0.08198952      -0.31498694
C        2.69335251      -0.89474533      -0.50974962
H       -2.61972244      -1.38078690       0.35553946
H       -1.95353703      -0.65203665      -1.10764062
H       -2.35965426       0.35592548       0.28358652
H       -0.53954660      -0.75221996       1.62900901
H       -0.17019986      -1.81935154       0.31380945
H       -0.17422141       1.82963257      -1.13669064
H       -0.32647076       2.09203803       0.60242804
H        3.76681101      -0.93772752      -0.52387215
15
Frame=5 idx=011143 GeodesicLength=0.3719472489750239 rxn_smarts="[C:1]([C:2]([C@@:3]1([C:6]#[C:7][H:15])[C:4]([H:13])([H:14])[O:5]1)([H:11])[H:12])([H:8])([H:9])[H:10]>>[C:1]([C:2]([C+:3]1[C:4]([H:13])([H:14])[O:5][C:6]1=[C-:7][H:15])([H:11])[H:12])([H:8])([H:9])[H:10]"
C       -1.93376990      -0.62967953      -0.03663896
C       -0.54348465      -0.79691960       0.56458583
C        0.44062638       0.20006500       0.08770198
C        0.32350954       1.63671396      -0.14527883
O        1.65615365       1.82061118       0.06480961
C        1.73821385      -0.08168219      -0.33943282
C        2.66175604      -0.90696603      -0.56688294
H       -2.60681023      -1.39918000       0.34144510
H       -1.90496286      -0.70911863      -1.12421595
H       -2.36938190       0.33733498       0.21973237
H       -0.57431993      -0.69068105       1.65605780
H       -0.15574480      -1.80447466       0.39501086
H       -0.13198010       1.86246027      -1.13039611
H       -0.33538406       2.11137078       0.60985374
H        3.73557899      -0.94985448      -0.59635168
15
Frame=6 idx=011143 GeodesicLength=0.4469492949720148 rxn_smarts="[C:1]([C:2]([C@@:3]1([C:6]#[C:7][H:15])[C:4]([H:13])([H:14])[O:5]1)([H:11])[H:12])([H:8])([H:9])[H:10]>>[C:1]([C:2]([C+:3]1[C:4]([H:13])([H:14])[O:5][C:6]1=[C-:7][H:15])([H:11])[H:12])([H:8])([H:9])[H:10]"
C       -1.91955308      -0.65139452      -0.05439109
C       -0.54572365      -0.77874882       0.59317100
C        0.43876965       0.21196397       0.10261950
C        0.32361072       1.65034681      -0.12556806
O        1.65865167       1.78460612       0.13285595
C        1.72152228      -0.08073748      -0.36196474
C        2.62949906      -0.91783769      -0.61955203
H       -2.59372347      -1.41727161       0.32915465
H       -1.85711308      -0.76590517      -1.13744329
H       -2.37583614       0.31705283       0.15699867
H       -0.60925705      -0.63173097       1.67812681
H       -0.14334739      -1.78743104       0.47160475
H       -0.09155219       1.89637526      -1.12118695
H       -0.33944659       2.13084539       0.61951857
H        3.70349926      -0.96013309      -0.66394376
15
Frame=7 idx=011143 GeodesicLength=0.5223353647601332 rxn_smarts="[C:1]([C:2]([C@@:3]1([C:6]#[C:7][H:15])[C:4]([H:13])([H:14])[O:5]1)([H:11])[H:12])([H:8])([H:9])[H:10]>>[C:1]([C:2]([C+:3]1[C:4]([H:13])([H:14])[O:5][C:6]1=[C-:7][H:15])([H:11])[H:12])([H:8])([H:9])[H:10]"
C       -1.90464534      -0.67366222      -0.07167113
C       -0.54929416      -0.76054274       0.62052698
C        0.43630181       0.22327200       0.11700697
C        0.32471081       1.66361482      -0.10615328
O        1.66003463       1.74710715       0.19524768
C        1.70487366      -0.07970188      -0.38029532
C        2.59657171      -0.92825202      -0.66683665
H       -2.58072994      -1.43507850       0.31749294
H       -1.80830051      -0.82323484      -1.14796547
H       -2.37936140       0.29499830       0.09354933
H       -0.64618423      -0.57404133       1.69655751
H       -0.13320475      -1.76818596       0.54634058
H       -0.05099507       1.93035296      -1.10976655
H       -0.33991346       2.15075478       0.63053055
H        3.67013624      -0.96740052      -0.73456415
15
Frame=8 idx=011143 GeodesicLength=0.5981401017859534 rxn_smarts="[C:1]([C:2]([C@@:3]1([C:6]#[C:7][H:15])[C:4]([H:13])([H:14])[O:5]1)([H:11])[H:12])([H:8])([H:9])[H:10]>>[C:1]([C:2]([C+:3]1[C:4]([H:13])([H:14])[O:5][C:6]1=[C-:7][H:15])([H:11])[H:12])([H:8])([H:9])[H:10]"
C       -1.88931360      -0.69634724      -0.08806229
C       -0.55387026      -0.74250372       0.64602669
C        0.43314319       0.23403621       0.12991290
C        0.32664323       1.67666603      -0.08706060
O        1.66038037       1.70841087       0.25239733
C        1.68810940      -0.07851462      -0.39648809
C        2.56328967      -0.93793366      -0.71032111
H       -2.56810008      -1.45209638       0.30752039
H       -1.75961538      -0.88160583      -1.15529216
H       -2.37969561       0.27152756       0.02973104
H       -0.68390121      -0.51801816       1.71089963
H       -0.12523586      -1.74714049       0.61810661
H       -0.01043799       1.96488786      -1.09620299
H       -0.33711743       2.17074234       0.64310121
H        3.63572154      -0.97211077      -0.80426857
15
Frame=9 idx=011143 GeodesicLength=0.6742351087219678 rxn_smarts="[C:1]([C:2]([C@@:3]1([C:6]#[C:7][H:15])[C:4]([H:13])([H:14])[O:5]1)([H:11])[H:12])([H:8])([H:9])[H:10]>>[C:1]([C:2]([C+:3]1[C:4]([H:13])([H:14])[O:5][C:6]1=[C-:7][H:15])([H:11])[H:12])([H:8])([H:9])[H:10]"
C       -1.87346789      -0.71939341      -0.10350655
C       -0.55925121      -0.72454372       0.66982621
C        0.42946595       0.24449489       0.14165599
C        0.32913538       1.68958878      -0.06844840
O        1.65970801       1.66926422       0.30421756
C        1.67127030      -0.07698727      -0.41119702
C        2.52947655      -0.94687132      -0.75122341
H       -2.55540938      -1.46901780       0.29838205
H       -1.71092967      -0.93945419      -1.15960393
H       -2.37737824       0.24624059      -0.03309860
H       -0.72209889      -0.46383895       1.72150191
H       -0.11899438      -1.72430420       0.68678067
H        0.02983204       1.99963664      -1.08086553
H       -0.33147972       2.19089098       0.65698814
H        3.60012114      -0.97570525      -0.87140908
15
Frame=10 idx=011143 GeodesicLength=0.7511877694093672 rxn_smarts="[C:1]([C:2]([C@@:3]1([C:6]#[C:7][H:15])[C:4]([H:13])([H:14])[O:5]1)([H:11])[H:12])([H:8])([H:9])[H:10]>>[C:1]([C:2]([C+:3]1[C:4]([H:13])([H:14])[O:5][C:6]1=[C-:7][H:15])([H:11])[H:12])([H:8])([H:9])[H:10]"
C       -1.85672180      -0.74330683      -0.11865772
C       -0.56587407      -0.70624228       0.69279904
C        0.42518585       0.25476191       0.15320454
C        0.33254650       1.70248077      -0.04947156
O        1.65828210       1.62954623       0.35286409
C        1.65441151      -0.07544634      -0.42326017
C        2.49460297      -0.95531907      -0.79003839
H       -2.54299718      -1.48539359       0.28990081
H       -1.66056699      -0.99952850      -1.16083446
H       -2.37170931       0.21892432      -0.09815161
H       -0.76242180      -0.40989123       1.72880712
H       -0.11486042      -1.69930050       0.75497413
H        0.07116771       2.03456610      -1.06329557
H       -0.32319251       2.21143290       0.67242967
H        3.56214744      -0.97728389      -0.94126992
15
Frame=11 idx=011143 GeodesicLength=0.8292410387265 rxn_smarts="[C:1]([C:2]([C@@:3]1([C:6]#[C:7][H:15])[C:4]([H:13])([H:14])[O:5]1)([H:11])[H:12])([H:8])([H:9])[H:10]>>[C:1]([C:2]([C+:3]1[C:4]([H:13])([H:14])[O:5][C:6]1=[C-:7][H:15])([H:11])[H:12])([H:8])([H:9])[H:10]"
C       -1.83878873      -0.76827376      -0.13358279
C       -0.57380698      -0.68739791       0.71515765
C        0.42035305       0.26498567       0.16486700
C        0.33688765       1.71542575      -0.03000051
O        1.65619004       1.58947407       0.39874845
C        1.63747292      -0.07391635      -0.43288310
C        2.45816116      -0.96317987      -0.82794731
H       -2.53059323      -1.50158164       0.28155584
H       -1.60786276      -1.06165972      -1.15873542
H       -2.36246078       0.18905030      -0.16547245
H       -0.80521577      -0.35583413       1.73277656
H       -0.11289170      -1.67183323       0.82328403
H        0.11382054       2.06959308      -1.04345115
H       -0.31231931       2.23246463       0.68944932
H        3.52105391      -0.97731687      -1.01376610
15
Frame=12 idx=011143 GeodesicLength=0.9082964594567018 rxn_smarts="[C:1]([C:2]([C@@:3]1([C:6]#[C:7][H:15])[C:4]([H:13])([H:14])[O:5]1)([H:11])[H:12])([H:8])([H:9])[H:10]>>[C:1]([C:2]([C+:3]1[C:4]([H:13])([H:14])[O:5][C:6]1=[C-:7][H:15])([H:11])[H:12])([H:8])([H:9])[H:10]"
C       -1.81978691      -0.79415036      -0.14806432
C       -0.58303300      -0.66810161       0.73662634
C        0.41499689       0.27511593       0.17642590
C        0.34212745       1.72834461      -0.01018119
O        1.65338540       1.54910918       0.44218363
C        1.62057564      -0.07247411      -0.44038417
C        2.42056942      -0.97044071      -0.86445535
H       -2.51841655      -1.51733577       0.27346204
H       -1.55333901      -1.12555309      -1.15286489
H       -2.34936331       0.15663593      -0.23459217
H       -0.85005162      -0.30197807       1.73310896
H       -0.11332037      -1.64203443       0.89115835
H        0.15792962       2.10446834      -1.02153040
H       -0.29908286       2.25377288       0.70779186
H        3.47680922      -0.97537871      -1.08868459
15
Frame=13 idx=011143 GeodesicLength=0.9880355284138995 rxn_smarts="[C:1]([C:2]([C@@:3]1([C:6]#[C:7][H:15])[C:4]([H:13])([H:14])[O:5]1)([H:11])[H:12])([H:8])([H:9])[H:10]>>[C:1]([C:2]([C+:3]1[C:4]([H:13])([H:14])[O:5][C:6]1=[C-:7][H:15])([H:11])[H:12])([H:8])([H:9])[H:10]"
C       -1.79983243      -0.82063604      -0.16189447
C       -0.59351574      -0.64842016       0.75697196
C        0.40925192       0.28506539       0.18782169
C        0.34818483       1.74103881       0.00960892
O        1.64982936       1.50865310       0.48301000
C        1.60384482      -0.07131617      -0.44598168
C        2.38256417      -0.97745435      -0.89816448
H       -2.50622129      -1.53303132       0.26511063
H       -1.49758046      -1.18947316      -1.14329382
H       -2.33278129       0.12167115      -0.30385398
H       -0.89641507      -0.24871638       1.72964971
H       -0.11630787      -1.61005115       0.95792465
H        0.20326843       2.13852793      -0.99798435
H       -0.28360851       2.27514187       0.72698452
H        3.42931913      -0.97099953      -1.16590929
15
Frame=14 idx=011143 GeodesicLength=1.0687402201305454 rxn_smarts="[C:1]([C:2]([C@@:3]1([C:6]#[C:7][H:15])[C:4]([H:13])([H:14])[O:5]1)([H:11])[H:12])([H:8])([H:9])[H:10]>>[C:1]([C:2]([C+:3]1[C:4]([H:13])([H:14])[O:5][C:6]1=[C-:7][H:15])([H:11])[H:12])([H:8])([H:9])[H:10]"
C       -1.77901543      -0.84787511      -0.17487270
C       -0.60510789      -0.62841160       0.77596084
C        0.40297638       0.29492832       0.19852075
C        0.35502377       1.75366905       0.02949082
O        1.64538093       1.46796574       0.52181745
C        1.58719961      -0.07014712      -0.45043316
C        2.34368800      -0.98343389      -0.93146563
H       -2.49431860      -1.54827337       0.25717977
H       -1.44089102      -1.25434245      -1.12939453
H       -2.31226972       0.08404419      -0.37362668
H       -0.94394845      -0.19608909       1.72211770
H       -0.12173849      -1.57593813       1.02330918
H        0.25039077       2.17234492      -0.97256811
H       -0.26613387       2.29639944       0.74717772
H        3.37876402      -0.96484090      -1.24321344
15
Frame=15 idx=011143 GeodesicLength=1.150157309892223 rxn_smarts="[C:1]([C:2]([C@@:3]1([C:6]#[C:7][H:15])[C:4]([H:13])([H:14])[O:5]1)([H:11])[H:12])([H:8])([H:9])[H:10]>>[C:1]([C:2]([C+:3]1[C:4]([H:13])([H:14])[O:5][C:6]1=[C-:7][H:15])([H:11])[H:12])([H:8])([H:9])[H:10]"
C       -1.75757937      -0.87561525      -0.18677489
C       -0.61764602      -0.60821210       0.79330168
C        0.39621898       0.30467282       0.20819768
C        0.36250483       1.76615603       0.04922954
O        1.63997390       1.42712801       0.55833088
C        1.57063273      -0.06891366      -0.45437069
C        2.30428271      -0.98829638      -0.96434655
H       -2.48274164      -1.56307814       0.24965871
H       -1.38407044      -1.31922055      -1.11115725
H       -2.28815209       0.04389593      -0.44277529
H       -0.99195956      -0.14451137       1.71043674
H       -0.12950592      -1.53995865       1.08654070
H        0.29898557       2.20568393      -0.94542961
H       -0.24678983       2.31726426       0.76824365
H        3.32584615      -0.95699489      -1.31908531
15
Frame=16 idx=011143 GeodesicLength=1.2319940000460141 rxn_smarts="[C:1]([C:2]([C@@:3]1([C:6]#[C:7][H:15])[C:4]([H:13])([H:14])[O:5]1)([H:11])[H:12])([H:8])([H:9])[H:10]>>[C:1]([C:2]([C+:3]1[C:4]([H:13])([H:14])[O:5][C:6]1=[C-:7][H:15])([H:11])[H:12])([H:8])([H:9])[H:10]"
C       -1.73575770      -0.90360094      -0.19746097
C       -0.63102736      -0.58793037       0.80885234
C        0.38904637       0.31423999       0.21671968
C        0.37052837       1.77837852       0.06858166
O        1.63352804       1.38622510       0.59247754
C        1.55423400      -0.06765903      -0.45802894
C        2.26491529      -0.99216953      -0.99622868
H       -2.47146358      -1.57756363       0.24242555
H       -1.32775101      -1.38311226      -1.08880947
H       -2.26090480       0.00146365      -0.51024438
H       -1.03995895      -0.09427274       1.69468715
H       -0.13956248      -1.50239174       1.14713138
H        0.34890594       2.23815576      -0.91681083
H       -0.22579643       2.33749621       0.78987744
H        3.27106431      -0.94725900      -1.39316947
