12
Frame=0 idx=001947 GeodesicLength=0.0 rxn_smarts="[C:1]([n:2]1[c:3]([H:10])[c:4]([H:11])[n:5][c:6]1[H:12])([H:7])([H:8])[H:9]>>[C:1]([n:2]1[c:3]([H:10])[c-:4][n:5]([H:11])[c+:6]1[H:12])([H:7])([H:8])[H:9]"
C       -1.64044365      -0.18163421      -0.09855311
N       -0.20123067      -0.02892477      -0.02388620
C        0.72472190      -1.01770604      -0.26307414
C        1.97725826      -0.57437397       0.08961936
N        1.73832432       0.79526664       0.52795184
C        0.44682365       1.06483853       0.37429035
H       -1.90930880      -0.65100501      -1.04384593
H       -1.99749228      -0.80147064       0.72374567
H       -2.11414951       0.79628553      -0.04234146
H        0.40064866      -1.97469056      -0.64235557
H        2.62236461       0.57589769      -0.20212290
H       -0.04751649       1.99751679       0.60057206
12
Frame=1 idx=001947 GeodesicLength=0.04537348263872333 rxn_smarts="[C:1]([n:2]1[c:3]([H:10])[c:4]([H:11])[n:5][c:6]1[H:12])([H:7])([H:8])[H:9]>>[C:1]([n:2]1[c:3]([H:10])[c-:4][n:5]([H:11])[c+:6]1[H:12])([H:7])([H:8])[H:9]"
C       -1.64397407      -0.18218641      -0.09979610
N       -0.20515812      -0.03046189      -0.02037709
C        0.72193854      -1.01837791      -0.26009210
C        1.97541746      -0.56577477       0.07342958
N        1.73661519       0.79923504       0.51024255
C        0.44398013       1.06521875       0.37200762
H       -1.91174714      -0.63881249      -1.05171245
H       -2.00257314      -0.81278574       0.71363989
H       -2.11829801       0.79462603      -0.03070813
H        0.39795141      -1.98215391      -0.62170723
H        2.65584955       0.57497148      -0.18946853
H       -0.05000182       1.99650181       0.60454197
12
Frame=2 idx=001947 GeodesicLength=0.09071469932683943 rxn_smarts="[C:1]([n:2]1[c:3]([H:10])[c:4]([H:11])[n:5][c:6]1[H:12])([H:7])([H:8])[H:9]>>[C:1]([n:2]1[c:3]([H:10])[c-:4][n:5]([H:11])[c+:6]1[H:12])([H:7])([H:8])[H:9]"
C       -1.64763962      -0.18282893      -0.10085100
N       -0.20923487      -0.03205306      -0.01666519
C        0.71898985      -1.01919181      -0.25662067
C        1.97343971      -0.55660072       0.05510935
N        1.73484367       0.80376293       0.49059374
C        0.44095005       1.06556598       0.36984244
H       -1.91427191      -0.62706989      -1.05902126
H       -2.00779679      -0.82373600       0.70383980
H       -2.12256378       0.79276016      -0.01939459
H        0.39542614      -1.98915205      -0.60156790
H        2.69043782       0.57303309      -0.17369277
H       -0.05258028       1.99551030       0.60842807
12
Frame=3 idx=001947 GeodesicLength=0.13598083535860594 rxn_smarts="[C:1]([n:2]1[c:3]([H:10])[c:4]([H:11])[n:5][c:6]1[H:12])([H:7])([H:8])[H:9]>>[C:1]([n:2]1[c:3]([H:10])[c-:4][n:5]([H:11])[c+:6]1[H:12])([H:7])([H:8])[H:9]"
C       -1.65144298      -0.18359867      -0.10157031
N       -0.21346851      -0.03381576      -0.01247115
C        0.71586827      -1.02023070      -0.25248861
C        1.97135927      -0.54658163       0.03339132
N        1.73297996       0.80865205       0.46918208
C        0.43769045       1.06549580       0.36888228
H       -1.91682533      -0.61570690      -1.06571043
H       -2.01326322      -0.83443686       0.69439994
H       -2.12690070       0.79068502      -0.00822774
H        0.39304981      -1.99565636      -0.58221179
H        2.72596188       0.57020665      -0.15388078
H       -0.05500890       1.99498737       0.61070518
12
Frame=4 idx=001947 GeodesicLength=0.18110241732437504 rxn_smarts="[C:1]([n:2]1[c:3]([H:10])[c:4]([H:11])[n:5][c:6]1[H:12])([H:7])([H:8])[H:9]>>[C:1]([n:2]1[c:3]([H:10])[c-:4][n:5]([H:11])[c+:6]1[H:12])([H:7])([H:8])[H:9]"
C       -1.65525513      -0.18422303      -0.10282865
N       -0.21779818      -0.03594140      -0.00687773
C        0.71256760      -1.02219836      -0.24497073
C        1.96925101      -0.53510954       0.00674849
N        1.73135871       0.81488821       0.44337046
C        0.43421871       1.06480646       0.37019828
H       -1.91818032      -0.60487917      -1.07278002
H       -2.02009774      -0.84406858       0.68434294
H       -2.13095814       0.78892710       0.00078398
H        0.39087790      -2.00230188      -0.56151000
H        2.76172432       0.56653331      -0.13262237
H       -0.05770874       1.99356688       0.61614536
12
Frame=5 idx=001947 GeodesicLength=0.2260798011999207 rxn_smarts="[C:1]([n:2]1[c:3]([H:10])[c:4]([H:11])[n:5][c:6]1[H:12])([H:7])([H:8])[H:9]>>[C:1]([n:2]1[c:3]([H:10])[c-:4][n:5]([H:11])[c+:6]1[H:12])([H:7])([H:8])[H:9]"
C       -1.65900568      -0.18461011      -0.10486460
N       -0.22221678      -0.03896656       0.00171712
C        0.70920584      -1.02563830      -0.23229246
C        1.96691071      -0.52120068      -0.02886001
N        1.72989118       0.82234669       0.41278088
C        0.43052119       1.06214525       0.37793382
H       -1.91716407      -0.59362268      -1.08114574
H       -2.02939523      -0.85309186       0.67247184
H       -2.13447808       0.78772891       0.00756409
H        0.38887780      -2.00960415      -0.53783004
H        2.79704493       0.56272860      -0.11038808
H       -0.06019182       1.99178489       0.62291319
12
Frame=6 idx=001947 GeodesicLength=0.27060334065556974 rxn_smarts="[C:1]([n:2]1[c:3]([H:10])[c:4]([H:11])[n:5][c:6]1[H:12])([H:7])([H:8])[H:9]>>[C:1]([n:2]1[c:3]([H:10])[c-:4][n:5]([H:11])[c+:6]1[H:12])([H:7])([H:8])[H:9]"
C       -1.66300922      -0.18565575      -0.10522224
N       -0.22681904      -0.04092086       0.00771436
C        0.70614444      -1.02748991      -0.22261428
C        1.96312708      -0.50615804      -0.06759378
N        1.72750915       0.83230452       0.37526188
C        0.42687802       1.06182757       0.37920649
H       -1.91860637      -0.58510499      -1.08626802
H       -2.03594543      -0.86165904       0.66435809
H       -2.13888458       0.78550895       0.01565873
H        0.38750279      -2.01499708      -0.51829900
H        2.83540143       0.55200928      -0.07150352
H       -0.06329827       1.99033537       0.62930129
12
Frame=7 idx=001947 GeodesicLength=0.3138825389419448 rxn_smarts="[C:1]([n:2]1[c:3]([H:10])[c:4]([H:11])[n:5][c:6]1[H:12])([H:7])([H:8])[H:9]>>[C:1]([n:2]1[c:3]([H:10])[c-:4][n:5]([H:11])[c+:6]1[H:12])([H:7])([H:8])[H:9]"
C       -1.66736422      -0.18811450      -0.10099511
N       -0.23133273      -0.04162613       0.00957366
C        0.70389936      -1.02604512      -0.22339287
C        1.95846597      -0.48885390      -0.11333427
N        1.72426060       0.84369585       0.33346321
C        0.42342961       1.06364418       0.37362994
H       -1.92567883      -0.57843729      -1.08507187
H       -2.03685343      -0.87227026       0.66309081
H       -2.14470001       0.78100106       0.03096957
H        0.38709707      -2.01750846      -0.50763921
H        2.87461299       0.53088098      -0.00038755
H       -0.06583638       1.99363359       0.62009370
12
Frame=8 idx=001947 GeodesicLength=0.35363509721919184 rxn_smarts="[C:1]([n:2]1[c:3]([H:10])[c:4]([H:11])[n:5][c:6]1[H:12])([H:7])([H:8])[H:9]>>[C:1]([n:2]1[c:3]([H:10])[c-:4][n:5]([H:11])[c+:6]1[H:12])([H:7])([H:8])[H:9]"
C       -1.67040199      -0.19034257      -0.09699407
N       -0.23470146      -0.04189911       0.01224312
C        0.70317367      -1.02399862      -0.22264005
C        1.95341584      -0.46990615      -0.16345290
N        1.72101609       0.86096986       0.27375307
C        0.42127755       1.06662939       0.36605236
H       -1.93064787      -0.57276414      -1.08372252
H       -2.03680553      -0.88179269       0.66210421
H       -2.14917642       0.77674697       0.04462678
H        0.38863012      -2.01955188      -0.49472628
H        2.90225654       0.50141878       0.08248486
H       -0.06803656       1.99449017       0.62027142
12
Frame=9 idx=001947 GeodesicLength=0.39271814278262485 rxn_smarts="[C:1]([n:2]1[c:3]([H:10])[c:4]([H:11])[n:5][c:6]1[H:12])([H:7])([H:8])[H:9]>>[C:1]([n:2]1[c:3]([H:10])[c-:4][n:5]([H:11])[c+:6]1[H:12])([H:7])([H:8])[H:9]"
C       -1.67121075      -0.19152722      -0.09498428
N       -0.23633213      -0.04357677       0.01971378
C        0.70421626      -1.02337541      -0.21608089
C        1.94818750      -0.45275040      -0.20920701
N        1.71711200       0.87803264       0.21207300
C        0.42120555       1.06683838       0.36651206
H       -1.92971539      -0.56445643      -1.08585272
H       -2.03866928      -0.89031575       0.65676859
H       -2.15030517       0.77400748       0.05503601
H        0.39168586      -2.02201429      -0.47837170
H        2.91165143       0.47566933       0.14928893
H       -0.06782588       1.99346845       0.62510421
12
Frame=10 idx=001947 GeodesicLength=0.43301204662547577 rxn_smarts="[C:1]([n:2]1[c:3]([H:10])[c:4]([H:11])[n:5][c:6]1[H:12])([H:7])([H:8])[H:9]>>[C:1]([n:2]1[c:3]([H:10])[c-:4][n:5]([H:11])[c+:6]1[H:12])([H:7])([H:8])[H:9]"
C       -1.67127641      -0.19241641      -0.09297950
N       -0.23691879      -0.04483886       0.02565431
C        0.70614250      -1.02263119      -0.21164090
C        1.94404136      -0.43949027      -0.24369446
N        1.71339593       0.89082228       0.16211731
C        0.42258039       1.06747792       0.36526001
H       -1.92904897      -0.55617680      -1.08752183
H       -2.03906683      -0.89839386       0.65191300
H       -2.15063426       0.77166840       0.06559122
H        0.39548623      -2.02396241      -0.46570423
H        2.91128825       0.45456059       0.20366500
H       -0.06598940       1.99338059       0.62734007
12
Frame=11 idx=001947 GeodesicLength=0.47372812616258503 rxn_smarts="[C:1]([n:2]1[c:3]([H:10])[c:4]([H:11])[n:5][c:6]1[H:12])([H:7])([H:8])[H:9]>>[C:1]([n:2]1[c:3]([H:10])[c-:4][n:5]([H:11])[c+:6]1[H:12])([H:7])([H:8])[H:9]"
C       -1.67100863      -0.19335343      -0.09051508
N       -0.23705048      -0.04525568       0.02890831
C        0.70822899      -1.02117669      -0.21007305
C        1.94053914      -0.42827579      -0.27096337
N        1.71043136       0.89966121       0.12515385
C        0.42421312       1.06896169       0.36124809
H       -1.92986973      -0.54874905      -1.08787182
H       -2.03732538      -0.90610324       0.64866250
H       -2.15084410       0.76901345       0.07684563
H        0.39955537      -2.02487424      -0.45685742
H        2.90689212       0.43548908       0.25044577
H       -0.06376178       1.99466268       0.62501659
12
Frame=12 idx=001947 GeodesicLength=0.5146344325002215 rxn_smarts="[C:1]([n:2]1[c:3]([H:10])[c:4]([H:11])[n:5][c:6]1[H:12])([H:7])([H:8])[H:9]>>[C:1]([n:2]1[c:3]([H:10])[c-:4][n:5]([H:11])[c+:6]1[H:12])([H:7])([H:8])[H:9]"
C       -1.67066680      -0.19431773      -0.08774874
N       -0.23694095      -0.04509102       0.02989003
C        0.71033573      -1.01940585      -0.21042300
C        1.93795900      -0.41897680      -0.29181231
N        1.70806198       0.90653382       0.09439247
C        0.42589665       1.07102880       0.35512483
H       -1.93213096      -0.54209062      -1.08718583
H       -2.03418120      -0.91338277       0.64672470
H       -2.15103623       0.76622547       0.08846972
H        0.40363341      -2.02510180      -0.45122967
H        2.90040303       0.41804226       0.29299593
H       -0.06133369       1.99653624       0.62080186
12
Frame=13 idx=001947 GeodesicLength=0.5557290694192861 rxn_smarts="[C:1]([n:2]1[c:3]([H:10])[c:4]([H:11])[n:5][c:6]1[H:12])([H:7])([H:8])[H:9]>>[C:1]([n:2]1[c:3]([H:10])[c-:4][n:5]([H:11])[c+:6]1[H:12])([H:7])([H:8])[H:9]"
C       -1.67025212      -0.19526727      -0.08494446
N       -0.23669510      -0.04460177       0.02973676
C        0.71245737      -1.01747228      -0.21162218
C        1.93584418      -0.41057937      -0.30939553
N        1.70611083       0.91216612       0.06795497
C        0.42757264       1.07332687       0.34826523
H       -1.93500907      -0.53588059      -1.08605843
H       -2.03038548      -0.92033544       0.64532497
H       -2.15114974       0.76339424       0.10002813
H        0.40776619      -2.02501659      -0.44696136
H        2.89260363       0.40153267       0.33206518
H       -0.05886332       1.99873342       0.61560671
12
Frame=14 idx=001947 GeodesicLength=0.5969272140070141 rxn_smarts="[C:1]([n:2]1[c:3]([H:10])[c:4]([H:11])[n:5][c:6]1[H:12])([H:7])([H:8])[H:9]>>[C:1]([n:2]1[c:3]([H:10])[c-:4][n:5]([H:11])[c+:6]1[H:12])([H:7])([H:8])[H:9]"
C       -1.66977501      -0.19616528      -0.08222658
N       -0.23636506      -0.04396910       0.02899773
C        0.71457994      -1.01553705      -0.21307968
C        1.93408259      -0.40292015      -0.32446216
N        1.70437585       0.91700569       0.04406235
C        0.42924648       1.07565865       0.34120542
H       -1.93813146      -0.52987579      -1.08478547
H       -2.02633795      -0.92700751       0.64407426
H       -2.15112519       0.76059887       0.11136050
H        0.41190376      -2.02477892      -0.44345060
H        2.88388993       0.38600339       0.36810437
H       -0.05634388       2.00098719       0.61019985
12
Frame=15 idx=001947 GeodesicLength=0.6381881380455555 rxn_smarts="[C:1]([n:2]1[c:3]([H:10])[c:4]([H:11])[n:5][c:6]1[H:12])([H:7])([H:8])[H:9]>>[C:1]([n:2]1[c:3]([H:10])[c-:4][n:5]([H:11])[c+:6]1[H:12])([H:7])([H:8])[H:9]"
C       -1.66924510      -0.19700335      -0.07964398
N       -0.23598215      -0.04327581       0.02797657
C        0.71670171      -1.01364566      -0.21455094
C        1.93256042      -0.39579884      -0.33771679
N        1.70275047       0.92128349       0.02192328
C        0.43091865       1.07794205       0.33421962
H       -1.94130693      -0.52392811      -1.08351855
H       -2.02223263      -0.93347277       0.64275524
H       -2.15095774       0.75785173       0.12244566
H        0.41604662      -2.02448662      -0.44025697
H        2.87453620       0.37131956       0.40152956
H       -0.05378951       2.00321432       0.60483730
12
Frame=16 idx=001947 GeodesicLength=0.6794867116554657 rxn_smarts="[C:1]([n:2]1[c:3]([H:10])[c:4]([H:11])[n:5][c:6]1[H:12])([H:7])([H:8])[H:9]>>[C:1]([n:2]1[c:3]([H:10])[c-:4][n:5]([H:11])[c+:6]1[H:12])([H:7])([H:8])[H:9]"
C       -1.66866970      -0.19778282      -0.07720333
N       -0.23556416      -0.04257431       0.02688004
C        0.71882311      -1.01182037      -0.21589874
C        1.93120140      -0.38908828      -0.34960081
N        1.70115987       0.92514098       0.00104850
C        0.43259296       1.08013498       0.32746598
H       -1.94442230      -0.51791961      -1.08233704
H       -2.01817872      -0.93981145       0.64123447
H       -2.15065512       0.75514170       0.13333242
H        0.42019485      -2.02418352      -0.43716739
H        2.86473183       0.35736124       0.43269136
H       -0.05121403       2.00540146       0.59955453
