17
Frame=0 idx=011521 GeodesicLength=0.0 rxn_smarts="[C:1]([C@@:2]1([H:11])[N:3]([H:12])[C@:4]1([C@@:5]1([H:14])[C:6]([H:15])([H:16])[N:7]1[H:17])[H:13])([H:8])([H:9])[H:10]>>[C:1]([C@@:2]1([H:11])[N:3]=[C:4]1[H:13])([H:8])([H:9])[H:10].[C:5]1([H:14])=[N:7][C:6]1([H:15])[H:16].[H:12][H:17]"
C       -2.03069340      -0.32244940       0.06826146
C       -1.15321436      -0.30955282      -1.15664916
N       -0.13940296       0.76611388      -1.40923523
C        0.30045586      -0.42066543      -1.12909835
C        1.04678979      -0.59612350       0.79939813
C        2.19734125       0.29057679       0.82328762
N        0.90026880       0.45449472       1.54101145
H       -2.85561956       0.38155375      -0.05915563
H       -1.49754326      -0.05576339       0.97831525
H       -2.46353220      -1.31706927       0.19962782
H       -1.68211999      -0.58994043      -2.06712783
H       -0.04744224       1.68027254      -0.09287523
H        1.14070525      -0.96170858      -1.54096947
H        0.70899496      -1.61300277       0.92919255
H        3.06256775       0.11819339       1.45445875
H        2.36392394       0.92696142      -0.04440716
H        0.14852032       1.56810909       0.70596496
17
Frame=1 idx=011521 GeodesicLength=0.08413733479157459 rxn_smarts="[C:1]([C@@:2]1([H:11])[N:3]([H:12])[C@:4]1([C@@:5]1([H:14])[C:6]([H:15])([H:16])[N:7]1[H:17])[H:13])([H:8])([H:9])[H:10]>>[C:1]([C@@:2]1([H:11])[N:3]=[C:4]1[H:13])([H:8])([H:9])[H:10].[C:5]1([H:14])=[N:7][C:6]1([H:15])[H:16].[H:12][H:17]"
C       -2.03902708      -0.31824288       0.06363908
C       -1.15941148      -0.30859501      -1.15958592
N       -0.14254425       0.76512849      -1.40622993
C        0.29380419      -0.42704308      -1.12681978
C        1.06479722      -0.60983228       0.79889698
C        2.20219429       0.29376249       0.83016892
N        0.89964403       0.44105458       1.54174698
H       -2.85954114       0.39103363      -0.06340845
H       -1.50478084      -0.05485063       0.97419164
H       -2.47686814      -1.31049489       0.19575724
H       -1.68650789      -0.58633595      -2.07171728
H       -0.05439424       1.68636131      -0.10228237
H        1.12179213      -0.97523161      -1.55401183
H        0.75764147      -1.63522707       0.93902772
H        3.06460320       0.13538260       1.46875495
H        2.36384924       0.93154182      -0.03711826
H        0.15474928       1.58158848       0.70899030
17
Frame=2 idx=011521 GeodesicLength=0.16801107190345022 rxn_smarts="[C:1]([C@@:2]1([H:11])[N:3]([H:12])[C@:4]1([C@@:5]1([H:14])[C:6]([H:15])([H:16])[N:7]1[H:17])[H:13])([H:8])([H:9])[H:10]>>[C:1]([C@@:2]1([H:11])[N:3]=[C:4]1[H:13])([H:8])([H:9])[H:10].[C:5]1([H:14])=[N:7][C:6]1([H:15])[H:16].[H:12][H:17]"
C       -2.04752839      -0.31387172       0.05899187
C       -1.16567482      -0.30764526      -1.16246032
N       -0.14560968       0.76395785      -1.40314620
C        0.28702731      -0.43366526      -1.12440691
C        1.08343285      -0.62381016       0.79809031
C        2.20699283       0.29697400       0.83726991
N        0.89885677       0.42696346       1.54213639
H       -2.86353625       0.40069720      -0.06781294
H       -1.51227076      -0.05370886       0.97006093
H       -2.49043005      -1.30369102       0.19191302
H       -1.69093549      -0.58268837      -2.07626337
H       -0.06145459       1.69252055      -0.11185209
H        1.10218496      -0.98911498      -1.56687292
H        0.80791038      -1.65695712       0.94828442
H        3.06611210       0.15280824       1.48354377
H        2.36377335       0.93614911      -0.02957174
H        0.16114948       1.59508234       0.71209587
17
Frame=3 idx=011521 GeodesicLength=0.2516257519354832 rxn_smarts="[C:1]([C@@:2]1([H:11])[N:3]([H:12])[C@:4]1([C@@:5]1([H:14])[C:6]([H:15])([H:16])[N:7]1[H:17])[H:13])([H:8])([H:9])[H:10]>>[C:1]([C@@:2]1([H:11])[N:3]=[C:4]1[H:13])([H:8])([H:9])[H:10].[C:5]1([H:14])=[N:7][C:6]1([H:15])[H:16].[H:12][H:17]"
C       -2.05619710      -0.30933457       0.05431895
C       -1.17200230      -0.30670973      -1.16526940
N       -0.14859284       0.76258933      -1.39998019
C        0.28012248      -0.44054600      -1.12185598
C        1.10272792      -0.63804045       0.79695697
C        2.21173511       0.30020731       0.84458948
N        0.89793122       0.41219330       1.54216132
H       -2.86760007       0.41054813      -0.07237477
H       -1.52001589      -0.05233383       0.96592430
H       -2.50422201      -1.29665275       0.18809446
H       -1.69539983      -0.57900098      -2.08076392
H       -0.06861277       1.69874538      -0.12160171
H        1.08188191      -1.00336291      -1.57951160
H        0.85977833      -1.67809926       0.95693557
H        3.06706445       0.17044080       1.49882535
H        2.36369832       0.94079360      -0.02175842
H        0.16770307       1.60856263       0.71530960
17
Frame=4 idx=011521 GeodesicLength=0.3349862610164549 rxn_smarts="[C:1]([C@@:2]1([H:11])[N:3]([H:12])[C@:4]1([C@@:5]1([H:14])[C:6]([H:15])([H:16])[N:7]1[H:17])[H:13])([H:8])([H:9])[H:10]>>[C:1]([C@@:2]1([H:11])[N:3]=[C:4]1[H:13])([H:8])([H:9])[H:10].[C:5]1([H:14])=[N:7][C:6]1([H:15])[H:16].[H:12][H:17]"
C       -2.06503158      -0.30463003       0.04961990
C       -1.17839156      -0.30579501      -1.16801045
N       -0.15148767       0.76101002      -1.39672909
C        0.27308699      -0.44769918      -1.11916364
C        1.12271261      -0.65250305       0.79547450
C        2.21641873       0.30345737       0.85212576
N        0.89689484       0.39671605       1.54180412
H       -2.87172706       0.42058907      -0.07709941
H       -1.52801738      -0.05071968       0.96178276
H       -2.51824577      -1.28937527       0.18430265
H       -1.69989767      -0.57527888      -2.08521646
H       -0.07585827       1.70503152      -0.13155212
H        1.06088604      -1.01797733      -1.59188481
H        0.91321207      -1.69855871       0.96495454
H        3.06743038       0.18824419       1.51459711
H        2.36362485       0.94548764      -0.01366767
H        0.17439043       1.62200128       0.71866230
17
Frame=5 idx=011521 GeodesicLength=0.4180978597169144 rxn_smarts="[C:1]([C@@:2]1([H:11])[N:3]([H:12])[C@:4]1([C@@:5]1([H:14])[C:6]([H:15])([H:16])[N:7]1[H:17])[H:13])([H:8])([H:9])[H:10]>>[C:1]([C@@:2]1([H:11])[N:3]=[C:4]1[H:13])([H:8])([H:9])[H:10].[C:5]1([H:14])=[N:7][C:6]1([H:15])[H:16].[H:12][H:17]"
C       -2.07402857      -0.29975661       0.04489487
C       -1.18483977      -0.30490812      -1.17068106
N       -0.15428804       0.75920668      -1.39339116
C        0.26591819      -0.45513858      -1.11632697
C        1.14341599      -0.66717469       0.79361904
C        2.22104022       0.30671832       0.85987587
N        0.89577810       0.38050348       1.54104810
H       -2.87591036       0.43082231      -0.08199172
H       -1.53627417      -0.04885965       0.95763747
H       -2.53250097      -1.28185376       0.18054011
H       -1.70442519      -0.57152858      -2.08961857
H       -0.08318024       1.71137559      -0.14172810
H        1.03920541      -1.03295820      -1.60394847
H        0.96816792      -1.71824035       0.97231715
H        3.06718037       0.20617627       1.53085307
H        2.36355154       0.95024593      -0.00528773
H        0.18118956       1.63536998       0.72218811
17
Frame=6 idx=011521 GeodesicLength=0.500963935315592 rxn_smarts="[C:1]([C@@:2]1([H:11])[N:3]([H:12])[C@:4]1([C@@:5]1([H:14])[C:6]([H:15])([H:16])[N:7]1[H:17])[H:13])([H:8])([H:9])[H:10]>>[C:1]([C@@:2]1([H:11])[N:3]=[C:4]1[H:13])([H:8])([H:9])[H:10].[C:5]1([H:14])=[N:7][C:6]1([H:15])[H:16].[H:12][H:17]"
C       -2.08318272      -0.29471297       0.04014468
C       -1.19134395      -0.30405672      -1.17327874
N       -0.15698957       0.75716642      -1.38996596
C        0.25861342      -0.46287628      -1.11334332
C        1.16486351      -0.68202704       0.79136647
C        2.22559508       0.30998246       0.86783718
N        0.89461472       0.36352960       1.53987796
H       -2.88014406       0.44124587      -0.08705781
H       -1.54478315      -0.04674150       0.95348868
H       -2.54698113      -1.27408445       0.17681393
H       -1.70897822      -0.56776123      -2.09396658
H       -0.09056865       1.71777529      -0.15215917
H        1.01685433      -1.04830037      -1.61565749
H        1.02459022      -1.73704944       0.97899673
H        3.06628631       0.22418318       1.54758435
H        2.36347542       0.95508437       0.00339610
H        0.18807845       1.64864282       0.72592298
17
Frame=7 idx=011521 GeodesicLength=0.5835875638047636 rxn_smarts="[C:1]([C@@:2]1([H:11])[N:3]([H:12])[C@:4]1([C@@:5]1([H:14])[C:6]([H:15])([H:16])[N:7]1[H:17])[H:13])([H:8])([H:9])[H:10]>>[C:1]([C@@:2]1([H:11])[N:3]=[C:4]1[H:13])([H:8])([H:9])[H:10].[C:5]1([H:14])=[N:7][C:6]1([H:15])[H:16].[H:12][H:17]"
C       -2.09248664      -0.28949787       0.03537094
C       -1.19790065      -0.30324868      -1.17580118
N       -0.15958829       0.75487657      -1.38645427
C        0.25117028      -0.47092340      -1.11021052
C        1.18707838      -0.69702820       0.78869148
C        2.23007767       0.31324090       0.87600641
N        0.89344104       0.34576931       1.53827937
H       -2.88442135       0.45185637      -0.09230317
H       -1.55353838      -0.04435139       0.94933659
H       -2.56167633      -1.26606410       0.17313345
H       -1.71355218      -0.56398977      -2.09825652
H       -0.09801418       1.72422974      -0.16287955
H        0.99385245      -1.06399650      -1.62696697
H        1.08241177      -1.75489303       0.98496906
H        3.06472153       0.24220427       1.56477928
H        2.36339101       0.96002066       0.01240015
H        0.19503387       1.66179512       0.72990544
17
Frame=8 idx=011521 GeodesicLength=0.6659815213204823 rxn_smarts="[C:1]([C@@:2]1([H:11])[N:3]([H:12])[C@:4]1([C@@:5]1([H:14])[C:6]([H:15])([H:16])[N:7]1[H:17])[H:13])([H:8])([H:9])[H:10]>>[C:1]([C@@:2]1([H:11])[N:3]=[C:4]1[H:13])([H:8])([H:9])[H:10].[C:5]1([H:14])=[N:7][C:6]1([H:15])[H:16].[H:12][H:17]"
C       -2.10193274      -0.28411030       0.03057838
C       -1.20450527      -0.30249343      -1.17824732
N       -0.16207904       0.75232648      -1.38286098
C        0.24358818      -0.47929170      -1.10692905
C        1.21007865      -0.71214420       0.78556964
C        2.23448122       0.31648239       0.88437979
N        0.89229414       0.32720067       1.53624230
H       -2.88873606       0.46265167      -0.09772987
H       -1.56253365      -0.04167315       0.94518461
H       -2.57657683      -1.25779214       0.16951388
H       -1.71814052      -0.56023155      -2.10248622
H       -0.10550850       1.73074394      -0.17392930
H        0.97022894      -1.08003818      -1.63783786
H        1.14155752      -1.77169009       0.99020799
H        3.06245940       0.26017462       1.58242666
H        2.36329222       0.96507465       0.02174051
H        0.20203234       1.67481032       0.73417685
17
Frame=9 idx=011521 GeodesicLength=0.748118098572306 rxn_smarts="[C:1]([C@@:2]1([H:11])[N:3]([H:12])[C@:4]1([C@@:5]1([H:14])[C:6]([H:15])([H:16])[N:7]1[H:17])[H:13])([H:8])([H:9])[H:10]>>[C:1]([C@@:2]1([H:11])[N:3]=[C:4]1[H:13])([H:8])([H:9])[H:10].[C:5]1([H:14])=[N:7][C:6]1([H:15])[H:16].[H:12][H:17]"
C       -2.11150189      -0.27855434       0.02576413
C       -1.21115430      -0.30179256      -1.18061427
N       -0.16446330       0.74950462      -1.37918188
C        0.23586240      -0.48798060      -1.10349345
C        1.23388414      -0.72733090       0.78196965
C        2.23879979       0.31969390       0.89294935
N        0.89122226       0.30780242       1.53374513
H       -2.89307909       0.47360709      -0.10334756
H       -1.57174851      -0.03869250       0.94102357
H       -2.59164580      -1.24927022       0.16595951
H       -1.72274211      -0.55648983      -2.10664744
H       -0.11304731       1.73731245      -0.18535005
H        0.94600134      -1.09641147      -1.64821397
H        1.20191020      -1.78732378       0.99472071
H        3.05948577       0.27800730       1.60049792
H        2.36316554       0.97026277       0.03144040
H        0.20905087       1.68765565       0.73877826
17
Frame=10 idx=011521 GeodesicLength=0.8300348947302953 rxn_smarts="[C:1]([C@@:2]1([H:11])[N:3]([H:12])[C@:4]1([C@@:5]1([H:14])[C:6]([H:15])([H:16])[N:7]1[H:17])[H:13])([H:8])([H:9])[H:10]>>[C:1]([C@@:2]1([H:11])[N:3]=[C:4]1[H:13])([H:8])([H:9])[H:10].[C:5]1([H:14])=[N:7][C:6]1([H:15])[H:16].[H:12][H:17]"
C       -2.12118963      -0.27282260       0.02093867
C       -1.21784314      -0.30116171      -1.18290162
N       -0.16673410       0.74639825      -1.37543062
C        0.22799315      -0.49700890      -1.09990679
C        1.25850750      -0.74255171       0.77786806
C        2.24302145       0.32286524       0.90171641
N        0.89025877       0.28755267       1.53078691
H       -2.89743975       0.48473957      -0.10915209
H       -1.58117577      -0.03539143       0.93686330
H       -2.60688946      -1.24049003       0.16249499
H       -1.72734943      -0.55279567      -2.11073931
H       -0.12062295       1.74394780      -0.19719716
H        0.92121364      -1.11311236      -1.65806697
H        1.26341882      -1.80174765       0.99845698
H        3.05576892       0.29564121       1.61899397
H        2.36299910       0.97561117       0.04151938
H        0.21606288       1.70032614       0.74375590
17
Frame=11 idx=011521 GeodesicLength=0.911729055025128 rxn_smarts="[C:1]([C@@:2]1([H:11])[N:3]([H:12])[C@:4]1([C@@:5]1([H:14])[C:6]([H:15])([H:16])[N:7]1[H:17])[H:13])([H:8])([H:9])[H:10]>>[C:1]([C@@:2]1([H:11])[N:3]=[C:4]1[H:13])([H:8])([H:9])[H:10].[C:5]1([H:14])=[N:7][C:6]1([H:15])[H:16].[H:12][H:17]"
C       -2.13098181      -0.26690948       0.01610400
C       -1.22456887      -0.30061073      -1.18510582
N       -0.16889000       0.74298958      -1.37161062
C        0.21997541      -0.50638666      -1.09616362
C        1.28396646      -0.75775987       0.77323360
C        2.24713353       0.32598727       0.91068049
N        0.88944625       0.26642618       1.52735457
H       -2.90179850       0.49605400      -0.11514630
H       -1.59079391      -0.03175857       0.93270054
H       -2.62229848      -1.23143687       0.15912993
H       -1.73196128      -0.54916761      -2.11475324
H       -0.12823148       1.75064801      -0.20952857
H        0.89589339      -1.13013720      -1.66735055
H        1.32601145      -1.81488064       1.00138948
H        3.05128660       0.31300069       1.63790275
H        2.36277047       0.98114471       0.05200715
H        0.22304078       1.71279720       0.74915622
17
Frame=12 idx=011521 GeodesicLength=0.9932085992066864 rxn_smarts="[C:1]([C@@:2]1([H:11])[N:3]([H:12])[C@:4]1([C@@:5]1([H:14])[C:6]([H:15])([H:16])[N:7]1[H:17])[H:13])([H:8])([H:9])[H:10]>>[C:1]([C@@:2]1([H:11])[N:3]=[C:4]1[H:13])([H:8])([H:9])[H:10].[C:5]1([H:14])=[N:7][C:6]1([H:15])[H:16].[H:12][H:17]"
C       -2.14086296      -0.26081106       0.01126638
C       -1.23132677      -0.30014961      -1.18722514
N       -0.17092830       0.73926574      -1.36773056
C        0.21180733      -0.51612247      -1.09226276
C        1.31027231      -0.77290715       0.76803596
C        2.25112220       0.32904752       0.91984123
N        0.88882653       0.24440252       1.52343889
H       -2.90613889       0.50755202      -0.12132876
H       -1.60058090      -0.02777869       0.92853639
H       -2.63785771      -1.22210294       0.15588257
H       -1.73657390      -0.54562739      -2.11868344
H       -0.13587067       1.75742055      -0.22241061
H        0.87007663      -1.14748308      -1.67602724
H        1.38960248      -1.82665291       1.00349286
H        3.04601790       0.33000228       1.65721306
H        2.36245702       0.98688891       0.06293309
H        0.22995772       1.72505576       0.75502808
17
Frame=13 idx=011521 GeodesicLength=1.074476691074082 rxn_smarts="[C:1]([C@@:2]1([H:11])[N:3]([H:12])[C@:4]1([C@@:5]1([H:14])[C:6]([H:15])([H:16])[N:7]1[H:17])[H:13])([H:8])([H:9])[H:10]>>[C:1]([C@@:2]1([H:11])[N:3]=[C:4]1[H:13])([H:8])([H:9])[H:10].[C:5]1([H:14])=[N:7][C:6]1([H:15])[H:16].[H:12][H:17]"
C       -2.15081422      -0.25452261       0.00643259
C       -1.23811195      -0.29978922      -1.18925712
N       -0.17284788       0.73521272      -1.36379951
C        0.20348630      -0.52622364      -1.08820201
C        1.33743092      -0.78794024       0.76224605
C        2.25497039       0.33203132       0.92920002
N        0.88844249       0.22146377       1.51903199
H       -2.91044105       0.51923450      -0.12769806
H       -1.61050923      -0.02343454       0.92437082
H       -2.65354803      -1.21247815       0.15277359
H       -1.74118441      -0.54220012      -2.12252215
H       -0.14353933       1.76427266      -0.23591819
H        0.84380102      -1.16514381      -1.68406199
H        1.45410385      -1.83699885       1.00473708
H        3.03994244       0.34655906       1.67691491
H        2.36203044       0.99286672       0.07433055
H        0.23678826       1.73709043       0.76142144
17
Frame=14 idx=011521 GeodesicLength=1.1555372847191108 rxn_smarts="[C:1]([C@@:2]1([H:11])[N:3]([H:12])[C@:4]1([C@@:5]1([H:14])[C:6]([H:15])([H:16])[N:7]1[H:17])[H:13])([H:8])([H:9])[H:10]>>[C:1]([C@@:2]1([H:11])[N:3]=[C:4]1[H:13])([H:8])([H:9])[H:10].[C:5]1([H:14])=[N:7][C:6]1([H:15])[H:16].[H:12][H:17]"
C       -2.16081410      -0.24804253       0.00161172
C       -1.24491796      -0.29953919      -1.19119994
N       -0.17464835       0.73082224      -1.35982905
C        0.19501313      -0.53669188      -1.08398172
C        1.36544088      -0.80280163       0.75583584
C        2.25866086       0.33492121       0.93875890
N        0.88833680       0.19759932       1.51412743
H       -2.91469039       0.53109248      -0.13425200
H       -1.62054950      -0.01870376       0.92020448
H       -2.66933885      -1.20256063       0.14983095
H       -1.74578821      -0.53891376      -2.12626157
H       -0.15123953       1.77121887      -0.25013539
H        0.81710954      -1.18311137      -1.69142500
H        1.51940681      -1.84585756       1.00509822
H        3.03304786       0.36256746       1.69699433
H        2.36146185       0.99910090       0.08623577
H        0.24350915       1.74889983       0.76838702
17
Frame=15 idx=011521 GeodesicLength=1.2363890882556483 rxn_smarts="[C:1]([C@@:2]1([H:11])[N:3]([H:12])[C@:4]1([C@@:5]1([H:14])[C:6]([H:15])([H:16])[N:7]1[H:17])[H:13])([H:8])([H:9])[H:10]>>[C:1]([C@@:2]1([H:11])[N:3]=[C:4]1[H:13])([H:8])([H:9])[H:10].[C:5]1([H:14])=[N:7][C:6]1([H:15])[H:16].[H:12][H:17]"
C       -2.17083742      -0.24136932      -0.00318621
C       -1.25173769      -0.29940929      -1.19305091
N       -0.17633078       0.72608615      -1.35583103
C        0.18638901      -0.54752632      -1.07960185
C        1.39429428      -0.81742920       0.74877905
C        2.26217343       0.33769692       0.94852153
N        0.88855164       0.17280227       1.50871938
H       -2.91887026       0.54311437      -0.14098778
H       -1.63066679      -0.01356208       0.91603694
H       -2.68519357      -1.19234815       0.14708586
H       -1.75038144      -0.53579816      -2.12989167
H       -0.15897556       1.77827425      -0.26515678
H        0.79004670      -1.20137371      -1.69809033
H        1.58539798      -1.85317327       1.00455093
H        3.02532369       0.37792026       1.71743843
H        2.36071719       1.00560978       0.09868854
H        0.25009957       1.76048548       0.77597590
17
Frame=16 idx=011521 GeodesicLength=1.3170329772401335 rxn_smarts="[C:1]([C@@:2]1([H:11])[N:3]([H:12])[C@:4]1([C@@:5]1([H:14])[C:6]([H:15])([H:16])[N:7]1[H:17])[H:13])([H:8])([H:9])[H:10]>>[C:1]([C@@:2]1([H:11])[N:3]=[C:4]1[H:13])([H:8])([H:9])[H:10].[C:5]1([H:14])=[N:7][C:6]1([H:15])[H:16].[H:12][H:17]"
C       -2.18085571      -0.23450338      -0.00794902
C       -1.25856277      -0.29940844      -1.19480812
N       -0.17789659       0.72100008      -1.35181956
C        0.17761723      -0.55872268      -1.07506509
C        1.42397682      -0.83175877       0.74105098
C        2.26548603       0.34033557       0.95849239
N        0.88912756       0.14707031       1.50280314
H       -2.92296437       0.55528443      -0.14789967
H       -1.64082174      -0.00798433       0.91186914
H       -2.70106824      -1.18184305       0.14457417
H       -1.75496026      -0.53288315      -2.13340308
H       -0.16675439       1.78545908      -0.28108827
H        0.76265904      -1.21991736      -1.70403972
H        1.65195376      -1.85889853       1.00307739
H        3.01676351       0.39250553       1.73823400
H        2.35975901       1.01240857       0.11173010
H        0.25654109       1.77185613       0.78424121
