10
Frame=0 idx=002357 GeodesicLength=0.0 rxn_smarts="[O:1]([C@@:2]1([H:8])[C:3]([H:9])([H:10])[O:4][C:5]1=[O:6])[H:7]>>[O:1]([C:2]([C:5]([O+:4]=[C-:3][H:10])=[O:6])([H:8])[H:9])[H:7]"
O       -1.29688761      -1.48039107       0.11310488
C       -0.55050248      -0.41369410      -0.25237226
C        0.26805668       1.67134868       0.34571904
O        1.28213575       0.87806133      -0.11394392
C        0.92692352      -0.43841547      -0.00984040
O        1.64640754      -1.34076031       0.27477000
H       -0.90782348      -1.89739830       0.88890479
H       -0.79331536      -0.10286582      -1.26739005
H       -0.68393516       0.68584520       0.45974054
H        0.10894059       2.43826986      -0.43869264
10
Frame=1 idx=002357 GeodesicLength=0.054523124540623746 rxn_smarts="[O:1]([C@@:2]1([H:8])[C:3]([H:9])([H:10])[O:4][C:5]1=[O:6])[H:7]>>[O:1]([C:2]([C:5]([O+:4]=[C-:3][H:10])=[O:6])([H:8])[H:9])[H:7]"
O       -1.30531517      -1.46525403       0.12427007
C       -0.55225082      -0.40167011      -0.24479842
C        0.25700210       1.66954059       0.32332052
O        1.28982904       0.87870867      -0.09709368
C        0.92602535      -0.43696098      -0.00192307
O        1.64394434      -1.34378791       0.27014031
H       -0.88994090      -1.92419902       0.86137354
H       -0.79110114      -0.10193857      -1.26463463
H       -0.70036481       0.68862063       0.49319513
H        0.12217202       2.43694074      -0.46384976
10
Frame=2 idx=002357 GeodesicLength=0.10898925599913378 rxn_smarts="[O:1]([C@@:2]1([H:8])[C:3]([H:9])([H:10])[O:4][C:5]1=[O:6])[H:7]>>[O:1]([C:2]([C:5]([O+:4]=[C-:3][H:10])=[O:6])([H:8])[H:9])[H:7]"
O       -1.31307554      -1.45004428       0.13782520
C       -0.55405938      -0.38979642      -0.23692944
C        0.24586422       1.66684265       0.30090751
O        1.29703131       0.87968676      -0.07947642
C        0.92525125      -0.43540918       0.00530888
O        1.64168395      -1.34636294       0.26520988
H       -0.87272222      -1.95014853       0.83199034
H       -0.78925385      -0.10282069      -1.26184191
H       -0.71670406       0.69246550       0.52455192
H        0.13598433       2.43558713      -0.48754597
10
Frame=3 idx=002357 GeodesicLength=0.16338151901327702 rxn_smarts="[O:1]([C@@:2]1([H:8])[C:3]([H:9])([H:10])[O:4][C:5]1=[O:6])[H:7]>>[O:1]([C:2]([C:5]([O+:4]=[C-:3][H:10])=[O:6])([H:8])[H:9])[H:7]"
O       -1.31999928      -1.43487241       0.15378584
C       -0.55589394      -0.37812418      -0.22876320
C        0.23488761       1.66333989       0.27848092
O        1.30370968       0.88095348      -0.06137745
C        0.92462667      -0.43377390       0.01187309
O        1.63964167      -1.34844919       0.26026152
H       -0.85634926      -1.97531371       0.80051573
H       -0.78788976      -0.10542161      -1.25886879
H       -0.73296632       0.69746032       0.55385820
H        0.15023292       2.43420132      -0.50976586
10
Frame=4 idx=002357 GeodesicLength=0.21768687597982608 rxn_smarts="[O:1]([C@@:2]1([H:8])[C:3]([H:9])([H:10])[O:4][C:5]1=[O:6])[H:7]>>[O:1]([C:2]([C:5]([O+:4]=[C-:3][H:10])=[O:6])([H:8])[H:9])[H:7]"
O       -1.32588577      -1.41989900       0.17210022
C       -0.55772133      -0.36671328      -0.22036627
C        0.22427044       1.65906149       0.25608909
O        1.30986660       0.88245446      -0.04307727
C        0.92419762      -0.43209526       0.01766924
O        1.63782289      -1.35003633       0.25563791
H       -0.84099603      -1.99951386       0.76684154
H       -0.78713037      -0.10961608      -1.25563792
H       -0.74914516       0.70358808       0.58118682
H        0.16472112       2.43276979      -0.53044336
10
Frame=5 idx=002357 GeodesicLength=0.27189864055984186 rxn_smarts="[O:1]([C@@:2]1([H:8])[C:3]([H:9])([H:10])[O:4][C:5]1=[O:6])[H:7]>>[O:1]([C:2]([C:5]([O+:4]=[C-:3][H:10])=[O:6])([H:8])[H:9])[H:7]"
O       -1.33049326      -1.40530587       0.19266288
C       -0.55950218      -0.35561329      -0.21180249
C        0.21414954       1.65403216       0.23378065
O        1.31551849       0.88414113      -0.02481417
C        0.92401465      -0.43040904       0.02259511
O        1.63623688      -1.35114107       0.25162287
H       -0.82688135      -2.02252668       0.73094991
H       -0.78707240      -0.11526908      -1.25208195
H       -0.76523680       0.71080167       0.60662560
H        0.17926644       2.43129006      -0.54953841
10
Frame=6 idx=002357 GeodesicLength=0.32601314838575374 rxn_smarts="[O:1]([C@@:2]1([H:8])[C:3]([H:9])([H:10])[O:4][C:5]1=[O:6])[H:7]>>[O:1]([C:2]([C:5]([O+:4]=[C-:3][H:10])=[O:6])([H:8])[H:9])[H:7]"
O       -1.33357017      -1.39120558       0.21544615
C       -0.56117692      -0.34484206      -0.20305222
C        0.20465811       1.64833586       0.21157042
O        1.32070509       0.88599512      -0.00687178
C        0.92413813      -0.42872906       0.02666047
O        1.63490689      -1.35179371       0.24849706
H       -0.81433135      -2.04438787       0.69264268
H       -0.78777532      -0.12227062      -1.24807353
H       -0.78120757       0.71911261       0.63029062
H        0.19365311       2.42978532      -0.56710986
10
Frame=7 idx=002357 GeodesicLength=0.379967113447094 rxn_smarts="[O:1]([C@@:2]1([H:8])[C:3]([H:9])([H:10])[O:4][C:5]1=[O:6])[H:7]>>[O:1]([C:2]([C:5]([O+:4]=[C-:3][H:10])=[O:6])([H:8])[H:9])[H:7]"
O       -1.33466277      -1.37834895       0.23892928
C       -0.56265553      -0.33460597      -0.19487357
C        0.19563709       1.64162462       0.18987899
O        1.32538232       0.88784648       0.01098126
C        0.92464840      -0.42721977       0.02908528
O        1.63378755      -1.35218678       0.24582297
H       -0.80350311      -2.06293097       0.65473793
H       -0.78909787      -0.13022070      -1.24420437
H       -0.79722188       0.72780855       0.65205157
H        0.20768580       2.42823349      -0.58240935
10
Frame=8 idx=002357 GeodesicLength=0.43388699123721425 rxn_smarts="[O:1]([C@@:2]1([H:8])[C:3]([H:9])([H:10])[O:4][C:5]1=[O:6])[H:7]>>[O:1]([C:2]([C:5]([O+:4]=[C-:3][H:10])=[O:6])([H:8])[H:9])[H:7]"
O       -1.33390380      -1.36609882       0.26435321
C       -0.56393017      -0.32472862      -0.18661650
C        0.18738254       1.63429220       0.16839207
O        1.32966405       0.88975550       0.02800119
C        0.92554537      -0.42576994       0.03049005
O        1.63287378      -1.35218144       0.24459298
H       -0.79453325      -2.08017521       0.61454278
H       -0.79120137      -0.13923696      -1.23983232
H       -0.81309307       0.73744427       0.67221757
H        0.22119593       2.42669901      -0.59614102
10
Frame=9 idx=002357 GeodesicLength=0.4878047700555511 rxn_smarts="[O:1]([C@@:2]1([H:8])[C:3]([H:9])([H:10])[O:4][C:5]1=[O:6])[H:7]>>[O:1]([C:2]([C:5]([O+:4]=[C-:3][H:10])=[O:6])([H:8])[H:9])[H:7]"
O       -1.33108428      -1.35497023       0.29049140
C       -0.56493601      -0.31534872      -0.17883006
C        0.17974588       1.62619610       0.14739514
O        1.33357397       0.89163170       0.04444332
C        0.92691321      -0.42449748       0.03043044
O        1.63219920      -1.35201043       0.24426698
H       -0.78756132      -2.09480140       0.57439317
H       -0.79389620      -0.14898374      -1.23542935
H       -0.82900710       0.74750473       0.69068364
H        0.23405266       2.42527947      -0.60784469
10
Frame=10 idx=002357 GeodesicLength=0.5417362579757187 rxn_smarts="[O:1]([C@@:2]1([H:8])[C:3]([H:9])([H:10])[O:4][C:5]1=[O:6])[H:7]>>[O:1]([C:2]([C:5]([O+:4]=[C-:3][H:10])=[O:6])([H:8])[H:9])[H:7]"
O       -1.32625231      -1.34499567       0.31684891
C       -0.56566196      -0.30648931      -0.17167874
C        0.17268324       1.61731520       0.12697742
O        1.33708984       0.89338125       0.06043336
C        0.92870870      -0.42343039       0.02881863
O        1.63166887      -1.35173765       0.24461832
H       -0.78235484      -2.10648697       0.53512049
H       -0.79706838      -0.15930206      -1.23112873
H       -0.84505278       0.75782080       0.70743275
H        0.24623961       2.42392480      -0.61744239
10
Frame=11 idx=002357 GeodesicLength=0.5957486431104667 rxn_smarts="[O:1]([C@@:2]1([H:8])[C:3]([H:9])([H:10])[O:4][C:5]1=[O:6])[H:7]>>[O:1]([C:2]([C:5]([O+:4]=[C-:3][H:10])=[O:6])([H:8])[H:9])[H:7]"
O       -1.31963973      -1.33620765       0.34262719
C       -0.56607109      -0.29818608      -0.16546419
C        0.16612339       1.60768576       0.10726686
O        1.34022595       0.89494077       0.07615675
C        0.93095814      -0.42261231       0.02564765
O        1.63135689      -1.35154822       0.24501145
H       -0.77878019      -2.11507450       0.49839330
H       -0.80044478      -0.16994448      -1.22726682
H       -0.86146264       0.76815648       0.72234591
H        0.25773406       2.42279024      -0.62471810
10
Frame=12 idx=002357 GeodesicLength=0.649786582757901 rxn_smarts="[O:1]([C@@:2]1([H:8])[C:3]([H:9])([H:10])[O:4][C:5]1=[O:6])[H:7]>>[O:1]([C:2]([C:5]([O+:4]=[C-:3][H:10])=[O:6])([H:8])[H:9])[H:7]"
O       -1.31152085      -1.32840782       0.36727967
C       -0.56611721      -0.29044831      -0.16039297
C        0.16000329       1.59734403       0.08829463
O        1.34290314       0.89625462       0.09190781
C        0.93360798      -0.42202011       0.02103531
O        1.63126252      -1.35151906       0.24470779
H       -0.77658610      -2.12072045       0.46550068
H       -0.80375668      -0.18080570      -1.22408499
H       -0.87842792       0.77838974       0.73525888
H        0.26863182       2.42193305      -0.62950679
10
Frame=13 idx=002357 GeodesicLength=0.7038893179472351 rxn_smarts="[O:1]([C@@:2]1([H:8])[C:3]([H:9])([H:10])[O:4][C:5]1=[O:6])[H:7]>>[O:1]([C:2]([C:5]([O+:4]=[C-:3][H:10])=[O:6])([H:8])[H:9])[H:7]"
O       -1.30220464      -1.32135355       0.39107678
C       -0.56587467      -0.28319524      -0.15624063
C        0.15443783       1.58643010       0.07001948
O        1.34521714       0.89725710       0.10740679
C        0.93660077      -0.42165568       0.01522901
O        1.63132426      -1.35164400       0.24405803
H       -0.77538120      -2.12398085       0.43561366
H       -0.80704693      -0.19181195      -1.22139161
H       -0.89592064       0.78866487       0.74632379
H        0.27884808       2.42128921      -0.63209530
10
Frame=14 idx=002357 GeodesicLength=0.7580395432803868 rxn_smarts="[O:1]([C@@:2]1([H:8])[C:3]([H:9])([H:10])[O:4][C:5]1=[O:6])[H:7]>>[O:1]([C:2]([C:5]([O+:4]=[C-:3][H:10])=[O:6])([H:8])[H:9])[H:7]"
O       -1.29189000      -1.31479971       0.41391369
C       -0.56530473      -0.27640125      -0.15305987
C        0.14940939       1.57502586       0.05241639
O        1.34717137       0.89793247       0.12266710
C        0.93992572      -0.42149570       0.00842858
O        1.63158421      -1.35197189       0.24271544
H       -0.77510442      -2.12526991       0.40914794
H       -0.81013291      -0.20293782      -1.21929022
H       -0.91404797       0.79896334       0.75547755
H        0.28838932       2.42095461      -0.63241659
10
Frame=15 idx=002357 GeodesicLength=0.8122224515846168 rxn_smarts="[O:1]([C@@:2]1([H:8])[C:3]([H:9])([H:10])[O:4][C:5]1=[O:6])[H:7]>>[O:1]([C:2]([C:5]([O+:4]=[C-:3][H:10])=[O:6])([H:8])[H:9])[H:7]"
O       -1.28087357      -1.30860072       0.43571276
C       -0.56446178      -0.27002180      -0.15080176
C        0.14494104       1.56320529       0.03546567
O        1.34879692       0.89821945       0.13771686
C        0.94352289      -0.42154413       0.00074796
O        1.63200582      -1.35253900       0.24059545
H       -0.77536361      -2.12481503       0.38613424
H       -0.81299923      -0.21409742      -1.21776226
H       -0.93284413       0.80930872       0.76276357
H        0.29727566       2.42088464      -0.63057249
10
Frame=16 idx=002357 GeodesicLength=0.8664359018513524 rxn_smarts="[O:1]([C@@:2]1([H:8])[C:3]([H:9])([H:10])[O:4][C:5]1=[O:6])[H:7]>>[O:1]([C:2]([C:5]([O+:4]=[C-:3][H:10])=[O:6])([H:8])[H:9])[H:7]"
O       -1.26924558      -1.30256118       0.45667846
C       -0.56334306      -0.26401397      -0.14936935
C        0.14104230       1.55105394       0.01909672
O        1.35013463       0.89811756       0.15247470
C        0.94737947      -0.42177761      -0.00763795
O        1.63259589      -1.35334155       0.23771649
H       -0.77612701      -2.12300590       0.36620924
H       -0.81561354      -0.22532038      -1.21673729
H       -0.95230963       0.81976538       0.76821868
H        0.30548652       2.42108371      -0.62664970
