14
Frame=0 idx=011119 GeodesicLength=0.0 rxn_smarts="[C:1]1([H:8])([H:9])[C@:2]2([H:10])[C@@:3]3([H:11])[C@:4]2([H:12])[N:5]2[C@:6]1([H:13])[C@@:7]32[H:14]>>[C:1]1([H:8])([H:9])[C@:2]2([H:10])[C@:3]3([H:11])[C@@:6]1([H:13])[C@:7]3([H:14])[N:5]=[C:4]2[H:12]"
C        1.17073794      -0.28256741      -0.59302138
C       -0.15390597      -1.00753431      -0.28231952
C       -1.20117765      -0.00012821      -0.49271085
C       -0.48852480      -0.77174216       1.16339224
N       -0.34284305       0.49483401       1.54935273
C        0.80843425       1.09003144      -0.16990620
C       -0.58591746       1.14507908       0.27433007
H        1.31191937      -0.36545348      -1.67362492
H        2.06958477      -0.67434968      -0.10503534
H       -0.30277579      -2.00839126      -0.67259055
H       -2.08154351      -0.05481764      -1.11653951
H       -0.61847633      -1.57850243       1.87787630
H        1.50825344       1.91261499      -0.10288721
H       -1.09376521       2.10092705       0.34368420
14
Frame=1 idx=011119 GeodesicLength=0.05395814602612688 rxn_smarts="[C:1]1([H:8])([H:9])[C@:2]2([H:10])[C@@:3]3([H:11])[C@:4]2([H:12])[N:5]2[C@:6]1([H:13])[C@@:7]32[H:14]>>[C:1]1([H:8])([H:9])[C@:2]2([H:10])[C@:3]3([H:11])[C@@:6]1([H:13])[C@:7]3([H:14])[N:5]=[C:4]2[H:12]"
C        1.17368988      -0.28725458      -0.59147435
C       -0.14978487      -1.01256425      -0.28224318
C       -1.18965772       0.00587190      -0.49349401
C       -0.49302380      -0.77271397       1.15964859
N       -0.31896143       0.49189940       1.54980655
C        0.79565375       1.08400062      -0.17477854
C       -0.59313504       1.14955997       0.28565224
H        1.32279040      -0.36934216      -1.67093960
H        2.06981748      -0.67433703      -0.09530765
H       -0.30267912      -2.01161235      -0.67526069
H       -2.07019104      -0.04585988      -1.11747919
H       -0.63342306      -1.57754675       1.87421790
H        1.48804234       1.91455220      -0.12900197
H       -1.09913776       2.10534687       0.36065390
14
Frame=2 idx=011119 GeodesicLength=0.10790173555781335 rxn_smarts="[C:1]1([H:8])([H:9])[C@:2]2([H:10])[C@@:3]3([H:11])[C@:4]2([H:12])[N:5]2[C@:6]1([H:13])[C@@:7]32[H:14]>>[C:1]1([H:8])([H:9])[C@:2]2([H:10])[C@:3]3([H:11])[C@@:6]1([H:13])[C@:7]3([H:14])[N:5]=[C:4]2[H:12]"
C        1.17657425      -0.29183998      -0.59005002
C       -0.14573168      -1.01757203      -0.28216541
C       -1.17823815       0.01182186      -0.49421415
C       -0.49734693      -0.77341139       1.15592412
N       -0.29575521       0.48898949       1.54971347
C        0.78299575       1.07787498      -0.17936211
C       -0.60022719       1.15383091       0.29686249
H        1.33341612      -0.37282920      -1.66836586
H        2.06998816      -0.67438773      -0.08601821
H       -0.30261258      -2.01483411      -0.67781120
H       -2.05888822      -0.03701660      -1.11841265
H       -0.64771849      -1.57607228       1.87078671
H        1.46780154       1.91581655      -0.15405012
H       -1.10425737       2.10962955       0.37716295
14
Frame=3 idx=011119 GeodesicLength=0.1618405049512314 rxn_smarts="[C:1]1([H:8])([H:9])[C@:2]2([H:10])[C@@:3]3([H:11])[C@:4]2([H:12])[N:5]2[C@:6]1([H:13])[C@@:7]32[H:14]>>[C:1]1([H:8])([H:9])[C@:2]2([H:10])[C@:3]3([H:11])[C@@:6]1([H:13])[C@:7]3([H:14])[N:5]=[C:4]2[H:12]"
C        1.17937608      -0.29632595      -0.58874969
C       -0.14174985      -1.02255141      -0.28208674
C       -1.16693600       0.01771137      -0.49486006
C       -0.50148652      -0.77385045       1.15221002
N       -0.27327248       0.48614097       1.54909941
C        0.77048437       1.07166096      -0.18364368
C       -0.60719789       1.15790128       0.30791522
H        1.34377342      -0.37590498      -1.66590281
H        2.07007765      -0.67452734      -0.07717281
H       -0.30257260      -2.01805165      -0.68024279
H       -2.04766339      -0.02831132      -1.11930467
H       -0.66131074      -1.57411985       1.86756412
H        1.44761000       1.91643593      -0.17795989
H       -1.10913204       2.11379245       0.39313436
14
Frame=4 idx=011119 GeodesicLength=0.2157800471791072 rxn_smarts="[C:1]1([H:8])([H:9])[C@:2]2([H:10])[C@@:3]3([H:11])[C@:4]2([H:12])[N:5]2[C@:6]1([H:13])[C@@:7]32[H:14]>>[C:1]1([H:8])([H:9])[C@:2]2([H:10])[C@:3]3([H:11])[C@@:6]1([H:13])[C@:7]3([H:14])[N:5]=[C:4]2[H:12]"
C        1.18209996      -0.30071345      -0.58756283
C       -0.13783976      -1.02749976      -0.28200785
C       -1.15576884       0.02352910      -0.49541860
C       -0.50544248      -0.77406450       1.14851655
N       -0.25150898       0.48336646       1.54800110
C        0.75813625       1.06536940      -0.18760706
C       -0.61403947       1.16177480       0.31880600
H        1.35387354      -0.37857245      -1.66354517
H        2.07009652      -0.67476505      -0.06874975
H       -0.30256090      -2.02125872      -0.68257235
H       -2.03652088      -0.01974355      -1.12016143
H       -0.67425483      -1.57174746       1.86454929
H        1.42748542       1.91648454      -0.20082079
H       -1.11375556       2.11784064       0.40857287
14
Frame=5 idx=011119 GeodesicLength=0.26970144136021246 rxn_smarts="[C:1]1([H:8])([H:9])[C@:2]2([H:10])[C@@:3]3([H:11])[C@:4]2([H:12])[N:5]2[C@:6]1([H:13])[C@@:7]32[H:14]>>[C:1]1([H:8])([H:9])[C@:2]2([H:10])[C@:3]3([H:11])[C@@:6]1([H:13])[C@:7]3([H:14])[N:5]=[C:4]2[H:12]"
C        1.18474462      -0.30500665      -0.58649497
C       -0.13400536      -1.03241250      -0.28193288
C       -1.14476022       0.02926750      -0.49588914
C       -0.50922021      -0.77406885       1.14484596
N       -0.23048643       0.48069691       1.54645825
C        0.74597121       1.05901046      -0.19125576
C       -0.62076236       1.16546354       0.32950555
H        1.36371565      -0.38083658      -1.66130584
H        2.07004868      -0.67511705      -0.06074469
H       -0.30257962      -2.02445246      -0.68480813
H       -2.02549953      -0.01133046      -1.12096925
H       -0.68651874      -1.56899489       1.86174249
H        1.40750211       1.91599100      -0.22258438
H       -1.11814980       2.12179004       0.42343278
14
Frame=6 idx=011119 GeodesicLength=0.32360426353942806 rxn_smarts="[C:1]1([H:8])([H:9])[C@:2]2([H:10])[C@@:3]3([H:11])[C@:4]2([H:12])[N:5]2[C@:6]1([H:13])[C@@:7]32[H:14]>>[C:1]1([H:8])([H:9])[C@:2]2([H:10])[C@:3]3([H:11])[C@@:6]1([H:13])[C@:7]3([H:14])[N:5]=[C:4]2[H:12]"
C        1.18729849      -0.30920683      -0.58554390
C       -0.13025095      -1.03728552      -0.28186140
C       -1.13392044       0.03491914      -0.49626772
C       -0.51282566      -0.77387953       1.14119132
N       -0.21021460       0.47815458       1.54450052
C        0.73400249       1.05259371      -0.19459422
C       -0.62737159       1.16897867       0.33998559
H        1.37328747      -0.38269936      -1.65917788
H        2.06991837      -0.67559249      -0.05315113
H       -0.30263153      -2.02763004      -0.68695101
H       -2.01461628      -0.00308802      -1.12170998
H       -0.69807216      -1.56590242       1.85912680
H        1.38772524       1.91498531      -0.24321937
H       -1.12232887       2.12565279       0.43767239
14
Frame=7 idx=011119 GeodesicLength=0.37749989780123655 rxn_smarts="[C:1]1([H:8])([H:9])[C@:2]2([H:10])[C@@:3]3([H:11])[C@:4]2([H:12])[N:5]2[C@:6]1([H:13])[C@@:7]32[H:14]>>[C:1]1([H:8])([H:9])[C@:2]2([H:10])[C@:3]3([H:11])[C@@:6]1([H:13])[C@:7]3([H:14])[N:5]=[C:4]2[H:12]"
C        1.18977014      -0.31332036      -0.58470100
C       -0.12657210      -1.04211776      -0.28179500
C       -1.12325832       0.04048067      -0.49654802
C       -0.51626216      -0.77352435       1.13755827
N       -0.19066206       0.47574597       1.54216634
C        0.72223629       1.04612935      -0.19763160
C       -0.63386569       1.17232581       0.35025259
H        1.38261094      -0.38418031      -1.65715574
H        2.06971808      -0.67619328      -0.04593911
H       -0.30270953      -2.03078875      -0.68901289
H       -2.00387388       0.00499520      -1.12238779
H       -0.70898705      -1.56251691       1.85669331
H        1.36815382       1.91353237      -0.26282374
H       -1.12629849       2.12943232       0.45132438
14
Frame=8 idx=011119 GeodesicLength=0.4313974887024338 rxn_smarts="[C:1]1([H:8])([H:9])[C@:2]2([H:10])[C@@:3]3([H:11])[C@:4]2([H:12])[N:5]2[C@:6]1([H:13])[C@@:7]32[H:14]>>[C:1]1([H:8])([H:9])[C@:2]2([H:10])[C@:3]3([H:11])[C@@:6]1([H:13])[C@:7]3([H:14])[N:5]=[C:4]2[H:12]"
C        1.19216346      -0.31735175      -0.58395292
C       -0.12296410      -1.04690803      -0.28173200
C       -1.11277412       0.04595004      -0.49672011
C       -0.51953056      -0.77302901       1.13394761
N       -0.17179441       0.47346554       1.53949591
C        0.71068136       1.03962584      -0.20037457
C       -0.64024083       1.17550895       0.36031431
H        1.39170453      -0.38529269      -1.65522212
H        2.06945083      -0.67691914      -0.03907834
H       -0.30280778      -2.03392358      -0.69100356
H       -1.99326450       0.01293343      -1.12300385
H       -0.71933606      -1.55887486       1.85442064
H        1.34878015       1.91168939      -0.28151448
H       -1.13006796       2.13312585       0.46442350
14
Frame=9 idx=011119 GeodesicLength=0.4853058121112551 rxn_smarts="[C:1]1([H:8])([H:9])[C@:2]2([H:10])[C@@:3]3([H:11])[C@:4]2([H:12])[N:5]2[C@:6]1([H:13])[C@@:7]32[H:14]>>[C:1]1([H:8])([H:9])[C@:2]2([H:10])[C@:3]3([H:11])[C@@:6]1([H:13])[C@:7]3([H:14])[N:5]=[C:4]2[H:12]"
C        1.19448453      -0.32130637      -0.58328807
C       -0.11942444      -1.05165631      -0.28167269
C       -1.10247048       0.05132720      -0.49677715
C       -0.52263898      -0.77241612       1.13036068
N       -0.15357647       0.47131145       1.53652546
C        0.69934439       1.03309131      -0.20283211
C       -0.64649538       1.17853390       0.37018152
H        1.40058927      -0.38605830      -1.65336239
H        2.06912022      -0.67776965      -0.03253682
H       -0.30292240      -2.03703332      -0.69293346
H       -1.98277872       0.02074446      -1.12356948
H       -0.72917429      -1.55501132       1.85229288
H        1.32958872       1.90950934      -0.29940059
H       -1.13364598       2.13673374       0.47701222
14
Frame=10 idx=011119 GeodesicLength=0.539232669968676 rxn_smarts="[C:1]1([H:8])([H:9])[C@:2]2([H:10])[C@@:3]3([H:11])[C@:4]2([H:12])[N:5]2[C@:6]1([H:13])[C@@:7]32[H:14]>>[C:1]1([H:8])([H:9])[C@:2]2([H:10])[C@:3]3([H:11])[C@@:6]1([H:13])[C@:7]3([H:14])[N:5]=[C:4]2[H:12]"
C        1.19673856      -0.32518814      -0.58269678
C       -0.11594799      -1.05636215      -0.28161582
C       -1.09234679       0.05661220      -0.49671428
C       -0.52559053      -0.77170635       1.12680020
N       -0.13597247       0.46928092       1.53329029
C        0.68822959       1.02653307      -0.20501536
C       -0.65262749       1.18140558       0.37986412
H        1.40928365      -0.38649512      -1.65156387
H        2.06873117      -0.67874273      -0.02629010
H       -0.30304707      -2.04011712      -0.69480861
H       -1.97240641       0.02844681      -1.12409404
H       -0.73856323      -1.55095660       1.85029519
H        1.31055981       1.90703400      -0.31658068
H       -1.13704081       2.14025562       0.48912974
14
Frame=11 idx=011119 GeodesicLength=0.5931837155152153 rxn_smarts="[C:1]1([H:8])([H:9])[C@:2]2([H:10])[C@@:3]3([H:11])[C@:4]2([H:12])[N:5]2[C@:6]1([H:13])[C@@:7]32[H:14]>>[C:1]1([H:8])([H:9])[C@:2]2([H:10])[C@:3]3([H:11])[C@@:6]1([H:13])[C@:7]3([H:14])[N:5]=[C:4]2[H:12]"
C        1.19893278      -0.32900182      -0.58216905
C       -0.11252933      -1.06102616      -0.28155999
C       -1.08239976       0.06180578      -0.49652639
C       -0.52839123      -0.77091783       1.12326688
N       -0.11894328       0.46736290       1.52981882
C        0.67734294       1.01996004      -0.20692940
C       -0.65863186       1.18412710       0.38937689
H        1.41780671      -0.38661939      -1.64981508
H        2.06828887      -0.67983865      -0.02030960
H       -0.30317736      -2.04317181      -0.69663383
H       -1.96213424       0.03605611      -1.12458550
H       -0.74757057      -1.54673058       1.84840983
H        1.29166383       1.90431041      -0.33316543
H       -1.14025749       2.14368389       0.50082183
14
Frame=12 idx=011119 GeodesicLength=0.6471537242599319 rxn_smarts="[C:1]1([H:8])([H:9])[C@:2]2([H:10])[C@@:3]3([H:11])[C@:4]2([H:12])[N:5]2[C@:6]1([H:13])[C@@:7]32[H:14]>>[C:1]1([H:8])([H:9])[C@:2]2([H:10])[C@:3]3([H:11])[C@@:6]1([H:13])[C@:7]3([H:14])[N:5]=[C:4]2[H:12]"
C        1.20105958      -0.33274729      -0.58170770
C       -0.10917365      -1.06564157      -0.28150773
C       -1.07263911       0.06690599      -0.49622573
C       -0.53105746      -0.77005156       1.11975264
N       -0.10248607       0.46557952       1.52612132
C        0.66667766       1.01337712      -0.20860335
C       -0.66452210       1.18670913       0.39869674
H        1.42615433      -0.38643960      -1.64811117
H        2.06778646      -0.68105195      -0.01459295
H       -0.30331845      -2.04619005      -0.69841345
H       -1.95199284       0.04355444      -1.12502411
H       -0.75614005      -1.54235344       1.84663631
H        1.27296862       1.90131933      -0.34907519
H       -1.14331692       2.14702993       0.51205438
14
Frame=13 idx=011119 GeodesicLength=0.7011431383970242 rxn_smarts="[C:1]1([H:8])([H:9])[C@:2]2([H:10])[C@@:3]3([H:11])[C@:4]2([H:12])[N:5]2[C@:6]1([H:13])[C@@:7]32[H:14]>>[C:1]1([H:8])([H:9])[C@:2]2([H:10])[C@:3]3([H:11])[C@@:6]1([H:13])[C@:7]3([H:14])[N:5]=[C:4]2[H:12]"
C        1.20313010      -0.33643119      -0.58130636
C       -0.10587521      -1.07021305      -0.28146087
C       -1.06306238       0.07191612      -0.49581580
C       -0.53359587      -0.76912515       1.11626468
N       -0.08655759       0.46391948       1.52222316
C        0.65623479       1.00679651      -0.21004574
C       -0.67029351       1.18916054       0.40784368
H        1.43435357      -0.38597619      -1.64645166
H        2.06723658      -0.68238306      -0.00910987
H       -0.30346684      -2.04917762      -0.70015687
H       -1.94197418       0.05095614      -1.12542417
H       -0.76434430      -1.53784660       1.84497336
H        1.25443757       1.89810983      -0.36441442
H       -1.14622274       2.15029424       0.52288086
14
Frame=14 idx=011119 GeodesicLength=0.7551661840397963 rxn_smarts="[C:1]1([H:8])([H:9])[C@:2]2([H:10])[C@@:3]3([H:11])[C@:4]2([H:12])[N:5]2[C@:6]1([H:13])[C@@:7]32[H:14]>>[C:1]1([H:8])([H:9])[C@:2]2([H:10])[C@:3]3([H:11])[C@@:6]1([H:13])[C@:7]3([H:14])[N:5]=[C:4]2[H:12]"
C        1.20514015      -0.34005406      -0.58095457
C       -0.10262674      -1.07474040      -0.28141182
C       -1.05365740       0.07683532      -0.49528408
C       -0.53600350      -0.76814881       1.11279480
N       -0.07112883       0.46237465       1.51815604
C        0.64602031       1.00021778      -0.21126316
C       -0.67594576       1.19148207       0.41682078
H        1.44240446      -0.38523375      -1.64480933
H        2.06662435      -0.68382797      -0.00385172
H       -0.30361294      -2.05213170      -0.70186111
H       -1.93205588       0.05827522      -1.12578220
H       -0.77222768      -1.53321570       1.84338195
H        1.23605738       1.89469803      -0.37926437
H       -1.14898790       2.15346930       0.53332879
14
Frame=15 idx=011119 GeodesicLength=0.8092065242937998 rxn_smarts="[C:1]1([H:8])([H:9])[C@:2]2([H:10])[C@@:3]3([H:11])[C@:4]2([H:12])[N:5]2[C@:6]1([H:13])[C@@:7]32[H:14]>>[C:1]1([H:8])([H:9])[C@:2]2([H:10])[C@:3]3([H:11])[C@@:6]1([H:13])[C@:7]3([H:14])[N:5]=[C:4]2[H:12]"
C        1.20709507      -0.34362004      -0.58065878
C       -0.09943192      -1.07922249      -0.28136685
C       -1.04443530       0.08166474      -0.49465051
C       -0.53829941      -0.76712616       1.10934733
N       -0.05618239       0.46095694       1.51392254
C        0.63602239       0.99365241      -0.21228417
C       -0.68148557       1.19368512       0.42562558
H        1.45031833      -0.38423286      -1.64319940
H        2.06596557      -0.68538194       0.00119482
H       -0.30376239      -2.05505236      -0.70353307
H       -1.92226624       0.06549999      -1.12609786
H       -0.77977627      -1.52848154       1.84188410
H        1.21786000       1.89109238      -0.39357875
H       -1.15162185       2.15656579       0.54339502
14
Frame=16 idx=011119 GeodesicLength=0.8632596425657801 rxn_smarts="[C:1]1([H:8])([H:9])[C@:2]2([H:10])[C@@:3]3([H:11])[C@:4]2([H:12])[N:5]2[C@:6]1([H:13])[C@@:7]32[H:14]>>[C:1]1([H:8])([H:9])[C@:2]2([H:10])[C@:3]3([H:11])[C@@:6]1([H:13])[C@:7]3([H:14])[N:5]=[C:4]2[H:12]"
C        1.20898828      -0.34713092      -0.58042069
C       -0.09629340      -1.08365827      -0.28132559
C       -1.03539697       0.08640533      -0.49392477
C       -0.54049584      -0.76605798       1.10591623
N       -0.04170767       0.45967365       1.50953270
C        0.62623514       0.98710545      -0.21312753
C       -0.68692161       1.19577947       0.43424701
H        1.45808892      -0.38298296      -1.64161883
H        2.06525119      -0.68704286       0.00603293
H       -0.30391664      -2.05794050      -0.70516971
H       -1.91261813       0.07261996      -1.12636166
H       -0.78696156      -1.52365816       1.84047313
H        1.19988771       1.88729681      -0.40731707
H       -1.15413942       2.15959097       0.55306386
