14
Frame=0 idx=003729 GeodesicLength=0.0 rxn_smarts="[C:1]([C:2]#[C:3][C:4]1([H:10])[C:5]([H:11])([H:12])[C:6]1([H:13])[H:14])([H:7])([H:8])[H:9]>>[C:1]([C-:2]=[C:3]1[C+:4]([H:10])[C:6]([H:13])([H:14])[C:5]1([H:11])[H:12])([H:7])([H:8])[H:9]"
C        2.26392601       0.96844744      -0.05040393
C        1.55755287      -0.23779610       0.42482592
C        0.30001474      -0.48742345       0.45056583
C       -0.89726084      -1.00195110       0.95508838
C       -0.97658210       0.11229486      -0.58946222
C       -1.87469215      -1.01446301      -0.17044301
H        3.22599880       0.73697437      -0.50991442
H        2.48060939       1.59480959       0.82159213
H        1.67454393       1.58285220      -0.74705255
H       -1.20221953      -0.81179576       1.98373219
H       -1.29897518       1.09777494      -0.27786704
H       -0.50834446       0.09140484      -1.56900944
H       -2.89242685      -0.74412970       0.09791682
H       -1.85214458      -1.88699912      -0.81956861
14
Frame=1 idx=003729 GeodesicLength=0.06684727578859669 rxn_smarts="[C:1]([C:2]#[C:3][C:4]1([H:10])[C:5]([H:11])([H:12])[C:6]1([H:13])[H:14])([H:7])([H:8])[H:9]>>[C:1]([C-:2]=[C:3]1[C+:4]([H:10])[C:6]([H:13])([H:14])[C:5]1([H:11])[H:12])([H:7])([H:8])[H:9]"
C        2.28174307       0.96351215      -0.05087946
C        1.56353213      -0.24281552       0.40059645
C        0.30572886      -0.49549737       0.42131583
C       -0.88666671      -1.00188344       0.94237969
C       -1.00415883       0.13060277      -0.57534936
C       -1.88384320      -1.01551125      -0.16551554
H        3.29560234       0.73489231      -0.38467910
H        2.38683024       1.64757857       0.79805853
H        1.76713473       1.51785961      -0.84889188
H       -1.16923074      -0.83686796       1.98105588
H       -1.33270781       1.10888735      -0.24725100
H       -0.56254857       0.12983862      -1.56743782
H       -2.90017091      -0.76279447       0.12457982
H       -1.86124459      -1.87780135      -0.82798206
14
Frame=2 idx=003729 GeodesicLength=0.13401664586246992 rxn_smarts="[C:1]([C:2]#[C:3][C:4]1([H:10])[C:5]([H:11])([H:12])[C:6]1([H:13])[H:14])([H:7])([H:8])[H:9]>>[C:1]([C-:2]=[C:3]1[C+:4]([H:10])[C:6]([H:13])([H:14])[C:5]1([H:11])[H:12])([H:7])([H:8])[H:9]"
C        2.29888835       0.95725053      -0.05501128
C        1.56809161      -0.24385199       0.38512547
C        0.30998315      -0.49993848       0.39677904
C       -0.87715282      -1.00359732       0.92964542
C       -1.03156912       0.15216739      -0.55580417
C       -1.89100881      -1.01658709      -0.16291482
H        3.34990800       0.73531512      -0.25226592
H        2.29302661       1.70402452       0.74621681
H        1.87459177       1.43724571      -0.94795534
H       -1.13997933      -0.86902493       1.97722644
H       -1.36936233       1.12071816      -0.20809526
H       -0.61369795       0.17720709      -1.55784808
H       -2.90663363      -0.78551238       0.14711977
H       -1.86508553      -1.86541633      -0.84221808
14
Frame=3 idx=003729 GeodesicLength=0.20082361265537024 rxn_smarts="[C:1]([C:2]#[C:3][C:4]1([H:10])[C:5]([H:11])([H:12])[C:6]1([H:13])[H:14])([H:7])([H:8])[H:9]>>[C:1]([C-:2]=[C:3]1[C+:4]([H:10])[C:6]([H:13])([H:14])[C:5]1([H:11])[H:12])([H:7])([H:8])[H:9]"
C        2.31542170       0.94998335      -0.06214229
C        1.57161716      -0.24263886       0.37481894
C        0.31284589      -0.50049710       0.37674385
C       -0.86908408      -1.00511484       0.91765856
C       -1.05878021       0.17530845      -0.53257670
C       -1.89633792      -1.01800043      -0.16230358
H        3.38658025       0.74232833      -0.12073200
H        2.20676867       1.75639179       0.67107126
H        1.99185577       1.34730600      -1.03376509
H       -1.11474880      -0.90353796       1.97249287
H       -1.40873233       1.13212157      -0.16429968
H       -0.66166790       0.22973816      -1.54191352
H       -2.91200546      -0.81193654       0.16485501
H       -1.86373275      -1.85145191      -0.85990763
14
Frame=4 idx=003729 GeodesicLength=0.26660438332368885 rxn_smarts="[C:1]([C:2]#[C:3][C:4]1([H:10])[C:5]([H:11])([H:12])[C:6]1([H:13])[H:14])([H:7])([H:8])[H:9]>>[C:1]([C-:2]=[C:3]1[C+:4]([H:10])[C:6]([H:13])([H:14])[C:5]1([H:11])[H:12])([H:7])([H:8])[H:9]"
C        2.33141036       0.94188277      -0.07208892
C        1.57406124      -0.23822171       0.37161145
C        0.31461414      -0.49771906       0.36142757
C       -0.86238622      -1.00715692       0.90611171
C       -1.08561439       0.19995142      -0.50531640
C       -1.90000083      -1.01925010      -0.16396593
H        3.40604029       0.75795480       0.00760912
H        2.12958844       1.80473263       0.57170512
H        2.11659237       1.24592563      -1.10498818
H       -1.09329177      -0.94211357       1.96656626
H       -1.45034722       1.14277242      -0.11523835
H       -0.70643073       0.28725383      -1.51928058
H       -2.91626037      -0.84124267       0.17761258
H       -1.85797533      -1.83476948      -0.88176544
14
Frame=5 idx=003729 GeodesicLength=0.3310303462445505 rxn_smarts="[C:1]([C:2]#[C:3][C:4]1([H:10])[C:5]([H:11])([H:12])[C:6]1([H:13])[H:14])([H:7])([H:8])[H:9]>>[C:1]([C-:2]=[C:3]1[C+:4]([H:10])[C:6]([H:13])([H:14])[C:5]1([H:11])[H:12])([H:7])([H:8])[H:9]"
C        2.34692937       0.93299516      -0.08380232
C        1.57624142      -0.23309808       0.37049332
C        0.31585883      -0.49289073       0.34874368
C       -0.85656288      -1.00848287       0.89513876
C       -1.11194362       0.22464822      -0.47593710
C       -1.90253300      -1.02006722      -0.16691662
H        3.40932607       0.78469049       0.12907980
H        2.06242168       1.84293648       0.45547357
H        2.24517314       1.14005174      -1.15668576
H       -1.07390309      -0.98095836       1.95952636
H       -1.49282165       1.15206468      -0.06426338
H       -0.74902973       0.34604548      -1.49240070
H       -2.91944487      -0.87165984       0.18674672
H       -1.84971167      -1.81627514      -0.90519632
14
Frame=6 idx=003729 GeodesicLength=0.3936680358052771 rxn_smarts="[C:1]([C:2]#[C:3][C:4]1([H:10])[C:5]([H:11])([H:12])[C:6]1([H:13])[H:14])([H:7])([H:8])[H:9]>>[C:1]([C-:2]=[C:3]1[C+:4]([H:10])[C:6]([H:13])([H:14])[C:5]1([H:11])[H:12])([H:7])([H:8])[H:9]"
C        2.36205935       0.92385618      -0.09644911
C        1.57820453      -0.22698803       0.37116512
C        0.31687266      -0.48680579       0.33735550
C       -0.85117630      -1.00935749       0.88421939
C       -1.13781645       0.24887665      -0.44513615
C       -1.90447372      -1.02017517      -0.17077327
H        3.39751329       0.82274136       0.24201284
H        2.00624790       1.87005115       0.32530886
H        2.37599757       1.03165220      -1.18792712
H       -1.05526314      -1.02048117       1.95097988
H       -1.53541473       1.15977315      -0.01224484
H       -0.79035052       0.40471617      -1.46236616
H       -2.92165906      -0.90203259       0.19345272
H       -1.84074137      -1.79582663      -0.92959765
14
Frame=7 idx=003729 GeodesicLength=0.4549284940784722 rxn_smarts="[C:1]([C:2]#[C:3][C:4]1([H:10])[C:5]([H:11])([H:12])[C:6]1([H:13])[H:14])([H:7])([H:8])[H:9]>>[C:1]([C-:2]=[C:3]1[C+:4]([H:10])[C:6]([H:13])([H:14])[C:5]1([H:11])[H:12])([H:7])([H:8])[H:9]"
C        2.37708499       0.91485585      -0.10892059
C        1.58068975      -0.22279657       0.36730548
C        0.31798733      -0.48073323       0.32397058
C       -0.84549096      -1.00877653       0.87312454
C       -1.16348944       0.27141982      -0.41508307
C       -1.90681971      -1.01957865      -0.17404999
H        3.37139594       0.87066656       0.34635560
H        1.96079900       1.88302664       0.18960230
H        2.50903098       0.92930601      -1.19718408
H       -1.03487433      -1.05739033       1.94101744
H       -1.57684051       1.16583545       0.03765047
H       -0.83230284       0.45983471      -1.43230306
H       -2.92322854      -0.93075013       0.20062602
H       -1.83394166      -1.77491959      -0.95211165
14
Frame=8 idx=003729 GeodesicLength=0.5141271363129588 rxn_smarts="[C:1]([C:2]#[C:3][C:4]1([H:10])[C:5]([H:11])([H:12])[C:6]1([H:13])[H:14])([H:7])([H:8])[H:9]>>[C:1]([C-:2]=[C:3]1[C+:4]([H:10])[C:6]([H:13])([H:14])[C:5]1([H:11])[H:12])([H:7])([H:8])[H:9]"
C        2.39208218       0.90567405      -0.12180576
C        1.58326420      -0.21854335       0.36332215
C        0.31910500      -0.47411799       0.31020360
C       -0.83971429      -1.00786309       0.86164718
C       -1.18881128       0.29324039      -0.38414727
C       -1.90912842      -1.01811198      -0.17758921
H        3.33143899       0.92879778       0.44019876
H        1.92666624       1.88313888       0.04459093
H        2.64293424       0.82905392      -1.18574914
H       -1.01379781      -1.09484769       1.92919755
H       -1.61764167       1.17041362       0.08818276
H       -0.87424965       0.51392957      -1.40023073
H       -2.92401800      -0.95860264       0.20698852
H       -1.82812973      -1.75216147      -0.97480935
14
Frame=9 idx=003729 GeodesicLength=0.5715000931808424 rxn_smarts="[C:1]([C:2]#[C:3][C:4]1([H:10])[C:5]([H:11])([H:12])[C:6]1([H:13])[H:14])([H:7])([H:8])[H:9]>>[C:1]([C-:2]=[C:3]1[C+:4]([H:10])[C:6]([H:13])([H:14])[C:5]1([H:11])[H:12])([H:7])([H:8])[H:9]"
C        2.40749760       0.89619936      -0.13443511
C        1.58663142      -0.21758775       0.35275373
C        0.32003280      -0.46673063       0.29475158
C       -0.83376585      -1.00485663       0.85050056
C       -1.21414249       0.31345425      -0.35428542
C       -1.91171811      -1.01630629      -0.18025845
H        3.27943386       0.99097065       0.52161641
H        1.90526840       1.86891318      -0.09877249
H        2.77528571       0.74158805      -1.15439404
H       -0.99137210      -1.12815864       1.91653886
H       -1.65782227       1.17363193       0.13592582
H       -0.91731740       0.56413023      -1.36882414
H       -2.92424966      -0.98538922       0.21387031
H       -1.82376190      -1.72985849      -0.99498761
14
Frame=10 idx=003729 GeodesicLength=0.6262134500688704 rxn_smarts="[C:1]([C:2]#[C:3][C:4]1([H:10])[C:5]([H:11])([H:12])[C:6]1([H:13])[H:14])([H:7])([H:8])[H:9]>>[C:1]([C-:2]=[C:3]1[C+:4]([H:10])[C:6]([H:13])([H:14])[C:5]1([H:11])[H:12])([H:7])([H:8])[H:9]"
C        2.42303019       0.88620577      -0.14797167
C        1.58961404      -0.21430869       0.34680646
C        0.32080135      -0.45767379       0.28108152
C       -0.82804776      -1.00222144       0.83902444
C       -1.23912409       0.33370220      -0.32207671
C       -1.91359892      -1.01362050      -0.18417080
H        3.21638420       1.06252231       0.58686979
H        1.89719290       1.84146624      -0.25103197
H        2.90344955       0.65474378      -1.10399968
H       -0.96965662      -1.16455415       1.90160258
H       -1.69842506       1.17519898       0.18650754
H       -0.95967148       0.61554071      -1.33344961
H       -2.92346912      -1.01245168       0.21803025
H       -1.81847919      -1.70454974      -1.01722216
14
Frame=11 idx=003729 GeodesicLength=0.6799246969880467 rxn_smarts="[C:1]([C:2]#[C:3][C:4]1([H:10])[C:5]([H:11])([H:12])[C:6]1([H:13])[H:14])([H:7])([H:8])[H:9]>>[C:1]([C-:2]=[C:3]1[C+:4]([H:10])[C:6]([H:13])([H:14])[C:5]1([H:11])[H:12])([H:7])([H:8])[H:9]"
C        2.43910656       0.87532679      -0.16150130
C        1.59373271      -0.21582599       0.33240921
C        0.32120402      -0.44713590       0.26676107
C       -0.82235230      -0.99699958       0.82857583
C       -1.26416496       0.35259602      -0.29083566
C       -1.91533746      -1.01072597      -0.18717592
H        3.14380932       1.13227687       0.63764203
H        1.90207744       1.80070816      -0.39564390
H        3.02641451       0.58522006      -1.03776386
H       -0.94732363      -1.19543819       1.88664337
H       -1.73897052       1.17559627       0.23417724
H       -1.00289928       0.66335012      -1.29866731
H       -2.92197904      -1.03893116       0.22212842
H       -1.81331737      -1.68001748      -1.03674921
14
Frame=12 idx=003729 GeodesicLength=0.7335069080331047 rxn_smarts="[C:1]([C:2]#[C:3][C:4]1([H:10])[C:5]([H:11])([H:12])[C:6]1([H:13])[H:14])([H:7])([H:8])[H:9]>>[C:1]([C-:2]=[C:3]1[C+:4]([H:10])[C:6]([H:13])([H:14])[C:5]1([H:11])[H:12])([H:7])([H:8])[H:9]"
C        2.45538028       0.86465373      -0.17420213
C        1.59881127      -0.22095353       0.31185396
C        0.32227763      -0.43869085       0.24733822
C       -0.81526620      -0.99195856       0.81646052
C       -1.28822020       0.37030240      -0.25984349
C       -1.91846354      -1.00644524      -0.18878183
H        3.05545475       1.20765639       0.67687247
H        1.91942733       1.74603530      -0.54211966
H        3.14856378       0.52781340      -0.94986209
H       -0.92088703      -1.22604911       1.86890791
H       -1.77552064       1.17524117       0.28212869
H       -1.04750214       0.70851121      -1.26403036
H       -2.92015761      -1.06208683       0.22983845
H       -1.81389767      -1.65402948      -1.05456064
14
Frame=13 idx=003729 GeodesicLength=0.7876018584033027 rxn_smarts="[C:1]([C:2]#[C:3][C:4]1([H:10])[C:5]([H:11])([H:12])[C:6]1([H:13])[H:14])([H:7])([H:8])[H:9]>>[C:1]([C-:2]=[C:3]1[C+:4]([H:10])[C:6]([H:13])([H:14])[C:5]1([H:11])[H:12])([H:7])([H:8])[H:9]"
C        2.47176148       0.85501048      -0.18431059
C        1.60505384      -0.23114419       0.28145359
C        0.32418420      -0.43346800       0.21956266
C       -0.80615350      -0.98619364       0.80220785
C       -1.31073361       0.38593501      -0.23173117
C       -1.92379051      -1.00122105      -0.18757863
H        2.95366994       1.28084408       0.70399014
H        1.95162942       1.68154430      -0.67986912
H        3.26418986       0.48928767      -0.84198402
H       -0.88858791      -1.25361661       1.84835983
H       -1.80597682       1.17502319       0.32677425
H       -1.09400321       0.74774224      -1.23323688
H       -2.91826494      -1.08055460       0.24432730
H       -1.82297823      -1.62918888      -1.06796521
14
Frame=14 idx=003729 GeodesicLength=0.8420537984332547 rxn_smarts="[C:1]([C:2]#[C:3][C:4]1([H:10])[C:5]([H:11])([H:12])[C:6]1([H:13])[H:14])([H:7])([H:8])[H:9]>>[C:1]([C-:2]=[C:3]1[C+:4]([H:10])[C:6]([H:13])([H:14])[C:5]1([H:11])[H:12])([H:7])([H:8])[H:9]"
C        2.48876924       0.84455632      -0.19503847
C        1.61073574      -0.24005238       0.25253488
C        0.32498135      -0.42293391       0.19587378
C       -0.79785208      -0.97795616       0.78965430
C       -1.33414063       0.40129526      -0.20290306
C       -1.92721764      -0.99672484      -0.18738710
H        2.85475291       1.34568433       0.70954126
H        1.99973199       1.61111726      -0.80528540
H        3.36147804       0.46090222      -0.72798232
H       -0.85876459      -1.27846842       1.82788524
H       -1.84040789       1.17301028       0.37047235
H       -1.14031716       0.78649110      -1.20046057
H       -2.91482206      -1.10216984       0.25466430
H       -1.82692722      -1.60475122      -1.08156919
14
Frame=15 idx=003729 GeodesicLength=0.896498850233254 rxn_smarts="[C:1]([C:2]#[C:3][C:4]1([H:10])[C:5]([H:11])([H:12])[C:6]1([H:13])[H:14])([H:7])([H:8])[H:9]>>[C:1]([C-:2]=[C:3]1[C+:4]([H:10])[C:6]([H:13])([H:14])[C:5]1([H:11])[H:12])([H:7])([H:8])[H:9]"
C        2.50592128       0.83293989      -0.20679621
C        1.61582006      -0.24615543       0.23035558
C        0.32529025      -0.40813073       0.17825436
C       -0.79068016      -0.96858403       0.77884426
C       -1.35760844       0.41665512      -0.17186652
C       -1.92828115      -0.99225366      -0.18930860
H        2.76059510       1.40727745       0.69276940
H        2.05875180       1.53190373      -0.92128625
H        3.44021832       0.43945049      -0.61129545
H       -0.83276538      -1.30322483       1.80716215
H       -1.87811439       1.16876373       0.41533621
H       -1.18456735       0.82634610      -1.16355803
H       -2.90972420      -1.12636758       0.25873968
H       -1.82485574      -1.57862024      -1.09735058
14
Frame=16 idx=003729 GeodesicLength=0.9511318047822561 rxn_smarts="[C:1]([C:2]#[C:3][C:4]1([H:10])[C:5]([H:11])([H:12])[C:6]1([H:13])[H:14])([H:7])([H:8])[H:9]>>[C:1]([C-:2]=[C:3]1[C+:4]([H:10])[C:6]([H:13])([H:14])[C:5]1([H:11])[H:12])([H:7])([H:8])[H:9]"
C        2.52266776       0.82120662      -0.21807555
C        1.62080511      -0.25026889       0.21417895
C        0.32614546      -0.39367749       0.16124559
C       -0.78339409      -0.96009006       0.76737538
C       -1.37958811       0.43142885      -0.13914989
C       -1.92886334      -0.98667729      -0.19223387
H        2.66592312       1.47065901       0.65492688
H        2.12747653       1.44013280      -1.03027917
H        3.50392055       0.42765010      -0.48659966
H       -0.80723305      -1.33032520       1.78368176
H       -1.91389713       1.16284490       0.46230617
H       -1.22699606       0.86622455      -1.12357895
H       -2.90372459      -1.14944304       0.26075533
H       -1.82324216      -1.54966485      -1.11455298
