11
Frame=0 idx=004436 GeodesicLength=0.0 rxn_smarts="[C:1]([C@@:2]([C:3]#[C:4][H:11])([C:5]#[N:6])[H:10])([H:7])([H:8])[H:9]>>[C:1]([C:2](=[C:3]=[C:4]([H:10])[H:11])[C:5]#[N:6])([H:7])([H:8])[H:9]"
C       -1.22963077      -0.54172650      -0.59870183
C       -0.18020444       0.35668168      -0.01407087
C        1.15026402      -0.06934017       0.09647825
C        2.27466887      -0.58195182      -0.18228696
C       -0.54823936       1.63117840       0.49685740
N       -0.88171325       2.66617681       0.87782126
H       -1.46648157      -1.37286871       0.06914141
H       -2.14818655       0.01374256      -0.78202502
H       -0.85806255      -0.96429988      -1.53564962
H        0.90093112       0.05266904       1.22238789
H        2.98665443      -1.19026146       0.35004812
11
Frame=1 idx=004436 GeodesicLength=0.09800994841315623 rxn_smarts="[C:1]([C@@:2]([C:3]#[C:4][H:11])([C:5]#[N:6])[H:10])([H:7])([H:8])[H:9]>>[C:1]([C:2](=[C:3]=[C:4]([H:10])[H:11])[C:5]#[N:6])([H:7])([H:8])[H:9]"
C       -1.22282224      -0.54482838      -0.59315834
C       -0.18241296       0.35760532       0.00198773
C        1.15879863      -0.03500348       0.06676081
C        2.28754898      -0.56293564      -0.14552839
C       -0.55334669       1.64278063       0.48671647
N       -0.89282706       2.68518630       0.84029136
H       -1.40277917      -1.41671768       0.03915575
H       -2.16831295      -0.01819724      -0.71421492
H       -0.87494165      -0.90263658      -1.56531141
H        0.91458969       0.05399941       1.22585640
H        2.93650542      -1.25925265       0.35744455
11
Frame=2 idx=004436 GeodesicLength=0.19627876597596033 rxn_smarts="[C:1]([C@@:2]([C:3]#[C:4][H:11])([C:5]#[N:6])[H:10])([H:7])([H:8])[H:9]>>[C:1]([C:2](=[C:3]=[C:4]([H:10])[H:11])[C:5]#[N:6])([H:7])([H:8])[H:9]"
C       -1.21598313      -0.54768495      -0.58766410
C       -0.18331954       0.35669709       0.01924048
C        1.16559947      -0.00658511       0.04225338
C        2.29805440      -0.54389050      -0.10257110
C       -0.55659900       1.65347294       0.47453786
N       -0.90055561       2.70365666       0.79862530
H       -1.34113256      -1.45627650       0.00453579
H       -2.18384643      -0.05197774      -0.64718052
H       -0.89531295      -0.84051529      -1.59024666
H        0.92433576       0.05174030       1.23430534
H        2.88875961      -1.31863692       0.35416423
11
Frame=3 idx=004436 GeodesicLength=0.2948379563709035 rxn_smarts="[C:1]([C@@:2]([C:3]#[C:4][H:11])([C:5]#[N:6])[H:10])([H:7])([H:8])[H:9]>>[C:1]([C:2](=[C:3]=[C:4]([H:10])[H:11])[C:5]#[N:6])([H:7])([H:8])[H:9]"
C       -1.20928299      -0.55015563      -0.58221295
C       -0.18313148       0.35463431       0.03702128
C        1.17108433       0.01661050       0.02253573
C        2.30549555      -0.52620081      -0.05361568
C       -0.55832175       1.66336361       0.46060645
N       -0.90528942       2.72153226       0.75311328
H       -1.28194296      -1.49116083      -0.03386822
H       -2.19511696      -0.08723476      -0.58146961
H       -0.91880623      -0.77859172      -1.61022680
H        0.92969867       0.04580984       1.24756349
H        2.84561324      -1.36860677       0.34055302
11
Frame=4 idx=004436 GeodesicLength=0.3935298409128777 rxn_smarts="[C:1]([C@@:2]([C:3]#[C:4][H:11])([C:5]#[N:6])[H:10])([H:7])([H:8])[H:9]>>[C:1]([C:2](=[C:3]=[C:4]([H:10])[H:11])[C:5]#[N:6])([H:7])([H:8])[H:9]"
C       -1.20334385      -0.55199074      -0.57692105
C       -0.18213298       0.35170904       0.05445330
C        1.17538887       0.03469805       0.00623456
C        2.30888290      -0.51187687      -0.00059433
C       -0.55839739       1.67224689       0.44532788
N       -0.90663880       2.73827788       0.70489013
H       -1.22627145      -1.52093014      -0.07532379
H       -2.20272555      -0.12305294      -0.51750446
H       -0.94572500      -0.71755389      -1.62535588
H        0.93056089       0.03561378       1.26453230
H        2.81040236      -1.40714105       0.32026134
11
Frame=5 idx=004436 GeodesicLength=0.49234160739122146 rxn_smarts="[C:1]([C@@:2]([C:3]#[C:4][H:11])([C:5]#[N:6])[H:10])([H:7])([H:8])[H:9]>>[C:1]([C:2](=[C:3]=[C:4]([H:10])[H:11])[C:5]#[N:6])([H:7])([H:8])[H:9]"
C       -1.19844363      -0.55324393      -0.57180116
C       -0.18047527       0.34821075       0.07114079
C        1.17893498       0.04804617      -0.00720672
C        2.30807530      -0.50084373       0.05572259
C       -0.55686186       1.68025586       0.42909550
N       -0.90494873       2.75377374       0.65526519
H       -1.17585659      -1.54519173      -0.11770753
H       -2.20706962      -0.15805067      -0.45744822
H       -0.97493892      -0.65947901      -1.63546202
H        0.92694384       0.02085591       1.28479777
H        2.78464049      -1.43433337       0.29360382
11
Frame=6 idx=004436 GeodesicLength=0.5910353512520847 rxn_smarts="[C:1]([C@@:2]([C:3]#[C:4][H:11])([C:5]#[N:6])[H:10])([H:7])([H:8])[H:9]>>[C:1]([C:2](=[C:3]=[C:4]([H:10])[H:11])[C:5]#[N:6])([H:7])([H:8])[H:9]"
C       -1.19454301      -0.55370954      -0.56685329
C       -0.17819123       0.34450739       0.08642124
C        1.18185949       0.05769666      -0.01962299
C        2.30245026      -0.49446678       0.11246812
C       -0.55370261       1.68734332       0.41201757
N       -0.90065927       2.76731809       0.60560938
H       -1.12978066      -1.56427808      -0.16098194
H       -2.20854206      -0.19219311      -0.40008521
H       -1.00653369      -0.60386624      -1.64127880
H        0.91942708       0.00233542       1.30679517
H        2.76821570      -1.45068713       0.26551076
11
Frame=7 idx=004436 GeodesicLength=0.6897169522454895 rxn_smarts="[C:1]([C@@:2]([C:3]#[C:4][H:11])([C:5]#[N:6])[H:10])([H:7])([H:8])[H:9]>>[C:1]([C:2](=[C:3]=[C:4]([H:10])[H:11])[C:5]#[N:6])([H:7])([H:8])[H:9]"
C       -1.19242872      -0.55348325      -0.56215268
C       -0.17561657       0.34009895       0.10035658
C        1.18404867       0.06290286      -0.03176648
C        2.29242590      -0.49169534       0.16854750
C       -0.54867451       1.69318969       0.39468386
N       -0.89262155       2.77913014       0.55615735
H       -1.08989171      -1.57875215      -0.20431960
H       -2.20823874      -0.22431068      -0.34622912
H       -1.04056556      -0.55117827      -1.64327065
H        0.90814586      -0.02113655       1.32994671
H        2.76341693      -1.45476541       0.23804652
11
Frame=8 idx=004436 GeodesicLength=0.788362756176445 rxn_smarts="[C:1]([C@@:2]([C:3]#[C:4][H:11])([C:5]#[N:6])[H:10])([H:7])([H:8])[H:9]>>[C:1]([C:2](=[C:3]=[C:4]([H:10])[H:11])[C:5]#[N:6])([H:7])([H:8])[H:9]"
C       -1.19155194      -0.55259626      -0.55758881
C       -0.17257259       0.33540509       0.11298729
C        1.18597661       0.06510294      -0.04436258
C        2.27801377      -0.49289066       0.22274188
C       -0.54214188       1.69809396       0.37743742
N       -0.88198406       2.78937916       0.50701385
H       -1.05452363      -1.58922967      -0.24796672
H       -2.20618917      -0.25513574      -0.29478090
H       -1.07650974      -0.50076727      -1.64183903
H        0.89382690      -0.04836135       1.35367905
H        2.76765574      -1.44900020       0.21267853
11
Frame=9 idx=004436 GeodesicLength=0.8869727333987407 rxn_smarts="[C:1]([C@@:2]([C:3]#[C:4][H:11])([C:5]#[N:6])[H:10])([H:7])([H:8])[H:9]>>[C:1]([C:2](=[C:3]=[C:4]([H:10])[H:11])[C:5]#[N:6])([H:7])([H:8])[H:9]"
C       -1.19250572      -0.55101387      -0.55319377
C       -0.16920787       0.32992270       0.12403025
C        1.18723954       0.06354389      -0.05869517
C        2.25980586      -0.49687962       0.27348381
C       -0.53364275       1.70161657       0.36024266
N       -0.86765876       2.79754574       0.45905329
H       -1.02490062      -1.59606491      -0.29159697
H       -2.20304073      -0.28391658      -0.24570011
H       -1.11482259      -0.45253012      -1.63736063
H        0.87661688      -0.08018481       1.37697428
H        2.78211676      -1.43203900       0.19276237
11
Frame=10 idx=004436 GeodesicLength=0.9855722841255496 rxn_smarts="[C:1]([C@@:2]([C:3]#[C:4][H:11])([C:5]#[N:6])[H:10])([H:7])([H:8])[H:9]>>[C:1]([C:2](=[C:3]=[C:4]([H:10])[H:11])[C:5]#[N:6])([H:7])([H:8])[H:9]"
C       -1.19494849      -0.54894380      -0.54897269
C       -0.16516488       0.32387566       0.13341684
C        1.18850779       0.05911770      -0.07565310
C        2.23836837      -0.50331192       0.31956813
C       -0.52327661       1.70419337       0.34313712
N       -0.85094634       2.80405827       0.41343744
H       -1.00031273      -1.59992019      -0.33489314
H       -2.19900314      -0.31087192      -0.19895444
H       -1.15491645      -0.40668500      -1.63015330
H        0.85780781      -0.11575119       1.39917556
H        2.80388468      -1.40576098       0.17989158
11
Frame=11 idx=004436 GeodesicLength=1.0841081178843 rxn_smarts="[C:1]([C@@:2]([C:3]#[C:4][H:11])([C:5]#[N:6])[H:10])([H:7])([H:8])[H:9]>>[C:1]([C:2](=[C:3]=[C:4]([H:10])[H:11])[C:5]#[N:6])([H:7])([H:8])[H:9]"
C       -1.19891929      -0.54633227      -0.54480007
C       -0.16045671       0.31694711       0.14111771
C        1.18939247       0.05154331      -0.09583689
C        2.21422937      -0.51117286       0.36057756
C       -0.51089371       1.70539906       0.32618172
N       -0.83110648       2.80856069       0.36977761
H       -0.98081100      -1.60104672      -0.37811016
H       -2.19407316      -0.33609155      -0.15376312
H       -1.19695399      -0.36252142      -1.62027395
H        0.83719308      -0.15549325       1.41987054
H        2.83239941      -1.36979209       0.17525906
11
Frame=12 idx=004436 GeodesicLength=1.1825693635813859 rxn_smarts="[C:1]([C@@:2]([C:3]#[C:4][H:11])([C:5]#[N:6])[H:10])([H:7])([H:8])[H:9]>>[C:1]([C:2](=[C:3]=[C:4]([H:10])[H:11])[C:5]#[N:6])([H:7])([H:8])[H:9]"
C       -1.20417223      -0.54325299      -0.54056661
C       -0.15489502       0.30907254       0.14723002
C        1.19002871       0.04110756      -0.11961068
C        2.18780770      -0.52001565       0.39629394
C       -0.49653246       1.70519968       0.30954546
N       -0.80826535       2.81116351       0.32780626
H       -0.96594779      -1.59977418      -0.42138450
H       -2.18817356      -0.35994984      -0.10968695
H       -1.24062999      -0.31967653      -1.60768169
H        0.81513943      -0.19931471       1.43881114
H        2.86564055      -1.32455940       0.17924362
11
Frame=13 idx=004436 GeodesicLength=1.281046229324293 rxn_smarts="[C:1]([C@@:2]([C:3]#[C:4][H:11])([C:5]#[N:6])[H:10])([H:7])([H:8])[H:9]>>[C:1]([C:2](=[C:3]=[C:4]([H:10])[H:11])[C:5]#[N:6])([H:7])([H:8])[H:9]"
C       -1.21049982      -0.53987504      -0.53622883
C       -0.14817500       0.30017527       0.15168668
C        1.19065342       0.02797408      -0.14751227
C        2.15984005      -0.52875254       0.42618667
C       -0.48016170       1.70366137       0.29327637
N       -0.78252866       2.81209911       0.28759743
H       -0.95523616      -1.59652704      -0.46511661
H       -2.18114393      -0.38300926      -0.06623950
H       -1.28605896      -0.27778288      -1.59230107
H        0.79242320      -0.24719868       1.45563079
H        2.90088755      -1.27076439       0.19302035
11
Frame=14 idx=004436 GeodesicLength=1.3794245393315046 rxn_smarts="[C:1]([C@@:2]([C:3]#[C:4][H:11])([C:5]#[N:6])[H:10])([H:7])([H:8])[H:9]>>[C:1]([C:2](=[C:3]=[C:4]([H:10])[H:11])[C:5]#[N:6])([H:7])([H:8])[H:9]"
C       -1.21771066      -0.53621630      -0.53165391
C       -0.14019967       0.29005251       0.15458373
C        1.19112172       0.01194606      -0.17947673
C        2.13036571      -0.53754699       0.45057168
C       -0.46159991       1.70061229       0.27714041
N       -0.75368133       2.81118181       0.24925820
H       -0.94898490      -1.59143642      -0.50850019
H       -2.17298686      -0.40485451      -0.02378208
H       -1.33225763      -0.23714868      -1.57413525
H        0.76898789      -0.29919653       1.47035510
H        2.93694564      -1.20739323       0.21563905
11
Frame=15 idx=004436 GeodesicLength=1.477750730366485 rxn_smarts="[C:1]([C@@:2]([C:3]#[C:4][H:11])([C:5]#[N:6])[H:10])([H:7])([H:8])[H:9]>>[C:1]([C:2](=[C:3]=[C:4]([H:10])[H:11])[C:5]#[N:6])([H:7])([H:8])[H:9]"
C       -1.22533741      -0.53240446      -0.52673998
C       -0.13070111       0.27875540       0.15600134
C        1.19165303      -0.00653181      -0.21544771
C        2.09977566      -0.54602626       0.46932177
C       -0.44094723       1.69613234       0.26114010
N       -0.72203526       2.80856910       0.21261234
H       -0.94642387      -1.58473093      -0.55163720
H       -2.16334300      -0.42603771       0.01795215
H       -1.37875406      -0.19755594      -1.55305226
H        0.74552561      -0.35490640       1.48290570
H        2.97058763      -1.13526334       0.24694374
11
Frame=16 idx=004436 GeodesicLength=1.5760476012331692 rxn_smarts="[C:1]([C@@:2]([C:3]#[C:4][H:11])([C:5]#[N:6])[H:10])([H:7])([H:8])[H:9]>>[C:1]([C:2](=[C:3]=[C:4]([H:10])[H:11])[C:5]#[N:6])([H:7])([H:8])[H:9]"
C       -1.23284976      -0.52852315      -0.52138313
C       -0.11953315       0.26640038       0.15613761
C        1.19237741      -0.02691740      -0.25490218
C        2.06819373      -0.55451471       0.48255711
C       -0.41837578       1.69032664       0.24520443
N       -0.68802776       2.80435656       0.17754989
H       -0.94686675      -1.57653675      -0.59411809
H       -2.15192024      -0.44677722       0.05879330
H       -1.42457276      -0.15910451      -1.52905311
H        0.72259145      -0.41366864       1.49346017
H        2.99898362      -1.05504118       0.28575399
