12
Frame=0 idx=003230 GeodesicLength=0.0 rxn_smarts="[C:1]1([H:5])([H:6])[C:2]([H:7])([H:8])[C:3]([H:9])([H:10])[C:4]1([H:11])[H:12]>>[C:1]1([H:5])([H:6])[C:2]([H:8])=[C:3]([H:10])[C:4]1([H:11])[H:12].[H:7][H:9]"
C       -0.49995439      -1.02108626       0.33570520
C       -0.17986452       0.25030399       1.08976436
C        0.51057150       0.83030879      -0.04730169
C        0.52895993      -0.53104093      -0.72072952
H       -1.51609116      -1.09419402      -0.08280642
H       -0.26681427      -1.97034173       0.82161572
H       -0.66918419       1.18714483       0.01077047
H       -0.53589190       0.69291952       2.00765199
H       -0.40619898       1.60624392      -1.01919857
H        1.26675040       1.60716953      -0.05695848
H        0.25994058      -0.57426193      -1.77618361
H        1.50777697      -0.98316571      -0.56232946
12
Frame=1 idx=003230 GeodesicLength=0.10187146206239037 rxn_smarts="[C:1]1([H:5])([H:6])[C:2]([H:7])([H:8])[C:3]([H:9])([H:10])[C:4]1([H:11])[H:12]>>[C:1]1([H:5])([H:6])[C:2]([H:8])=[C:3]([H:10])[C:4]1([H:11])[H:12].[H:7][H:9]"
C       -0.50117481      -1.02040070       0.33144405
C       -0.19244087       0.25693156       1.08016312
C        0.51021310       0.83035535      -0.05135286
C        0.53522943      -0.53425262      -0.71921476
H       -1.51397296      -1.09618830      -0.09310777
H       -0.27040390      -1.96548113       0.82640647
H       -0.69849273       1.20622696       0.01186368
H       -0.50770066       0.68414313       2.01952657
H       -0.42022411       1.61047205      -1.02239319
H        1.27638500       1.59778630      -0.05112848
H        0.27028533      -0.58070054      -1.77565866
H        1.51229720      -0.98889206      -0.55654817
12
Frame=2 idx=003230 GeodesicLength=0.2037428976823907 rxn_smarts="[C:1]1([H:5])([H:6])[C:2]([H:7])([H:8])[C:3]([H:9])([H:10])[C:4]1([H:11])[H:12]>>[C:1]1([H:5])([H:6])[C:2]([H:8])=[C:3]([H:10])[C:4]1([H:11])[H:12].[H:7][H:9]"
C       -0.50252990      -1.01942986       0.32713996
C       -0.20553731       0.26411293       1.07013669
C        0.51015849       0.83039924      -0.05551211
C        0.54172117      -0.53756273      -0.71744619
H       -1.51178427      -1.09803612      -0.10379096
H       -0.27446094      -1.96014820       0.83144613
H       -0.72916471       1.22566189       0.01308374
H       -0.47753232       0.67421053       2.03007407
H       -0.43487598       1.61456378      -1.02510770
H        1.28599910       1.58834975      -0.04501311
H        0.28112888      -0.58727474      -1.77492113
H        1.51687780      -0.99484646      -0.55008939
12
Frame=3 idx=003230 GeodesicLength=0.30561346743107365 rxn_smarts="[C:1]1([H:5])([H:6])[C:2]([H:7])([H:8])[C:3]([H:9])([H:10])[C:4]1([H:11])[H:12]>>[C:1]1([H:5])([H:6])[C:2]([H:8])=[C:3]([H:10])[C:4]1([H:11])[H:12].[H:7][H:9]"
C       -0.50395078      -1.01815433       0.32284930
C       -0.21897101       0.27185734       1.05972830
C        0.51052286       0.83041657      -0.05976901
C        0.54843218      -0.54098293      -0.71543612
H       -1.50947972      -1.09969867      -0.11472420
H       -0.27892330      -1.95433277       0.83675688
H       -0.76126095       1.24540409       0.01453762
H       -0.44580981       0.66313724       2.03885257
H       -0.45015431       1.61857020      -1.02714481
H        1.29571062       1.57882758      -0.03864161
H        0.29238121      -0.59396358      -1.77396114
H        1.52150300      -1.00108075      -0.54304777
12
Frame=4 idx=003230 GeodesicLength=0.40750098857084716 rxn_smarts="[C:1]1([H:5])([H:6])[C:2]([H:7])([H:8])[C:3]([H:9])([H:10])[C:4]1([H:11])[H:12]>>[C:1]1([H:5])([H:6])[C:2]([H:8])=[C:3]([H:10])[C:4]1([H:11])[H:12].[H:7][H:9]"
C       -0.50534576      -1.01656421       0.31862909
C       -0.23248183       0.28014450       1.04899581
C        0.51146129       0.83036576      -0.06411571
C        0.55536281      -0.54453085      -0.71322772
H       -1.50701752      -1.10114056      -0.12574485
H       -0.28369082      -1.94803472       0.84233591
H       -0.79484298       1.26535210       0.01638797
H       -0.41318137       0.65110464       2.04542967
H       -0.46605343       1.62253901      -1.02825027
H        1.30570031       1.56915938      -0.03205127
H        0.30391732      -0.60074004      -1.77279478
H        1.52617199      -1.00765502      -0.53559383
12
Frame=5 idx=003230 GeodesicLength=0.5093256115954861 rxn_smarts="[C:1]1([H:5])([H:6])[C:2]([H:7])([H:8])[C:3]([H:9])([H:10])[C:4]1([H:11])[H:12]>>[C:1]1([H:5])([H:6])[C:2]([H:8])=[C:3]([H:10])[C:4]1([H:11])[H:12].[H:7][H:9]"
C       -0.50657037      -1.01466872       0.31453280
C       -0.24572796       0.28891507       1.03797058
C        0.51315156       0.83018230      -0.06856941
C        0.56250249      -0.54823757      -0.71088329
H       -1.50428820      -1.10230698      -0.13665566
H       -0.28860418      -1.94128681       0.84818568
H       -0.82991462       1.28540443       0.01882191
H       -0.38055506       0.63841047       2.04939937
H       -0.48254608       1.62657345      -1.02809084
H        1.31613734       1.55924855      -0.02532902
H        0.31557333      -0.60755670      -1.77143443
H        1.53084176      -1.01467750      -0.52794768
12
Frame=6 idx=003230 GeodesicLength=0.6111684230482868 rxn_smarts="[C:1]1([H:5])([H:6])[C:2]([H:7])([H:8])[C:3]([H:9])([H:10])[C:4]1([H:11])[H:12]>>[C:1]1([H:5])([H:6])[C:2]([H:8])=[C:3]([H:10])[C:4]1([H:11])[H:12].[H:7][H:9]"
C       -0.50752408      -1.01249056       0.31058699
C       -0.25843847       0.29812507       1.02668826
C        0.51578464       0.82980774      -0.07314303
C        0.56986822      -0.55214315      -0.70851015
H       -1.50126929      -1.10320323      -0.14732204
H       -0.29352551      -1.93411311       0.85428625
H       -0.86659217       1.30538461       0.02202475
H       -0.34874988       0.62552685       2.05062176
H       -0.49959784       1.63074654      -1.02637138
H        1.32727411       1.54899913      -0.01851168
H        0.32722296      -0.61440120      -1.76997954
H        1.53554731      -1.02223867      -0.52037020
12
Frame=7 idx=003230 GeodesicLength=0.713031856306133 rxn_smarts="[C:1]1([H:5])([H:6])[C:2]([H:7])([H:8])[C:3]([H:9])([H:10])[C:4]1([H:11])[H:12]>>[C:1]1([H:5])([H:6])[C:2]([H:8])=[C:3]([H:10])[C:4]1([H:11])[H:12].[H:7][H:9]"
C       -0.50810267      -1.01005361       0.30679460
C       -0.27040079       0.30773844       1.01511143
C        0.51952440       0.82917873      -0.07786917
C        0.57746840      -0.55629220      -0.70620373
H       -1.49789660      -1.10383446      -0.15765327
H       -0.29831324      -1.92653028       0.86063096
H       -0.90501525       1.32511583       0.02612128
H       -0.31846916       0.61292086       2.04907867
H       -0.51715018       1.63517295      -1.02279055
H        1.33930805       1.53829039      -0.01163588
H        0.33876077      -0.62125828      -1.76850674
H        1.54028626      -1.03044837      -0.51307760
12
Frame=8 idx=003230 GeodesicLength=0.8149323256484483 rxn_smarts="[C:1]1([H:5])([H:6])[C:2]([H:7])([H:8])[C:3]([H:9])([H:10])[C:4]1([H:11])[H:12]>>[C:1]1([H:5])([H:6])[C:2]([H:8])=[C:3]([H:10])[C:4]1([H:11])[H:12].[H:7][H:9]"
C       -0.50824020      -1.00737778       0.30314245
C       -0.28149804       0.31775519       1.00316303
C        0.52452728       0.82824067      -0.08279435
C        0.58532301      -0.56072873      -0.70406547
H       -1.49414621      -1.10424660      -0.16761170
H       -0.30286364      -1.91851817       0.86723777
H       -0.94539201       1.34439306       0.03117813
H       -0.29022834       0.60102704       2.04489416
H       -0.53512436       1.63997727      -1.01705090
H        1.35244180       1.52701212      -0.00472157
H        0.35012289      -0.62813970      -1.76711993
H        1.54507784      -1.03939438      -0.50625160
12
Frame=9 idx=003230 GeodesicLength=0.9167759723003476 rxn_smarts="[C:1]1([H:5])([H:6])[C:2]([H:7])([H:8])[C:3]([H:9])([H:10])[C:4]1([H:11])[H:12]>>[C:1]1([H:5])([H:6])[C:2]([H:8])=[C:3]([H:10])[C:4]1([H:11])[H:12].[H:7][H:9]"
C       -0.50787190      -1.00446520       0.29959855
C       -0.29170469       0.32819905       0.99066401
C        0.53088245       0.82695026      -0.08795131
C        0.59341335      -0.56547992      -0.70213198
H       -1.48991032      -1.10447133      -0.17719701
H       -0.30708923      -1.91004400       0.87410330
H       -0.98799594       1.36296080       0.03715858
H       -0.26422761       0.59019536       2.03818376
H       -0.55338740       1.64532203      -1.00890450
H        1.36678467       1.51501749       0.00226638
H        0.36126492      -0.63501929      -1.76580902
H        1.54984171      -1.04916524      -0.49998075
12
Frame=10 idx=003230 GeodesicLength=1.0186412046578674 rxn_smarts="[C:1]1([H:5])([H:6])[C:2]([H:7])([H:8])[C:3]([H:9])([H:10])[C:4]1([H:11])[H:12]>>[C:1]1([H:5])([H:6])[C:2]([H:8])=[C:3]([H:10])[C:4]1([H:11])[H:12].[H:7][H:9]"
C       -0.50697392      -1.00131617       0.29614579
C       -0.30102310       0.33914171       0.97749668
C        0.53875315       0.82526080      -0.09340208
C        0.60177750      -0.57059452      -0.70051997
H       -1.48522162      -1.10459360      -0.18642280
H       -0.31091768      -1.90102141       0.88130632
H       -1.03315932       1.38054304       0.04404079
H       -0.24076802       0.58079605       2.02917017
H       -0.57183355       1.65138722      -0.99801377
H        1.38256753       1.50218497       0.00934853
H        0.37216332      -0.64194472      -1.76473186
H        1.55463571      -1.05984336      -0.49441780
12
Frame=11 idx=003230 GeodesicLength=1.1205025799277364 rxn_smarts="[C:1]1([H:5])([H:6])[C:2]([H:7])([H:8])[C:3]([H:9])([H:10])[C:4]1([H:11])[H:12]>>[C:1]1([H:5])([H:6])[C:2]([H:8])=[C:3]([H:10])[C:4]1([H:11])[H:12].[H:7][H:9]"
C       -0.50551327      -0.99790827       0.29276110
C       -0.30950741       0.35067579       0.96345692
C        0.54824784       0.82313399      -0.09919506
C        0.61041461      -0.57610576      -0.69928528
H       -1.48002586      -1.10467152      -0.19531339
H       -0.31428198      -1.89135070       0.88890910
H       -1.08125646       1.39680146       0.05170590
H       -0.21991492       0.57311662       2.01798682
H       -0.59031571       1.65840264      -0.98404788
H        1.39993570       1.48834926       0.01659646
H        0.38279870      -0.64892331      -1.76393613
H        1.55941876      -1.07152020      -0.48963855
12
Frame=12 idx=003230 GeodesicLength=1.22234993518733 rxn_smarts="[C:1]1([H:5])([H:6])[C:2]([H:7])([H:8])[C:3]([H:9])([H:10])[C:4]1([H:11])[H:12]>>[C:1]1([H:5])([H:6])[C:2]([H:8])=[C:3]([H:10])[C:4]1([H:11])[H:12].[H:7][H:9]"
C       -0.50346870      -0.99420509       0.28942748
C       -0.31722420       0.36291787       0.94832721
C        0.55948706       0.82053223      -0.10538094
C        0.61932711      -0.58204501      -0.69848779
H       -1.47429123      -1.10477153      -0.20388809
H       -0.31712795      -1.88089554       0.89699542
H       -1.13267628       1.41133443       0.05998369
H       -0.20170103       0.56742077       2.00473268
H       -0.60868332       1.66662687      -0.96660674
H        1.41904795       1.47333642       0.02409466
H        0.39315360      -0.65597278      -1.76348199
H        1.56415698      -1.08427865      -0.48571558
12
Frame=13 idx=003230 GeodesicLength=1.3241796797634415 rxn_smarts="[C:1]1([H:5])([H:6])[C:2]([H:7])([H:8])[C:3]([H:9])([H:10])[C:4]1([H:11])[H:12]>>[C:1]1([H:5])([H:6])[C:2]([H:8])=[C:3]([H:10])[C:4]1([H:11])[H:12].[H:7][H:9]"
C       -0.50082248      -0.99015676       0.28613345
C       -0.32424045       0.37599623       0.93187702
C        0.57258444       0.81741940      -0.11201046
C        0.62851302      -0.58844047      -0.69818342
H       -1.46798913      -1.10495177      -0.21215630
H       -0.31940511      -1.86949774       0.90565562
H       -1.18777935       1.42368678       0.06865110
H       -0.18613290       0.56395900       1.98946213
H       -0.62679262       1.67634144      -0.94523491
H        1.44004761       1.45695475       0.03194558
H        0.40320951      -0.66311096      -1.76342557
H        1.56880747      -1.09819989      -0.48271425
12
Frame=14 idx=003230 GeodesicLength=1.4259863727749107 rxn_smarts="[C:1]1([H:5])([H:6])[C:2]([H:7])([H:8])[C:3]([H:9])([H:10])[C:4]1([H:11])[H:12]>>[C:1]1([H:5])([H:6])[C:2]([H:8])=[C:3]([H:10])[C:4]1([H:11])[H:12].[H:7][H:9]"
C       -0.49756587      -0.98570327       0.28286993
C       -0.33061370       0.39003332       0.91387825
C        0.58762546       0.81376448      -0.11913431
C        0.63796642      -0.59531426      -0.69841909
H       -1.46110188      -1.10525287      -0.22011895
H       -0.32107713      -1.85698698       0.91497243
H       -1.24681252       1.43338489       0.07743332
H       -0.17318781       0.56295485       1.97219539
H       -0.64453743       1.68781715      -0.91944085
H        1.46302842       1.43901252       0.04025939
H        0.41295420      -0.67036063      -1.76381508
H        1.57332183      -1.11334919      -0.48068045
12
Frame=15 idx=003230 GeodesicLength=1.5277720646339645 rxn_smarts="[C:1]1([H:5])([H:6])[C:2]([H:7])([H:8])[C:3]([H:9])([H:10])[C:4]1([H:11])[H:12]>>[C:1]1([H:5])([H:6])[C:2]([H:8])=[C:3]([H:10])[C:4]1([H:11])[H:12].[H:7][H:9]"
C       -0.49370995      -0.98078024       0.27962266
C       -0.33638375       0.40511632       0.89413725
C        0.60462395       0.80955220      -0.12679985
C        0.64767770      -0.60267559      -0.69921748
H       -1.45363374      -1.10567773      -0.22777915
H       -0.32214243      -1.84320563       0.92498898
H       -1.30979805       1.44001629       0.08603410
H       -0.16277281       0.56456427       1.95294604
H       -0.66188927       1.70124395      -0.88878149
H        1.48797556       1.41935223       0.04913450
H        0.42240140      -0.67775446      -1.76467675
H        1.57765138      -1.12975161      -0.47960880
12
Frame=16 idx=003230 GeodesicLength=1.6295454535028755 rxn_smarts="[C:1]1([H:5])([H:6])[C:2]([H:7])([H:8])[C:3]([H:9])([H:10])[C:4]1([H:11])[H:12]>>[C:1]1([H:5])([H:6])[C:2]([H:8])=[C:3]([H:10])[C:4]1([H:11])[H:12].[H:7][H:9]"
C       -0.48930338      -0.97533210       0.27636141
C       -0.34156203       0.42125499       0.87254956
C        0.62346708       0.80479939      -0.13504694
C        0.65763951      -0.61051377      -0.70055792
H       -1.44563008      -1.10616705      -0.23516373
H       -0.32267085      -1.82804996       0.93566976
H       -1.37638246       1.44336922       0.09420199
H       -0.15467172       0.56880332       1.93176805
H       -0.67896056       1.71662415      -0.85300388
H        1.51468778       1.39791808       0.05862067
H        0.43162219      -0.68534937      -1.76600193
H        1.58176452      -1.14735691      -0.47939703
