12
Frame=0 idx=000781 GeodesicLength=0.0 rxn_smarts="[N:1]([C:2](=[O:3])[C@@:4]1([H:9])[C:5]([H:10])([H:11])[N:6]1[H:12])([H:7])[H:8]>>[N:1](/[C:2]([O:3][H:9])=[C:4]1/[C:5]([H:10])([H:11])[N:6]1[H:12])([H:7])[H:8]"
N        1.81678582      -0.00548727      -0.18224395
C        0.78537939       0.61438390       0.34859306
O        0.81871194       1.78493420       0.85809900
C       -0.56833566       0.12619569       0.52816643
C       -1.34606881      -0.24688943      -0.69005392
N       -0.79800724      -1.27820304       0.17190559
H        2.74381910       0.37980489      -0.15389866
H        1.66315806      -0.95016636      -0.49991206
H       -0.29107519       1.49881216       1.19297788
H       -0.90336140      -0.20116878      -1.68130248
H       -2.41212326      -0.04618145      -0.66443477
H       -1.50888278      -1.67603454       0.77210383
12
Frame=1 idx=000781 GeodesicLength=0.048203929730022625 rxn_smarts="[N:1]([C:2](=[O:3])[C@@:4]1([H:9])[C:5]([H:10])([H:11])[N:6]1[H:12])([H:7])[H:8]>>[N:1](/[C:2]([O:3][H:9])=[C:4]1/[C:5]([H:10])([H:11])[N:6]1[H:12])([H:7])[H:8]"
N        1.82566165      -0.00538398      -0.18506427
C        0.78724439       0.62516054       0.32498930
O        0.82433031       1.78293673       0.86452136
C       -0.55879337       0.12539069       0.51264381
C       -1.35798761      -0.24441796      -0.68977430
N       -0.79308514      -1.27757423       0.16146754
H        2.75566720       0.36794870      -0.11839725
H        1.67196851      -0.95286871      -0.49374940
H       -0.30511085       1.49879583       1.18228133
H       -0.93281847      -0.19738311      -1.68854577
H       -2.42395829      -0.04654991      -0.64450603
H       -1.49311832      -1.67605460       0.77413367
12
Frame=2 idx=000781 GeodesicLength=0.09622185237305773 rxn_smarts="[N:1]([C:2](=[O:3])[C@@:4]1([H:9])[C:5]([H:10])([H:11])[N:6]1[H:12])([H:7])[H:8]>>[N:1](/[C:2]([O:3][H:9])=[C:4]1/[C:5]([H:10])([H:11])[N:6]1[H:12])([H:7])[H:8]"
N        1.83456092      -0.00571181      -0.18674141
C        0.78940668       0.63573663       0.30190230
O        0.82980085       1.78017357       0.87102831
C       -0.54918457       0.12474822       0.49665779
C       -1.36942720      -0.24185701      -0.68963228
N       -0.78839859      -1.27680625       0.15096816
H        2.76551215       0.35763371      -0.08622930
H        1.68086695      -0.95617261      -0.48564028
H       -0.31900630       1.49799668       1.17230572
H       -0.96161400      -0.19375423      -1.69550050
H       -2.43488997      -0.04644928      -0.62499532
H       -1.47762692      -1.67553763       0.77587681
12
Frame=3 idx=000781 GeodesicLength=0.1440803857534941 rxn_smarts="[N:1]([C:2](=[O:3])[C@@:4]1([H:9])[C:5]([H:10])([H:11])[N:6]1[H:12])([H:7])[H:8]>>[N:1](/[C:2]([O:3][H:9])=[C:4]1/[C:5]([H:10])([H:11])[N:6]1[H:12])([H:7])[H:8]"
N        1.84341047      -0.00627215      -0.18776547
C        0.79191341       0.64597255       0.27946732
O        0.83485777       1.77712861       0.87661251
C       -0.53950564       0.12419475       0.48026997
C       -1.38049917      -0.23919151      -0.68952250
N       -0.78388593      -1.27594856       0.14034792
H        2.77389731       0.34827340      -0.05595506
H        1.68974097      -0.95981663      -0.47618526
H       -0.33267664       1.49629959       1.16316535
H       -0.98995684      -0.19005855      -1.70210560
H       -2.44504556      -0.04592733      -0.60564350
H       -1.46225015      -1.67465417       0.77731433
12
Frame=4 idx=000781 GeodesicLength=0.1918045114241306 rxn_smarts="[N:1]([C:2](=[O:3])[C@@:4]1([H:9])[C:5]([H:10])([H:11])[N:6]1[H:12])([H:7])[H:8]>>[N:1](/[C:2]([O:3][H:9])=[C:4]1/[C:5]([H:10])([H:11])[N:6]1[H:12])([H:7])[H:8]"
N        1.85219778      -0.00702342      -0.18829748
C        0.79478161       0.65576020       0.25781735
O        0.83941039       1.77411578       0.88081740
C       -0.52978656       0.12369496       0.46352705
C       -1.39124527      -0.23640255      -0.68941286
N       -0.77954503      -1.27502888       0.12957827
H        2.78107429       0.33970583      -0.02715522
H        1.69855764      -0.96373884      -0.46554483
H       -0.34609671       1.49359789       1.15498917
H       -1.01790334      -0.18620274      -1.70834709
H       -2.45447603      -0.04498587      -0.58638228
H       -1.44696879      -1.67349237       0.77841054
12
Frame=5 idx=000781 GeodesicLength=0.239451494514336 rxn_smarts="[N:1]([C:2](=[O:3])[C@@:4]1([H:9])[C:5]([H:10])([H:11])[N:6]1[H:12])([H:7])[H:8]>>[N:1](/[C:2]([O:3][H:9])=[C:4]1/[C:5]([H:10])([H:11])[N:6]1[H:12])([H:7])[H:8]"
N        1.86096680      -0.00797560      -0.18834849
C        0.79800101       0.66504436       0.23690166
O        0.84340596       1.77145893       0.88323311
C       -0.52004201       0.12321888       0.44642509
C       -1.40174144      -0.23346586      -0.68926398
N       -0.77534920      -1.27405637       0.11858269
H        2.78724025       0.33172588       0.00065005
H        1.70731991      -0.96786664      -0.45386375
H       -0.35923727       1.48977755       1.14786499
H       -1.04560934      -0.18206226      -1.71421128
H       -2.46326391      -0.04366087      -0.56707807
H       -1.43169077      -1.67213800       0.77910796
12
Frame=6 idx=000781 GeodesicLength=0.2870535009436831 rxn_smarts="[N:1]([C:2](=[O:3])[C@@:4]1([H:9])[C:5]([H:10])([H:11])[N:6]1[H:12])([H:7])[H:8]>>[N:1](/[C:2]([O:3][H:9])=[C:4]1/[C:5]([H:10])([H:11])[N:6]1[H:12])([H:7])[H:8]"
N        1.86975304      -0.00912778      -0.18793564
C        0.80155770       0.67386187       0.21656957
O        0.84689489       1.76932951       0.88373112
C       -0.51026966       0.12277700       0.42891884
C       -1.41207081      -0.23037217      -0.68905524
N       -0.77126144      -1.27303045       0.10729972
H        2.79253674       0.32416071       0.02795192
H        1.71601005      -0.97214484      -0.44130679
H       -0.37209022       1.48480382       1.14175735
H       -1.07327724      -0.17759081      -1.71972444
H       -2.47148897      -0.04201423      -0.54760196
H       -1.41629408      -1.67065261       0.77939555
12
Frame=7 idx=000781 GeodesicLength=0.33465238367050887 rxn_smarts="[N:1]([C:2](=[O:3])[C@@:4]1([H:9])[C:5]([H:10])([H:11])[N:6]1[H:12])([H:7])[H:8]>>[N:1](/[C:2]([O:3][H:9])=[C:4]1/[C:5]([H:10])([H:11])[N:6]1[H:12])([H:7])[H:8]"
N        1.87859891      -0.01047249      -0.18703571
C        0.80543001       0.68226131       0.19661754
O        0.84991817       1.76789952       0.88217029
C       -0.50045777       0.12238507       0.41094513
C       -1.42231039      -0.22712032      -0.68875039
N       -0.76722619      -1.27193766       0.09565976
H        2.79703255       0.31675611       0.05533600
H        1.72460577      -0.97646671      -0.42812394
H       -0.38463665       1.47864493       1.13660529
H       -1.10111928      -0.17275318      -1.72488721
H       -2.47921507      -0.04011550      -0.52779572
H       -1.40062006      -1.66908109       0.77925898
12
Frame=8 idx=000781 GeodesicLength=0.3822922051852043 rxn_smarts="[N:1]([C:2](=[O:3])[C@@:4]1([H:9])[C:5]([H:10])([H:11])[N:6]1[H:12])([H:7])[H:8]>>[N:1](/[C:2]([O:3][H:9])=[C:4]1/[C:5]([H:10])([H:11])[N:6]1[H:12])([H:7])[H:8]"
N        1.88754959      -0.01201914      -0.18559054
C        0.80961410       0.69028780       0.17685342
O        0.85252301       1.76727869       0.87846721
C       -0.49059375       0.12206255       0.39243149
C       -1.43253349      -0.22370148      -0.68831875
N       -0.76320074      -1.27076603       0.08358872
H        2.80075012       0.30935490       0.08325010
H        1.73310704      -0.98078576      -0.41446642
H       -0.39685513       1.47128087       1.13231963
H       -1.12934103      -0.16750061      -1.72969424
H       -2.48649480      -0.03802640      -0.50751179
H       -1.38452492      -1.66746540       0.77867117
12
Frame=9 idx=000781 GeodesicLength=0.42999835316921087 rxn_smarts="[N:1]([C:2](=[O:3])[C@@:4]1([H:9])[C:5]([H:10])([H:11])[N:6]1[H:12])([H:7])[H:8]>>[N:1](/[C:2]([O:3][H:9])=[C:4]1/[C:5]([H:10])([H:11])[N:6]1[H:12])([H:7])[H:8]"
N        1.89663816      -0.01375599      -0.18354768
C        0.81410482       0.69800064       0.15706948
O        0.85474933       1.76757815       0.87251478
C       -0.48065632       0.12183924       0.37329236
C       -1.44280377      -0.22011541      -0.68772691
N       -0.75913291      -1.26949873       0.07100714
H        2.80363099       0.30174652       0.11222437
H        1.74149858      -0.98502799      -0.40053774
H       -0.40868583       1.46268721       1.12881808
H       -1.15815106      -0.16180438      -1.73413737
H       -2.49335388      -0.03581252      -0.48658777
H       -1.36783811      -1.66583675       0.77761127
12
Frame=10 idx=000781 GeodesicLength=0.4778170487168344 rxn_smarts="[N:1]([C:2](=[O:3])[C@@:4]1([H:9])[C:5]([H:10])([H:11])[N:6]1[H:12])([H:7])[H:8]>>[N:1](/[C:2]([O:3][H:9])=[C:4]1/[C:5]([H:10])([H:11])[N:6]1[H:12])([H:7])[H:8]"
N        1.90588608      -0.01573826      -0.18079792
C        0.81890159       0.70535098       0.13712266
O        0.85660693       1.76883203       0.86420873
C       -0.47064867       0.12170140       0.35344606
C       -1.45318275      -0.21630941      -0.68694896
N       -0.75501448      -1.26811760       0.05777387
H        2.80562938       0.29407714       0.14219777
H        1.74985997      -0.98933087      -0.38594171
H       -0.42005838       1.45275975       1.12607696
H       -1.18771632      -0.15551993      -1.73816515
H       -2.49980886      -0.03346511      -0.46490355
H       -1.35045450      -1.66424013       0.77593126
12
Frame=11 idx=000781 GeodesicLength=0.525722484409765 rxn_smarts="[N:1]([C:2](=[O:3])[C@@:4]1([H:9])[C:5]([H:10])([H:11])[N:6]1[H:12])([H:7])[H:8]>>[N:1](/[C:2]([O:3][H:9])=[C:4]1/[C:5]([H:10])([H:11])[N:6]1[H:12])([H:7])[H:8]"
N        1.91523528      -0.01797827      -0.17734869
C        0.82401444       0.71233586       0.11707108
O        0.85819260       1.77088027       0.85394076
C       -0.46061715       0.12169183       0.33288847
C       -1.46361673      -0.21230116      -0.68603148
N       -0.75091426      -1.26661577       0.04395847
H        2.80673174       0.28661369       0.17265886
H        1.75814280      -0.99375438      -0.37046436
H       -0.43096362       1.44149306       1.12408062
H       -1.21790316      -0.14877862      -1.74179872
H       -2.50578719      -0.03097091      -0.44261429
H       -1.33251474      -1.66261558       0.77365927
12
Frame=12 idx=000781 GeodesicLength=0.5736997246786144 rxn_smarts="[N:1]([C:2](=[O:3])[C@@:4]1([H:9])[C:5]([H:10])([H:11])[N:6]1[H:12])([H:7])[H:8]>>[N:1](/[C:2]([O:3][H:9])=[C:4]1/[C:5]([H:10])([H:11])[N:6]1[H:12])([H:7])[H:8]"
N        1.92463717      -0.02047688      -0.17321966
C        0.82943753       0.71893508       0.09691365
O        0.85955048       1.77359462       0.84193575
C       -0.45059617       0.12183698       0.31159793
C       -1.47407071      -0.20809529      -0.68498618
N       -0.74686061      -1.26496874       0.02959941
H        2.80693562       0.27951661       0.20334535
H        1.76629419      -0.99831713      -0.35395813
H       -0.44138037       1.42884805       1.12279138
H       -1.24863852      -0.14164796      -1.74500727
H       -2.51123322      -0.02832412      -0.41980371
H       -1.31407541      -1.66090122       0.77079148
12
Frame=13 idx=000781 GeodesicLength=0.6217083188965733 rxn_smarts="[N:1]([C:2](=[O:3])[C@@:4]1([H:9])[C:5]([H:10])([H:11])[N:6]1[H:12])([H:7])[H:8]>>[N:1](/[C:2]([O:3][H:9])=[C:4]1/[C:5]([H:10])([H:11])[N:6]1[H:12])([H:7])[H:8]"
N        1.93402614      -0.02323317      -0.16842655
C        0.83515651       0.72512768       0.07665681
O        0.86071392       1.77686498       0.82839747
C       -0.44062409       0.12214955       0.28957051
C       -1.48450326      -0.20369989      -0.68383483
N       -0.74289491      -1.26316584       0.01473837
H        2.80627608       0.27297051       0.23394688
H        1.77423238      -1.00304229      -0.33624261
H       -0.45125869       1.41477579       1.12221837
H       -1.27982237      -0.13418336      -1.74777763
H       -2.51609013      -0.02551033      -0.39658054
H       -1.29521158      -1.65905361       0.76733376
12
Frame=14 idx=000781 GeodesicLength=0.6697397879747373 rxn_smarts="[N:1]([C:2](=[O:3])[C@@:4]1([H:9])[C:5]([H:10])([H:11])[N:6]1[H:12])([H:7])[H:8]>>[N:1](/[C:2]([O:3][H:9])=[C:4]1/[C:5]([H:10])([H:11])[N:6]1[H:12])([H:7])[H:8]"
N        1.94334523      -0.02624582      -0.16300859
C        0.84117331       0.73091471       0.05635236
O        0.86173254       1.78053460       0.81362351
C       -0.43073666       0.12266000       0.26681862
C       -1.49486805      -0.19912782      -0.68259912
N       -0.73904843      -1.26119550      -0.00054309
H        2.80481701       0.26712214       0.26416514
H        1.78187204      -1.00791402      -0.31724848
H       -0.46061135       1.39927572       1.12228842
H       -1.31134296      -0.12648368      -1.75010124
H       -2.52031183      -0.02252502      -0.37306694
H       -1.27602085      -1.65701532       0.76331943
12
Frame=15 idx=000781 GeodesicLength=0.7177668811513542 rxn_smarts="[N:1]([C:2](=[O:3])[C@@:4]1([H:9])[C:5]([H:10])([H:11])[N:6]1[H:12])([H:7])[H:8]>>[N:1](/[C:2]([O:3][H:9])=[C:4]1/[C:5]([H:10])([H:11])[N:6]1[H:12])([H:7])[H:8]"
N        1.95253262      -0.02949521      -0.15701305
C        0.84747372       0.73630345       0.03601059
O        0.86262955       1.78450636       0.79779968
C       -0.42096172       0.12338535       0.24335461
C       -1.50512282      -0.19439273      -0.68129344
N       -0.73533965      -1.25904976      -0.01618032
H        2.80260956       0.26204169       0.29384497
H        1.78910809      -1.01289133      -0.29695082
H       -0.46941126       1.38231900       1.12297183
H       -1.34310489      -0.11862061      -1.75196872
H       -2.52385512      -0.01936215      -0.34936086
H       -1.25655808      -1.65474404       0.75878552
12
Frame=16 idx=000781 GeodesicLength=0.7657628412765742 rxn_smarts="[N:1]([C:2](=[O:3])[C@@:4]1([H:9])[C:5]([H:10])([H:11])[N:6]1[H:12])([H:7])[H:8]>>[N:1](/[C:2]([O:3][H:9])=[C:4]1/[C:5]([H:10])([H:11])[N:6]1[H:12])([H:7])[H:8]"
N        1.96152452      -0.03294469      -0.15051013
C        0.85404317       0.74131730       0.01567034
O        0.86343445       1.78866641       0.78116273
C       -0.41132397       0.12435195       0.21921435
C       -1.51520255      -0.18952239      -0.67992714
N       -0.73177258      -1.25671510      -0.03205605
H        2.79968124       0.25771314       0.32291490
H        1.79581731      -1.01787877      -0.27552640
H       -0.47767886       1.36392219       1.12418371
H       -1.37496775      -0.11071116      -1.75336843
H       -2.52666805      -0.01602744      -0.32557852
H       -1.23688693      -1.65217143       0.75382065
