15
Frame=0 idx=008797 GeodesicLength=0.0 rxn_smarts="[O:1]=[C:2]1[C:3]([H:8])([H:9])[C:4]([H:10])([H:11])[C:5]([H:12])([H:13])[C:6]([H:14])=[C:7]1[H:15]>>[H:9][H:11].[O:1]=[C:2]1[C:3]([H:8])=[C:4]([H:10])[C:5]([H:12])([H:13])[C:6]([H:14])=[C:7]1[H:15]"
O        0.97513717      -2.68855958      -0.24128011
C        0.55745272      -1.54348183      -0.11531352
C       -0.78446844      -1.12972614      -0.36797583
C       -1.15545738       0.27469280      -0.16419825
C       -0.07519145       1.29891822      -0.37990420
C        1.23038427       0.82882181       0.19486542
C        1.50029720      -0.46559295       0.33167843
H       -1.54835627      -1.85329798      -0.61076183
H       -1.18060059      -0.31919140       0.94207258
H       -2.15435588       0.53658072      -0.49962587
H       -1.43103263       0.61344078       1.19579032
H        0.01451729       1.40357287      -1.46975580
H       -0.36629974       2.27228908       0.01743058
H        1.96557940       1.58362426       0.45076220
H        2.45239437      -0.81209059       0.71621588
15
Frame=1 idx=008797 GeodesicLength=0.10620167599488255 rxn_smarts="[O:1]=[C:2]1[C:3]([H:8])([H:9])[C:4]([H:10])([H:11])[C:5]([H:12])([H:13])[C:6]([H:14])=[C:7]1[H:15]>>[H:9][H:11].[O:1]=[C:2]1[C:3]([H:8])=[C:4]([H:10])[C:5]([H:12])([H:13])[C:6]([H:14])=[C:7]1[H:15]"
O        0.96151911      -2.69553710      -0.19305636
C        0.55948675      -1.54174555      -0.11140701
C       -0.78606222      -1.12545165      -0.36122351
C       -1.15576901       0.27716721      -0.16192588
C       -0.07514007       1.30046701      -0.37988198
C        1.23399803       0.83026278       0.18505914
C        1.50697667      -0.46373341       0.32043629
H       -1.53757449      -1.84057434      -0.66112577
H       -1.19673442      -0.34603385       0.96513381
H       -2.15038596       0.54099850      -0.50958834
H       -1.43990696       0.59967234       1.21561180
H        0.01019812       1.41622178      -1.46891080
H       -0.36348132       2.27146040       0.02596940
H        1.97485154       1.58483739       0.42533071
H        2.45802423      -0.80801150       0.70957849
15
Frame=2 idx=008797 GeodesicLength=0.21200391815548486 rxn_smarts="[O:1]=[C:2]1[C:3]([H:8])([H:9])[C:4]([H:10])([H:11])[C:5]([H:12])([H:13])[C:6]([H:14])=[C:7]1[H:15]>>[H:9][H:11].[O:1]=[C:2]1[C:3]([H:8])=[C:4]([H:10])[C:5]([H:12])([H:13])[C:6]([H:14])=[C:7]1[H:15]"
O        0.94793157      -2.70050668      -0.14668750
C        0.56105883      -1.54017764      -0.10653708
C       -0.78825452      -1.12137533      -0.35357709
C       -1.15617242       0.27982409      -0.15983959
C       -0.07489914       1.30183457      -0.38030312
C        1.23752573       0.83146716       0.17523432
C        1.51313368      -0.46211890       0.30997678
H       -1.52464203      -1.82619653      -0.71045820
H       -1.21376858      -0.37390151       0.98855129
H       -2.14639073       0.54555542      -0.51963045
H       -1.44887233       0.58536078       1.23549691
H        0.00627097       1.42821745      -1.46842680
H       -0.36033140       2.27054187       0.03375326
H        1.98383855       1.58566877       0.39983590
H        2.46357180      -0.80419352       0.70261136
15
Frame=3 idx=008797 GeodesicLength=0.3176057443250444 rxn_smarts="[O:1]=[C:2]1[C:3]([H:8])([H:9])[C:4]([H:10])([H:11])[C:5]([H:12])([H:13])[C:6]([H:14])=[C:7]1[H:15]>>[H:9][H:11].[O:1]=[C:2]1[C:3]([H:8])=[C:4]([H:10])[C:5]([H:12])([H:13])[C:6]([H:14])=[C:7]1[H:15]"
O        0.93449778      -2.70368281      -0.10239956
C        0.56212653      -1.53869552      -0.10064287
C       -0.79105210      -1.11741804      -0.34519102
C       -1.15665195       0.28272815      -0.15809961
C       -0.07443889       1.30309472      -0.38116012
C        1.24095577       0.83247254       0.16547461
C        1.51873955      -0.46071298       0.30039759
H       -1.50971031      -1.81030880      -0.75798021
H       -1.23179937      -0.40290218       1.01225973
H       -2.14232482       0.55030289      -0.52997094
H       -1.45803987       0.57036227       1.25531143
H        0.00286244       1.43969557      -1.46828905
H       -0.35685114       2.26958278       0.04082757
H        1.99255431       1.58612903       0.37437337
H        2.46913207      -0.80064763       0.69508907
15
Frame=4 idx=008797 GeodesicLength=0.4232159102399732 rxn_smarts="[O:1]=[C:2]1[C:3]([H:8])([H:9])[C:4]([H:10])([H:11])[C:5]([H:12])([H:13])[C:6]([H:14])=[C:7]1[H:15]>>[H:9][H:11].[O:1]=[C:2]1[C:3]([H:8])=[C:4]([H:10])[C:5]([H:12])([H:13])[C:6]([H:14])=[C:7]1[H:15]"
O        0.92133148      -2.70525028      -0.06043451
C        0.56268222      -1.53720791      -0.09373430
C       -0.79443012      -1.11348253      -0.33623444
C       -1.15717619       0.28595527      -0.15688121
C       -0.07372039       1.30433562      -0.38246056
C        1.24429782       0.83332659       0.15583121
C        1.52380135      -0.45947178       0.29172901
H       -1.49308679      -1.79317690      -0.80283225
H       -1.25085650      -0.43317927       1.03618582
H       -2.13814801       0.55531180      -0.54081488
H       -1.46749846       0.55451147       1.27490477
H        0.00009807       1.45082504      -1.46849978
H       -0.35303761       2.26864488       0.04723426
H        2.00100837       1.58623661       0.34907802
H        2.47473477      -0.79737861       0.68692885
15
Frame=5 idx=008797 GeodesicLength=0.5289235899418142 rxn_smarts="[O:1]=[C:2]1[C:3]([H:8])([H:9])[C:4]([H:10])([H:11])[C:5]([H:12])([H:13])[C:6]([H:14])=[C:7]1[H:15]>>[H:9][H:11].[O:1]=[C:2]1[C:3]([H:8])=[C:4]([H:10])[C:5]([H:12])([H:13])[C:6]([H:14])=[C:7]1[H:15]"
O        0.90849524      -2.70544259      -0.02077914
C        0.56277435      -1.53560353      -0.08602641
C       -0.79834991      -1.10946492      -0.32688243
C       -1.15771466       0.28959140      -0.15629664
C       -0.07271781       1.30566580      -0.38420977
C        1.24759110       0.83409824       0.14627253
C        1.52836629      -0.45833064       0.28386666
H       -1.47516483      -1.77507496      -0.84440256
H       -1.27088186      -0.46494683       1.06024435
H       -2.13382424       0.56065974      -0.55226941
H       -1.47725226       0.53757302       1.29418317
H       -0.00198287       1.46181388      -1.46906313
H       -0.34888577       2.26779853       0.05305448
H        2.00928263       1.58603706       0.32393284
H        2.48026459      -0.79437422       0.67837544
15
Frame=6 idx=008797 GeodesicLength=0.6348096024148937 rxn_smarts="[O:1]=[C:2]1[C:3]([H:8])([H:9])[C:4]([H:10])([H:11])[C:5]([H:12])([H:13])[C:6]([H:14])=[C:7]1[H:15]>>[H:9][H:11].[O:1]=[C:2]1[C:3]([H:8])=[C:4]([H:10])[C:5]([H:12])([H:13])[C:6]([H:14])=[C:7]1[H:15]"
O        0.89598633      -2.70442179       0.01668983
C        0.56245176      -1.53378347      -0.07771273
C       -0.80275576      -1.10525005      -0.31726757
C       -1.15821781       0.29371904      -0.15646177
C       -0.07140018       1.30718991      -0.38640824
C        1.25087849       0.83484778       0.13674067
C        1.53250874      -0.45723341       0.27663393
H       -1.45638014      -1.75632841      -0.88222390
H       -1.29177364      -0.49841375       1.08438131
H       -2.12931097       0.56642133      -0.56443020
H       -1.48730076       0.51931058       1.31303889
H       -0.00334831       1.47287938      -1.46996606
H       -0.34437634       2.26710346       0.05838691
H        2.01741466       1.58556079       0.29894330
H        2.48562392      -0.79160139       0.66965562
15
Frame=7 idx=008797 GeodesicLength=0.7409760203271012 rxn_smarts="[O:1]=[C:2]1[C:3]([H:8])([H:9])[C:4]([H:10])([H:11])[C:5]([H:12])([H:13])[C:6]([H:14])=[C:7]1[H:15]>>[H:9][H:11].[O:1]=[C:2]1[C:3]([H:8])=[C:4]([H:10])[C:5]([H:12])([H:13])[C:6]([H:14])=[C:7]1[H:15]"
O        0.88384189      -2.70232311       0.05198648
C        0.56176916      -1.53165860      -0.06901280
C       -0.80761731      -1.10072771      -0.30741064
C       -1.15862227       0.29841364      -0.15745429
C       -0.06973667       1.30899953      -0.38907053
C        1.25420790       0.83563779       0.12716843
C        1.53630625      -0.45612036       0.26984557
H       -1.43722347      -1.73722273      -0.91598706
H       -1.31337639      -0.53381443       1.10862721
H       -2.12455836       0.57265855      -0.57734892
H       -1.49764202       0.49950956       1.33135334
H       -0.00398317       1.48419021      -1.47121093
H       -0.33948901       2.26661758       0.06328744
H        2.02548728       1.58485028       0.27402876
H        2.49063618      -0.78901020       0.66119795
15
Frame=8 idx=008797 GeodesicLength=0.8474253873579292 rxn_smarts="[O:1]=[C:2]1[C:3]([H:8])([H:9])[C:4]([H:10])([H:11])[C:5]([H:12])([H:13])[C:6]([H:14])=[C:7]1[H:15]>>[H:9][H:11].[O:1]=[C:2]1[C:3]([H:8])=[C:4]([H:10])[C:5]([H:12])([H:13])[C:6]([H:14])=[C:7]1[H:15]"
O        0.87207099      -2.69922730       0.08509574
C        0.56077109      -1.52915092      -0.06009516
C       -0.81289199      -1.09580482      -0.29726505
C       -1.15889297       0.30376287      -0.15931786
C       -0.06768910       1.31116817      -0.39222318
C        1.25763788       0.83651193       0.11747018
C        1.53984327      -0.45494601       0.26330055
H       -1.41810707      -1.71800998      -0.94546450
H       -1.33551233      -0.57135116       1.13302598
H       -2.11954494       0.57943209      -0.59107591
H       -1.50833117       0.47799043       1.34903793
H       -0.00387721       1.49584903      -1.47282683
H       -0.33417367       2.26639721       0.06777712
H        2.03354005       1.58392488       0.24919308
H        2.49515717      -0.78654642       0.65336792
15
Frame=9 idx=008797 GeodesicLength=0.9541443286559729 rxn_smarts="[O:1]=[C:2]1[C:3]([H:8])([H:9])[C:4]([H:10])([H:11])[C:5]([H:12])([H:13])[C:6]([H:14])=[C:7]1[H:15]>>[H:9][H:11].[O:1]=[C:2]1[C:3]([H:8])=[C:4]([H:10])[C:5]([H:12])([H:13])[C:6]([H:14])=[C:7]1[H:15]"
O        0.86058211      -2.69527638       0.11585628
C        0.55938747      -1.52625144      -0.05083098
C       -0.81866406      -1.09037167      -0.28642249
C       -1.15907881       0.30970840      -0.16193286
C       -0.06526513       1.31366560      -0.39594220
C        1.26116063       0.83750226       0.10765848
C        1.54310269      -0.45369499       0.25709190
H       -1.39894108      -1.69823684      -0.97133932
H       -1.35781209      -0.61110958       1.15804752
H       -2.11432165       0.58656233      -0.60553708
H       -1.51946734       0.45467810       1.36602200
H       -0.00305453       1.50768437      -1.47493759
H       -0.32842532       2.26647984       0.07161048
H        2.04163590       1.58286661       0.22434936
H        2.49916122      -0.78420662       0.64630649
15
Frame=10 idx=008797 GeodesicLength=1.0610005562573384 rxn_smarts="[O:1]=[C:2]1[C:3]([H:8])([H:9])[C:4]([H:10])([H:11])[C:5]([H:12])([H:13])[C:6]([H:14])=[C:7]1[H:15]>>[H:9][H:11].[O:1]=[C:2]1[C:3]([H:8])=[C:4]([H:10])[C:5]([H:12])([H:13])[C:6]([H:14])=[C:7]1[H:15]"
O        0.84944242      -2.69051661       0.14462655
C        0.55772615      -1.52285079      -0.04154153
C       -0.82483521      -1.08435338      -0.27506017
C       -1.15906642       0.31643595      -0.16547214
C       -0.06239799       1.31663565      -0.40016155
C        1.26483215       0.83865442       0.09771288
C        1.54619710      -0.45231457       0.25091236
H       -1.38052446      -1.67865372      -0.99281807
H       -1.38027727      -0.65337411       1.18338416
H       -2.10873555       0.59428717      -0.62097312
H       -1.53118955       0.42934824       1.38214645
H       -0.00141295       1.52000449      -1.47742542
H       -0.32219127       2.26693133       0.07503781
H        2.04980444       1.58164897       0.19958144
H        2.50262842      -0.78188303       0.64005035
15
Frame=11 idx=008797 GeodesicLength=1.1678575300250398 rxn_smarts="[O:1]=[C:2]1[C:3]([H:8])([H:9])[C:4]([H:10])([H:11])[C:5]([H:12])([H:13])[C:6]([H:14])=[C:7]1[H:15]>>[H:9][H:11].[O:1]=[C:2]1[C:3]([H:8])=[C:4]([H:10])[C:5]([H:12])([H:13])[C:6]([H:14])=[C:7]1[H:15]"
O        0.83863744      -2.68502880       0.17145818
C        0.55577618      -1.51891248      -0.03221620
C       -0.83142510      -1.07765193      -0.26301678
C       -1.15885238       0.32399499      -0.16994227
C       -0.05906112       1.32012212      -0.40489383
C        1.26866827       0.84000744       0.08768057
C        1.54914638      -0.45077573       0.24474941
H       -1.36318653      -1.65936895      -1.00994954
H       -1.40267722      -0.69826557       1.20916255
H       -2.10272736       0.60260422      -0.63750352
H       -1.54365698       0.40185929       1.39730789
H        0.00110530       1.53284041      -1.48030866
H       -0.31545380       2.26780459       0.07800669
H        2.05809250       1.58031011       0.17493713
H        2.50561443      -0.77953969       0.63452837
15
Frame=12 idx=008797 GeodesicLength=1.2746330814690798 rxn_smarts="[O:1]=[C:2]1[C:3]([H:8])([H:9])[C:4]([H:10])([H:11])[C:5]([H:12])([H:13])[C:6]([H:14])=[C:7]1[H:15]>>[H:9][H:11].[O:1]=[C:2]1[C:3]([H:8])=[C:4]([H:10])[C:5]([H:12])([H:13])[C:6]([H:14])=[C:7]1[H:15]"
O        0.82813008      -2.67886572       0.19642871
C        0.55351924      -1.51439750      -0.02282728
C       -0.83844150      -1.07017019      -0.25010206
C       -1.15841781       0.33242566      -0.17536405
C       -0.05522611       1.32415434      -0.41013826
C        1.27267669       0.84158349       0.07762079
C        1.55197856      -0.44906295       0.23854175
H       -1.34718803      -1.64046705      -1.02274856
H       -1.42477209      -0.74588034       1.23552601
H       -2.09621863       0.61148746      -0.65528335
H       -1.55714129       0.37213064       1.41138814
H        0.00457439       1.54620486      -1.48359054
H       -0.30819527       2.26913979       0.08048451
H        2.06651337       1.57887561       0.15053917
H        2.50820840      -0.77715812       0.62952500
15
Frame=13 idx=008797 GeodesicLength=1.3812492829870828 rxn_smarts="[O:1]=[C:2]1[C:3]([H:8])([H:9])[C:4]([H:10])([H:11])[C:5]([H:12])([H:13])[C:6]([H:14])=[C:7]1[H:15]>>[H:9][H:11].[O:1]=[C:2]1[C:3]([H:8])=[C:4]([H:10])[C:5]([H:12])([H:13])[C:6]([H:14])=[C:7]1[H:15]"
O        0.81791694      -2.67207904       0.21961846
C        0.55094254      -1.50927315      -0.01332139
C       -0.84590814      -1.06181790      -0.23612582
C       -1.15773978       0.34178229      -0.18172787
C       -0.05086000       1.32876000      -0.41589401
C        1.27686959       0.84341009       0.06761490
C        1.55471113      -0.44715940       0.23226731
H       -1.33281107      -1.62204887      -1.03126111
H       -1.44634057      -0.79633164       1.26259726
H       -2.08912270       0.62093277      -0.67442741
H       -1.57194779       0.34010004       1.42423707
H        0.00907118       1.56008694      -1.48727936
H       -0.30040477       2.27098563       0.08241992
H        2.07510083       1.57738381       0.12651254
H        2.51052262      -0.77473160       0.62476950
15
Frame=14 idx=008797 GeodesicLength=1.487612616774734 rxn_smarts="[O:1]=[C:2]1[C:3]([H:8])([H:9])[C:4]([H:10])([H:11])[C:5]([H:12])([H:13])[C:6]([H:14])=[C:7]1[H:15]>>[H:9][H:11].[O:1]=[C:2]1[C:3]([H:8])=[C:4]([H:10])[C:5]([H:12])([H:13])[C:6]([H:14])=[C:7]1[H:15]"
O        0.80797928      -2.66470842       0.24106729
C        0.54803018      -1.50350051      -0.00362498
C       -0.85383285      -1.05249975      -0.22089060
C       -1.15680232       0.35209538      -0.18898088
C       -0.04593424       1.33394968      -0.42215158
C        1.28125609       0.84551364       0.05775955
C        1.55736282      -0.44505595       0.22590597
H       -1.32023966      -1.60415063      -1.03549524
H       -1.46716872      -0.84972512       1.29041512
H       -2.08134973       0.63089076      -0.69502491
H       -1.58846092       0.30579147       1.43573436
H        0.01466546       1.57442621      -1.49138366
H       -0.29206302       2.27339413       0.08374188
H        2.08386813       1.57586690       0.10299265
H        2.51268948      -0.77228779       0.61993501
15
Frame=15 idx=008797 GeodesicLength=1.5936853177617718 rxn_smarts="[O:1]=[C:2]1[C:3]([H:8])([H:9])[C:4]([H:10])([H:11])[C:5]([H:12])([H:13])[C:6]([H:14])=[C:7]1[H:15]>>[H:9][H:11].[O:1]=[C:2]1[C:3]([H:8])=[C:4]([H:10])[C:5]([H:12])([H:13])[C:6]([H:14])=[C:7]1[H:15]"
O        0.79828631      -2.65678994       0.26086227
C        0.54476354      -1.49704468       0.00636025
C       -0.86221712      -1.04212494      -0.20421602
C       -1.15559358       0.36338533      -0.19706044
C       -0.04042517       1.33972895      -0.42889217
C        1.28584124       0.84791384       0.04815203
C        1.55995266      -0.44274958       0.21942515
H       -1.30961300      -1.58678912      -1.03549506
H       -1.48703206      -0.90612514       1.31899951
H       -2.07280504       0.64129008      -0.71715949
H       -1.60708772       0.26924889       1.44576874
H        0.02141446       1.58916789      -1.49590148
H       -0.28315955       2.27640977       0.08439729
H        2.09282112       1.57435045       0.08011448
H        2.51485391      -0.76987178       0.61464495
15
Frame=16 idx=008797 GeodesicLength=1.6995316126033018 rxn_smarts="[O:1]=[C:2]1[C:3]([H:8])([H:9])[C:4]([H:10])([H:11])[C:5]([H:12])([H:13])[C:6]([H:14])=[C:7]1[H:15]>>[H:9][H:11].[O:1]=[C:2]1[C:3]([H:8])=[C:4]([H:10])[C:5]([H:12])([H:13])[C:6]([H:14])=[C:7]1[H:15]"
O        0.78882740      -2.64836573       0.27903862
C        0.54113044      -1.48987055       0.01675682
C       -0.87106178      -1.03060390      -0.18591694
C       -1.15410005       0.37566208      -0.20586978
C       -0.03431386       1.34609124      -0.43609827
C        1.29063466       0.85063747       0.03889576
C        1.56249719      -0.44023946       0.21281550
H       -1.30103907      -1.56995269      -1.03130755
H       -1.50573950      -0.96561309       1.34828680
H       -2.06339523       0.65204117      -0.74086183
H       -1.62825209       0.23058858       1.45426607
H        0.02936276       1.60422014      -1.50084229
H       -0.27369000       2.28008006       0.08430966
H        2.10197795       1.57287291       0.05799110
H        2.51716118      -0.76754823       0.60853634
