14
Frame=0 idx=001434 GeodesicLength=0.0 rxn_smarts="[C:1]([C@@:2]([O:3][H:11])([C:4](=[O:5])[C:6]([H:12])([H:13])[H:14])[H:10])([H:7])([H:8])[H:9]>>[C+:2]([O:3][H:11])=[C:4]([O-:5])[C:6]([H:12])([H:13])[H:14].[C:1]([H:7])([H:8])([H:9])[H:10]"
C        1.21728509      -1.13315783      -0.09742449
C        0.56661827       0.83268315       0.71089824
O        1.47789662       1.65703561       0.23554024
C       -0.68324407       0.83555641      -0.10378705
O       -0.84786941       1.75858263      -0.88264271
C       -1.74079174      -0.20130265       0.14390029
H        0.60430560      -2.01214217       0.08774413
H        2.26618019      -1.29366252       0.14417716
H        1.10417332      -0.76134422      -1.10900952
H        0.95526071      -0.36217141       0.90580471
H        1.12764333       2.03456387      -0.59893966
H       -1.83341831      -0.83883763      -0.73779086
H       -2.69811574       0.29978574       0.28722807
H       -1.51592388      -0.81558892       1.01430147
14
Frame=1 idx=001434 GeodesicLength=0.05910950248770991 rxn_smarts="[C:1]([C@@:2]([O:3][H:11])([C:4](=[O:5])[C:6]([H:12])([H:13])[H:14])[H:10])([H:7])([H:8])[H:9]>>[C+:2]([O:3][H:11])=[C:4]([O-:5])[C:6]([H:12])([H:13])[H:14].[C:1]([H:7])([H:8])([H:9])[H:10]"
C        1.22428579      -1.13457380      -0.10234001
C        0.57186524       0.82418457       0.70433657
O        1.47530174       1.66212240       0.23610900
C       -0.68610408       0.83679513      -0.10330083
O       -0.84735331       1.75888441      -0.88312532
C       -1.74734456      -0.19445996       0.14788818
H        0.61309671      -2.01676058       0.07483443
H        2.27441426      -1.30008683       0.13096004
H        1.11292004      -0.76814771      -1.11666562
H        0.96030246      -0.37963921       0.92371257
H        1.11614407       2.04970222      -0.59027023
H       -1.82008859      -0.85515774      -0.71850690
H       -2.70883372       0.30622974       0.26040488
H       -1.53860606      -0.78909262       1.03596323
14
Frame=2 idx=001434 GeodesicLength=0.11816810790590818 rxn_smarts="[C:1]([C@@:2]([O:3][H:11])([C:4](=[O:5])[C:6]([H:12])([H:13])[H:14])[H:10])([H:7])([H:8])[H:9]>>[C+:2]([O:3][H:11])=[C:4]([O-:5])[C:6]([H:12])([H:13])[H:14].[C:1]([H:7])([H:8])([H:9])[H:10]"
C        1.23148484      -1.13605950      -0.10750788
C        0.57707268       0.81533072       0.69743796
O        1.47241452       1.66725818       0.23717724
C       -0.68899876       0.83801744      -0.10296480
O       -0.84671172       1.75901520      -0.88394649
C       -1.75399299      -0.18746175       0.15193663
H        0.62220570      -2.02143768       0.06172982
H        2.28273432      -1.30642686       0.11767447
H        1.12187137      -0.77512752      -1.12457940
H        0.96525596      -0.39745486       0.94101259
H        1.10445315       2.06493803      -0.58081387
H       -1.80687410      -0.87151127      -0.69762035
H       -2.71908347       0.31207470       0.23292899
H       -1.56183150      -0.76115483       1.05753508
14
Frame=3 idx=001434 GeodesicLength=0.17723764598869146 rxn_smarts="[C:1]([C@@:2]([O:3][H:11])([C:4](=[O:5])[C:6]([H:12])([H:13])[H:14])[H:10])([H:7])([H:8])[H:9]>>[C+:2]([O:3][H:11])=[C:4]([O-:5])[C:6]([H:12])([H:13])[H:14].[C:1]([H:7])([H:8])([H:9])[H:10]"
C        1.23891978      -1.13762319      -0.11294729
C        0.58223446       0.80614296       0.69020921
O        1.46923741       1.67242833       0.23878447
C       -0.69193441       0.83920783      -0.10280454
O       -0.84594002       1.75892175      -0.88517957
C       -1.76076753      -0.18029599       0.15605497
H        0.63165192      -2.02617754       0.04838880
H        2.29119797      -1.31269121       0.10431900
H        1.13106777      -0.78227811      -1.13277348
H        0.97013117      -0.41563357       0.95771966
H        1.09255369       2.08027398      -0.57051583
H       -1.79387090      -0.88786618      -0.67505448
H       -2.72886933       0.31729317       0.20483448
H       -1.58561198      -0.73170222       1.07896461
14
Frame=4 idx=001434 GeodesicLength=0.23629117207848027 rxn_smarts="[C:1]([C@@:2]([O:3][H:11])([C:4](=[O:5])[C:6]([H:12])([H:13])[H:14])[H:10])([H:7])([H:8])[H:9]>>[C+:2]([O:3][H:11])=[C:4]([O-:5])[C:6]([H:12])([H:13])[H:14].[C:1]([H:7])([H:8])([H:9])[H:10]"
C        1.24658230      -1.13926444      -0.11867038
C        0.58733904       0.79663951       0.68264385
O        1.46575812       1.67761069       0.24094505
C       -0.69490479       0.84036174      -0.10282830
O       -0.84501212       1.75857348      -0.88686237
C       -1.76765277      -0.17296073       0.16024680
H        0.64142736      -2.03097955       0.03479655
H        2.29979956      -1.31887698       0.09087592
H        1.14049654      -0.78958270      -1.14124874
H        0.97490978      -0.43419304       0.97383428
H        1.08041377       2.09570868      -0.55932916
H       -1.78107985      -0.90417989      -0.65071611
H       -2.73814033       0.32181119       0.17612910
H       -1.60993663      -0.70066796       1.10018350
14
Frame=5 idx=001434 GeodesicLength=0.2953198937776894 rxn_smarts="[C:1]([C@@:2]([O:3][H:11])([C:4](=[O:5])[C:6]([H:12])([H:13])[H:14])[H:10])([H:7])([H:8])[H:9]>>[C+:2]([O:3][H:11])=[C:4]([O-:5])[C:6]([H:12])([H:13])[H:14].[C:1]([H:7])([H:8])([H:9])[H:10]"
C        1.25447098      -1.14098270      -0.12468922
C        0.59237936       0.78684038       0.67473959
O        1.46196912       1.68278387       0.24367429
C       -0.69790639       0.84147378      -0.10304480
O       -0.84390748       1.75793873      -0.88903252
C       -1.77464138      -0.16545340       0.16451577
H        0.65152549      -2.03584115       0.02093524
H        2.30854453      -1.32498304       0.07732978
H        1.15015231      -0.79702783      -1.15001058
H        0.97958177      -0.45314906       0.98936008
H        1.06800217       2.11123479      -0.54720659
H       -1.76851610      -0.92040274      -0.62451305
H       -2.74685546       0.32555402       0.14682615
H       -1.63479892      -0.66798565       1.12111585
14
Frame=6 idx=001434 GeodesicLength=0.35431614991039795 rxn_smarts="[C:1]([C@@:2]([O:3][H:11])([C:4](=[O:5])[C:6]([H:12])([H:13])[H:14])[H:10])([H:7])([H:8])[H:9]>>[C+:2]([O:3][H:11])=[C:4]([O-:5])[C:6]([H:12])([H:13])[H:14].[C:1]([H:7])([H:8])([H:9])[H:10]"
C        1.26258155      -1.14277749      -0.13101342
C        0.59735149       0.77676695       0.66649374
O        1.45786493       1.68792459       0.24698000
C       -0.70093583       0.84254002      -0.10346126
O       -0.84260716       1.75699370      -0.89171835
C       -1.78172344      -0.15777272       0.16886294
H        0.66193575      -2.04075850       0.00679283
H        2.31743586      -1.33101023       0.06366442
H        1.16002557      -0.80460339      -1.15906366
H        0.98413946      -0.47251615       1.00430122
H        1.05528180       2.12684410      -0.53410024
H       -1.75618818      -0.93647462      -0.59635275
H       -2.75497099       0.32843646       0.11694103
H       -1.66019082      -0.63359272       1.14167350
14
Frame=7 idx=001434 GeodesicLength=0.4132751859447858 rxn_smarts="[C:1]([C@@:2]([O:3][H:11])([C:4](=[O:5])[C:6]([H:12])([H:13])[H:14])[H:10])([H:7])([H:8])[H:9]>>[C+:2]([O:3][H:11])=[C:4]([O-:5])[C:6]([H:12])([H:13])[H:14].[C:1]([H:7])([H:8])([H:9])[H:10]"
C        1.27090726      -1.14464823      -0.13765240
C        0.60225572       0.76644152       0.65790605
O        1.45344045       1.69300974       0.25086548
C       -0.70398780       0.84355903      -0.10408230
O       -0.84109324       1.75571393      -0.89493829
C       -1.78888530      -0.14991843       0.17329120
H        0.67264201      -2.04572583      -0.00764550
H        2.32647250      -1.33696404       0.04986303
H        1.17010565      -0.81229884      -1.16841256
H        0.98857903      -0.49230913       1.01866220
H        1.04220851       2.14252719      -0.51996064
H       -1.74410427      -0.95232561      -0.56613909
H       -2.76244178       0.33035809       0.08647696
H       -1.68609874      -0.59741938       1.16176588
14
Frame=8 idx=001434 GeodesicLength=0.47217657238971283 rxn_smarts="[C:1]([C@@:2]([O:3][H:11])([C:4](=[O:5])[C:6]([H:12])([H:13])[H:14])[H:10])([H:7])([H:8])[H:9]>>[C+:2]([O:3][H:11])=[C:4]([O-:5])[C:6]([H:12])([H:13])[H:14].[C:1]([H:7])([H:8])([H:9])[H:10]"
C        1.27944543      -1.14659245      -0.14460705
C        0.60708674       0.75588647       0.64896715
O        1.44868764       1.69800873       0.25531923
C       -0.70705639       0.84451927      -0.10492257
O       -0.83936032       1.75409745      -0.89869381
C       -1.79611253      -0.14189130       0.17779189
H        0.68362816      -2.05072922      -0.02237707
H        2.33565654      -1.34284566       0.03591820
H        1.18038873      -0.82011287      -1.17805586
H        0.99289536      -0.51253455       1.03244707
H        1.02873558       2.15825846      -0.50474458
H       -1.73227475      -0.96786515      -0.53379028
H       -2.76920599       0.33123504       0.05548831
H       -1.71251420      -0.55943422       1.18125939
14
Frame=9 idx=001434 GeodesicLength=0.5310239192639181 rxn_smarts="[C:1]([C@@:2]([O:3][H:11])([C:4](=[O:5])[C:6]([H:12])([H:13])[H:14])[H:10])([H:7])([H:8])[H:9]>>[C+:2]([O:3][H:11])=[C:4]([O-:5])[C:6]([H:12])([H:13])[H:14].[C:1]([H:7])([H:8])([H:9])[H:10]"
C        1.28818197      -1.14861080      -0.15187428
C        0.61185517       0.74513365       0.63967739
O        1.44360940       1.70290396       0.26031919
C       -0.71013615       0.84542756      -0.10598214
O       -0.83742213       1.75218671      -0.90292949
C       -1.80338352      -0.13370042       0.18235594
H        0.69486568      -2.05576307      -0.03739607
H        2.34497913      -1.34866717       0.02182474
H        1.19085457      -0.82804545      -1.18799078
H        0.99709217      -0.53319944       1.04566885
H        1.01482678       2.17399381      -0.48844579
H       -1.72069563      -0.98299057      -0.49923874
H       -2.77521732       0.33092999       0.02398351
H       -1.73941012      -0.51959876       1.20002765
14
Frame=10 idx=001434 GeodesicLength=0.5898138779595503 rxn_smarts="[C:1]([C@@:2]([O:3][H:11])([C:4](=[O:5])[C:6]([H:12])([H:13])[H:14])[H:10])([H:7])([H:8])[H:9]>>[C+:2]([O:3][H:11])=[C:4]([O-:5])[C:6]([H:12])([H:13])[H:14].[C:1]([H:7])([H:8])([H:9])[H:10]"
C        1.29710536      -1.15070377      -0.15944918
C        0.61656505       0.73421320       0.63002951
O        1.43820469       1.70767029       0.26583300
C       -0.71322010       0.84628221      -0.10727174
O       -0.83530517       1.75004390      -0.90756577
C       -1.81067409      -0.12535463       0.18696802
H        0.70632460      -2.06081545      -0.05269000
H        2.35443145      -1.35444269       0.00757996
H        1.20149231      -0.83610313      -1.19821393
H        1.00117046      -0.55430541       1.05833786
H        1.00044301       2.18968178      -0.47105835
H       -1.70935320      -0.99759314      -0.46241155
H       -2.78041271       0.32931447      -0.00800860
H       -1.76677166      -0.47788762       1.21792078
14
Frame=11 idx=001434 GeodesicLength=0.6485681423729299 rxn_smarts="[C:1]([C@@:2]([O:3][H:11])([C:4](=[O:5])[C:6]([H:12])([H:13])[H:14])[H:10])([H:7])([H:8])[H:9]>>[C+:2]([O:3][H:11])=[C:4]([O-:5])[C:6]([H:12])([H:13])[H:14].[C:1]([H:7])([H:8])([H:9])[H:10]"
C        1.30619616      -1.15287481      -0.16731789
C        0.62122978       0.72316757       0.62002390
O        1.43248151       1.71230224       0.27182323
C       -0.71630303       0.84709223      -0.10879525
O       -0.83307034       1.74780407      -0.91245982
C       -1.81795492      -0.11687610       0.19160594
H        0.71796524      -2.06588508      -0.06823282
H        2.36399786      -1.36019040      -0.00681043
H        1.21227435      -0.84429976      -1.20872039
H        1.00514079      -0.57584955       1.07047909
H        0.98557584       2.20524106      -0.45263453
H       -1.69823041      -1.01155502      -0.42326628
H       -2.78473027       0.32622882      -0.04047051
H       -1.79457256      -0.43430527       1.23477577
14
Frame=12 idx=001434 GeodesicLength=0.7073145878453009 rxn_smarts="[C:1]([C@@:2]([O:3][H:11])([C:4](=[O:5])[C:6]([H:12])([H:13])[H:14])[H:10])([H:7])([H:8])[H:9]>>[C+:2]([O:3][H:11])=[C:4]([O-:5])[C:6]([H:12])([H:13])[H:14].[C:1]([H:7])([H:8])([H:9])[H:10]"
C        1.31546418      -1.15512861      -0.17546939
C        0.62583243       0.71202292       0.60965389
O        1.42641608       1.71675505       0.27824740
C       -0.71939544       0.84785935      -0.11056085
O       -0.83081400       1.74563113      -0.91742751
C       -1.82520551      -0.10826654       0.19624729
H        0.72978769      -2.07095241      -0.08399040
H        2.37369535      -1.36593972      -0.02135142
H        1.22321873      -0.85265803      -1.21950632
H        1.00900522      -0.59782964       1.08211097
H        0.97021465       2.22053400      -0.43325720
H       -1.68727009      -1.02471701      -0.38175049
H       -2.78810594       0.32155069      -0.07335546
H       -1.82284335      -0.38886118       1.25040950
14
Frame=13 idx=001434 GeodesicLength=0.7664141018426871 rxn_smarts="[C:1]([C@@:2]([O:3][H:11])([C:4](=[O:5])[C:6]([H:12])([H:13])[H:14])[H:10])([H:7])([H:8])[H:9]>>[C+:2]([O:3][H:11])=[C:4]([O-:5])[C:6]([H:12])([H:13])[H:14].[C:1]([H:7])([H:8])([H:9])[H:10]"
C        1.32492618      -1.15755601      -0.18390481
C        0.63040653       0.70085287       0.59895923
O        1.42002476       1.72108726       0.28509600
C       -0.72253205       0.84865457      -0.11257739
O       -0.82873472       1.74384055      -0.92229389
C       -1.83241340      -0.09953051       0.20086879
H        0.74180206      -2.07614069      -0.09995467
H        2.38357187      -1.37183887      -0.03604096
H        1.23429906      -0.86127264      -1.23064610
H        1.01284496      -0.62028385       1.09332850
H        0.95432114       2.23558449      -0.41299242
H       -1.67640580      -1.03701066      -0.33779941
H       -2.79052899       0.31509525      -0.10676941
H       -1.85158160      -0.34148177       1.26472655
14
Frame=14 idx=001434 GeodesicLength=0.8245274062441865 rxn_smarts="[C:1]([C@@:2]([O:3][H:11])([C:4](=[O:5])[C:6]([H:12])([H:13])[H:14])[H:10])([H:7])([H:8])[H:9]>>[C+:2]([O:3][H:11])=[C:4]([O-:5])[C:6]([H:12])([H:13])[H:14].[C:1]([H:7])([H:8])([H:9])[H:10]"
C        1.33451977      -1.15989591      -0.19216941
C        0.63496489       0.68975438       0.58760984
O        1.41335090       1.72523422       0.29188808
C       -0.72562363       0.84929338      -0.11486993
O       -0.82662350       1.74187798      -0.92736802
C       -1.83948973      -0.09087670       0.20530057
H        0.75367600      -2.08095000      -0.11555136
H        2.39342919      -1.37756438      -0.05018658
H        1.24568853      -0.87021534      -1.24156836
H        1.01655004      -0.64272798       1.10417066
H        0.93796634       2.25009243      -0.39217985
H       -1.66680837      -1.04723880      -0.29360025
H       -2.79199582       0.30774898      -0.13821028
H       -1.87960461      -0.29453225       1.27673488
14
Frame=15 idx=001434 GeodesicLength=0.8825998135005076 rxn_smarts="[C:1]([C@@:2]([O:3][H:11])([C:4](=[O:5])[C:6]([H:12])([H:13])[H:14])[H:10])([H:7])([H:8])[H:9]>>[C+:2]([O:3][H:11])=[C:4]([O-:5])[C:6]([H:12])([H:13])[H:14].[C:1]([H:7])([H:8])([H:9])[H:10]"
C        1.34404017      -1.16221423      -0.20098515
C        0.63950378       0.67852520       0.57594445
O        1.40647679       1.72898944       0.29921651
C       -0.72860031       0.84979292      -0.11743047
O       -0.82485868       1.74102506      -0.93098112
C       -1.84639763      -0.08218990       0.20975060
H        0.76549384      -2.08566776      -0.13165388
H        2.40316266      -1.38321219      -0.06499999
H        1.25692932      -0.87903180      -1.25289824
H        1.02007282      -0.66577839       1.11427873
H        0.92153819       2.26378591      -0.37063969
H       -1.65630026      -1.05704142      -0.24493053
H       -2.79197435       0.29707043      -0.17198590
H       -1.90908634      -0.24405327       1.28731468
14
Frame=16 idx=001434 GeodesicLength=0.9409417102071866 rxn_smarts="[C:1]([C@@:2]([O:3][H:11])([C:4](=[O:5])[C:6]([H:12])([H:13])[H:14])[H:10])([H:7])([H:8])[H:9]>>[C+:2]([O:3][H:11])=[C:4]([O-:5])[C:6]([H:12])([H:13])[H:14].[C:1]([H:7])([H:8])([H:9])[H:10]"
C        1.35371898      -1.16468669      -0.20996101
C        0.64400898       0.66739483       0.56387125
O        1.39929228       1.73258271       0.30682678
C       -0.73163118       0.85031149      -0.12027482
O       -0.82369499       1.74120021      -0.93381176
C       -1.85317485      -0.07350416       0.21407989
H        0.77734734      -2.09040109      -0.14775221
H        2.41302443      -1.38907024      -0.07981415
H        1.26832773      -0.88818097      -1.26446744
H        1.02359788      -0.68918634       1.12407211
H        0.90481807       2.27682910      -0.34872914
H       -1.64597263      -1.06531116      -0.19415039
H       -2.79077167       0.28427147      -0.20574485
H       -1.93889038      -0.19224915       1.29585575
