13
Frame=0 idx=002198 GeodesicLength=0.0 rxn_smarts="[C:1]([C:2](=[O:3])[C@@:4]1([H:10])[C:5]([H:11])([H:12])[N:6]1[H:13])([H:7])([H:8])[H:9]>>[C:1](=[C:2]=[O:3])([H:8])[H:9].[C:4]1([H:7])([H:10])[C:5]([H:11])([H:12])[N:6]1[H:13]"
C        1.94807614      -0.15842834       0.64506864
C        0.73719958       0.49645145       0.60044211
O        0.28733299       1.58450364       0.86659787
C       -0.33687599      -0.47320503      -0.42886930
C       -1.72663714      -0.14122562      -0.01565296
N       -1.24389374       0.24010642      -1.32187080
H        0.93708174      -0.03030571      -0.62480238
H        1.98845540      -1.20996555       0.39911194
H        2.80042881       0.29630303       1.13454318
H       -0.11191015      -1.50640055      -0.68217200
H       -1.83374595       0.62759594       0.73941624
H       -2.44370076      -0.95356895      -0.00585455
H       -1.00181098       1.22813925      -1.30595795
13
Frame=1 idx=002198 GeodesicLength=0.10244365106869137 rxn_smarts="[C:1]([C:2](=[O:3])[C@@:4]1([H:10])[C:5]([H:11])([H:12])[N:6]1[H:13])([H:7])([H:8])[H:9]>>[C:1](=[C:2]=[O:3])([H:8])[H:9].[C:4]1([H:7])([H:10])[C:5]([H:11])([H:12])[N:6]1[H:13]"
C        1.95503294      -0.15578201       0.64128766
C        0.74465108       0.50437237       0.60850599
O        0.30300680       1.59430047       0.87376350
C       -0.33881011      -0.46876874      -0.44268044
C       -1.72667003      -0.14638788      -0.01559403
N       -1.25771869       0.24261938      -1.32494870
H        0.95269269      -0.03761040      -0.64319304
H        1.97727386      -1.21734263       0.43859018
H        2.80716213       0.29475171       1.13509423
H       -0.11797054      -1.50144009      -0.70214772
H       -1.83738916       0.62129913       0.74017582
H       -2.44010289      -0.96182870      -0.00034240
H       -1.02115806       1.23181739      -1.30851106
13
Frame=2 idx=002198 GeodesicLength=0.20472458390055762 rxn_smarts="[C:1]([C:2](=[O:3])[C@@:4]1([H:10])[C:5]([H:11])([H:12])[N:6]1[H:13])([H:7])([H:8])[H:9]>>[C:1](=[C:2]=[O:3])([H:8])[H:9].[C:4]1([H:7])([H:10])[C:5]([H:11])([H:12])[N:6]1[H:13]"
C        1.96143755      -0.15385620       0.63829768
C        0.75184327       0.51200302       0.61781948
O        0.31898439       1.60419428       0.88129598
C       -0.34087367      -0.46426638      -0.45638860
C       -1.72676432      -0.15147959      -0.01580611
N       -1.27137854       0.24507579      -1.32806128
H        0.96862357      -0.04585416      -0.66142352
H        1.96627601      -1.22313290       0.47749413
H        2.81429256       0.29335793       1.13421168
H       -0.12427981      -1.49646235      -0.72177655
H       -1.84134496       0.61503126       0.74065228
H       -2.43651250      -0.97000814       0.00472455
H       -1.04030355       1.23539744      -1.31103973
13
Frame=3 idx=002198 GeodesicLength=0.3068973971596929 rxn_smarts="[C:1]([C:2](=[O:3])[C@@:4]1([H:10])[C:5]([H:11])([H:12])[N:6]1[H:13])([H:7])([H:8])[H:9]>>[C:1](=[C:2]=[O:3])([H:8])[H:9].[C:4]1([H:7])([H:10])[C:5]([H:11])([H:12])[N:6]1[H:13]"
C        1.96733790      -0.15247950       0.63592997
C        0.75877398       0.51941202       0.62838096
O        0.33529443       1.61425003       0.88911502
C       -0.34305594      -0.45966675      -0.46999845
C       -1.72690965      -0.15649917      -0.01625443
N       -1.28492054       0.24745606      -1.33120573
H        0.98487382      -0.05509936      -0.67958085
H        1.95560430      -1.22741371       0.51567762
H        2.82164836       0.29193298       1.13227423
H       -0.13082853      -1.49143798      -0.74105135
H       -1.84559678       0.60880322       0.74086307
H       -2.43290068      -0.97812127       0.00942654
H       -1.05932069       1.23886342      -1.31357659
13
Frame=4 idx=002198 GeodesicLength=0.409031438847602 rxn_smarts="[C:1]([C:2](=[O:3])[C@@:4]1([H:10])[C:5]([H:11])([H:12])[N:6]1[H:13])([H:7])([H:8])[H:9]>>[C:1](=[C:2]=[O:3])([H:8])[H:9].[C:4]1([H:7])([H:10])[C:5]([H:11])([H:12])[N:6]1[H:13]"
C        1.97274226      -0.15153225       0.63408805
C        0.76541880       0.52660567       0.64024956
O        0.35194924       1.62448228       0.89720678
C       -0.34534859      -0.45495003      -0.48350563
C       -1.72710529      -0.16143435      -0.01692425
N       -1.29835487       0.24976201      -1.33438322
H        1.00145382      -0.06544782      -0.69773557
H        1.94537116      -1.23029344       0.55303902
H        2.82913713       0.29047295       1.12945618
H       -0.13762259      -1.48635735      -0.75996090
H       -1.85015063       0.60263213       0.74081514
H       -2.42926110      -0.98616259       0.01379331
H       -1.07822934       1.24222279      -1.31613846
13
Frame=5 idx=002198 GeodesicLength=0.5111654963852729 rxn_smarts="[C:1]([C:2](=[O:3])[C@@:4]1([H:10])[C:5]([H:11])([H:12])[N:6]1[H:13])([H:7])([H:8])[H:9]>>[C:1](=[C:2]=[O:3])([H:8])[H:9].[C:4]1([H:7])([H:10])[C:5]([H:11])([H:12])[N:6]1[H:13]"
C        1.97767866      -0.15087361       0.63264357
C        0.77175556       0.53361581       0.65348881
O        0.36895198       1.63491850       0.90557051
C       -0.34774169      -0.45009470      -0.49690135
C       -1.72735395      -0.16627260      -0.01780454
N       -1.31168837       0.25199398      -1.33759820
H        1.01836128      -0.07701510      -0.71593239
H        1.93573297      -1.23185154       0.58949374
H        2.83662953       0.28890053       1.12591180
H       -0.14466169      -1.48120817      -0.77848391
H       -1.85502319       0.59653367       0.74050821
H       -2.42559098      -0.99412525       0.01784840
H       -1.09705011       1.24547848      -1.31874464
13
Frame=6 idx=002198 GeodesicLength=0.6133411158178221 rxn_smarts="[C:1]([C:2](=[O:3])[C@@:4]1([H:10])[C:5]([H:11])([H:12])[N:6]1[H:13])([H:7])([H:8])[H:9]>>[C:1](=[C:2]=[O:3])([H:8])[H:9].[C:4]1([H:7])([H:10])[C:5]([H:11])([H:12])[N:6]1[H:13]"
C        1.98211000      -0.15043559       0.63156726
C        0.77775403       0.54041668       0.66818245
O        0.38630025       1.64552579       0.91424194
C       -0.35022932      -0.44508437      -0.51018216
C       -1.72765779      -0.17099713      -0.01889739
N       -1.32491395       0.25417348      -1.34085371
H        1.03561534      -0.08994202      -0.73423706
H        1.92675868      -1.23218624       0.62501724
H        2.84411582       0.28733327       1.12164925
H       -0.15195886      -1.47598130      -0.79661965
H       -1.86022522       0.59051615       0.73994374
H       -2.42189544      -1.00199065       0.02158374
H       -1.11577354       1.24865194      -1.32139563
13
Frame=7 idx=002198 GeodesicLength=0.7155935474212106 rxn_smarts="[C:1]([C:2](=[O:3])[C@@:4]1([H:10])[C:5]([H:11])([H:12])[N:6]1[H:13])([H:7])([H:8])[H:9]>>[C:1](=[C:2]=[O:3])([H:8])[H:9].[C:4]1([H:7])([H:10])[C:5]([H:11])([H:12])[N:6]1[H:13]"
C        1.98603385      -0.15010576       0.63078037
C        0.78338074       0.54702873       0.68443751
O        0.40397769       1.65628677       0.92328670
C       -0.35279376      -0.43989740      -0.52333128
C       -1.72802042      -0.17558979      -0.02021065
N       -1.33801015       0.25631770      -1.34415892
H        1.05321914      -0.10440628      -0.75267186
H        1.91858058      -1.23136064       0.65957603
H        2.85150154       0.28578123       1.11663604
H       -0.15951745      -1.47066693      -0.81433424
H       -1.86578689       0.58459115       0.73911103
H       -2.41818057      -1.00974042       0.02498032
H       -1.13438429       1.25176162      -1.32410104
13
Frame=8 idx=002198 GeodesicLength=0.8179417965653079 rxn_smarts="[C:1]([C:2](=[O:3])[C@@:4]1([H:10])[C:5]([H:11])([H:12])[N:6]1[H:13])([H:7])([H:8])[H:9]>>[C:1](=[C:2]=[O:3])([H:8])[H:9].[C:4]1([H:7])([H:10])[C:5]([H:11])([H:12])[N:6]1[H:13]"
C        1.98939440      -0.14980035       0.63022390
C        0.78861135       0.55343973       0.70235372
O        0.42195250       1.66714456       0.93280341
C       -0.35542344      -0.43451792      -0.53634112
C       -1.72844352      -0.18002795      -0.02175559
N       -1.35094962       0.25845681      -1.34752080
H        1.07118178      -0.12063369      -0.77128352
H        1.91129048      -1.22943223       0.69317262
H        2.85877332       0.28437107       1.11080831
H       -0.16735973      -1.46525727      -0.83161481
H       -1.87172426       0.57876703       0.73800212
H       -2.41445841      -1.01734478       0.02800827
H       -1.15284487       1.25483499      -1.32685651
13
Frame=9 idx=002198 GeodesicLength=0.9205098679506927 rxn_smarts="[C:1]([C:2](=[O:3])[C@@:4]1([H:10])[C:5]([H:11])([H:12])[N:6]1[H:13])([H:7])([H:8])[H:9]>>[C:1](=[C:2]=[O:3])([H:8])[H:9].[C:4]1([H:7])([H:10])[C:5]([H:11])([H:12])[N:6]1[H:13]"
C        1.99210702      -0.14934478       0.62971084
C        0.79334326       0.55935560       0.72239524
O        0.44004835       1.67770863       0.94337339
C       -0.35802635      -0.42896355      -0.54914288
C       -1.72891267      -0.18422470      -0.02364126
N       -1.36348316       0.26073249      -1.35097571
H        1.08945036      -0.13929789      -0.79005250
H        1.90489008      -1.22629278       0.72607388
H        2.86594316       0.28375339       1.10321909
H       -0.17561243      -1.45985631      -0.84828813
H       -1.87811983       0.57307507       0.73652449
H       -2.41081552      -1.02464162       0.03041037
H       -1.17081227       1.25799646      -1.32960682
13
Frame=10 idx=002198 GeodesicLength=1.023115943268024 rxn_smarts="[C:1]([C:2](=[O:3])[C@@:4]1([H:10])[C:5]([H:11])([H:12])[N:6]1[H:13])([H:7])([H:8])[H:9]>>[C:1](=[C:2]=[O:3])([H:8])[H:9].[C:4]1([H:7])([H:10])[C:5]([H:11])([H:12])[N:6]1[H:13]"
C        1.99416088      -0.14867667       0.62924168
C        0.79763914       0.56503515       0.74434633
O        0.45829779       1.68818462       0.95478191
C       -0.36064295      -0.42319706      -0.56177379
C       -1.72943257      -0.18819901      -0.02580003
N       -1.37574737       0.26308480      -1.35451520
H        1.10805619      -0.16036094      -0.80900665
H        1.89962474      -1.22207894       0.75803011
H        2.87285222       0.28355409       1.09448457
H       -0.18419961      -1.45436954      -0.86445516
H       -1.88492585       0.56751988       0.73473133
H       -2.40720612      -1.03169153       0.03234408
H       -1.18847648       1.26119516      -1.33240917
13
Frame=11 idx=002198 GeodesicLength=1.125715325405637 rxn_smarts="[C:1]([C:2](=[O:3])[C@@:4]1([H:10])[C:5]([H:11])([H:12])[N:6]1[H:13])([H:7])([H:8])[H:9]>>[C:1](=[C:2]=[O:3])([H:8])[H:9].[C:4]1([H:7])([H:10])[C:5]([H:11])([H:12])[N:6]1[H:13]"
C        1.99551296      -0.14769224       0.62873714
C        0.80147804       0.57046287       0.76831009
O        0.47661319       1.69848397       0.96721898
C       -0.36324971      -0.41721000      -0.57422374
C       -1.73000345      -0.19191588      -0.02825348
N       -1.38769192       0.26555636      -1.35815389
H        1.12698793      -0.18413340      -0.82814030
H        1.89562641      -1.21681491       0.78906703
H        2.87945223       0.28391857       1.08443238
H       -0.19313836      -1.44880309      -0.88009344
H       -1.89216134       0.56212118       0.73260103
H       -2.40365661      -1.03844451       0.03376523
H       -1.20576939       1.26447109      -1.33526704
13
Frame=12 idx=002198 GeodesicLength=1.228301153971267 rxn_smarts="[C:1]([C:2](=[O:3])[C@@:4]1([H:10])[C:5]([H:11])([H:12])[N:6]1[H:13])([H:7])([H:8])[H:9]>>[C:1](=[C:2]=[O:3])([H:8])[H:9].[C:4]1([H:7])([H:10])[C:5]([H:11])([H:12])[N:6]1[H:13]"
C        1.99608938      -0.14624716       0.62807701
C        0.80485144       0.57561458       0.79443647
O        0.49485530       1.70846609       0.98100373
C       -0.36581143      -0.41100682      -0.58646920
C       -1.73062396      -0.19532123      -0.03103705
N       -1.39922515       0.26820453      -1.36191937
H        1.14620614      -0.21108891      -0.84740332
H        1.89311093      -1.21047354       0.81916777
H        2.88564377       0.28505877       1.07278666
H       -0.20247251      -1.44318383      -0.89514377
H       -1.89985488       0.55691808       0.73009568
H       -2.40021382      -1.04481431       0.03459693
H       -1.22255521       1.26787374      -1.33819154
13
Frame=13 idx=002198 GeodesicLength=1.330839812856297 rxn_smarts="[C:1]([C:2](=[O:3])[C@@:4]1([H:10])[C:5]([H:11])([H:12])[N:6]1[H:13])([H:7])([H:8])[H:9]>>[C:1](=[C:2]=[O:3])([H:8])[H:9].[C:4]1([H:7])([H:10])[C:5]([H:11])([H:12])[N:6]1[H:13]"
C        1.99581268      -0.14422597       0.62717367
C        0.80775629       0.58044755       0.82285286
O        0.51287066       1.71798453       0.99646013
C       -0.36829476      -0.40459739      -0.59849958
C       -1.73128437      -0.19836448      -0.03418519
N       -1.41026025       0.27109065      -1.36583524
H        1.16567063      -0.24169297      -0.86672663
H        1.89224015      -1.20301691       0.84834988
H        2.89135637       0.28722582       1.05922884
H       -0.21223890      -1.43753407      -0.90957921
H       -1.90801063       0.55194462       0.72718027
H       -2.39692173      -1.05071730       0.03476565
H       -1.23869614       1.27145592      -1.34118544
13
Frame=14 idx=002198 GeodesicLength=1.4332662445371611 rxn_smarts="[C:1]([C:2](=[O:3])[C@@:4]1([H:10])[C:5]([H:11])([H:12])[N:6]1[H:13])([H:7])([H:8])[H:9]>>[C:1](=[C:2]=[O:3])([H:8])[H:9].[C:4]1([H:7])([H:10])[C:5]([H:11])([H:12])[N:6]1[H:13]"
C        1.99461948      -0.14149534       0.62590442
C        0.81017497       0.58488612       0.85372693
O        0.53045829       1.72686951       1.01399970
C       -0.37066846      -0.39801276      -0.61029529
C       -1.73199121      -0.20097780      -0.03774815
N       -1.42068558       0.27427877      -1.36994379
H        1.18528926      -0.27646258      -0.88593225
H        1.89329646      -1.19438946       0.87658161
H        2.89652403       0.29071052       1.04336451
H       -0.22249121      -1.43190698      -0.92334864
H       -1.91665291       0.54726426       0.72379145
H       -2.39386461      -1.05603648       0.03417760
H       -1.25400852       1.27527221      -1.34427809
13
Frame=15 idx=002198 GeodesicLength=1.535553310654527 rxn_smarts="[C:1]([C:2](=[O:3])[C@@:4]1([H:10])[C:5]([H:11])([H:12])[N:6]1[H:13])([H:7])([H:8])[H:9]>>[C:1](=[C:2]=[O:3])([H:8])[H:9].[C:4]1([H:7])([H:10])[C:5]([H:11])([H:12])[N:6]1[H:13]"
C        1.99241637      -0.13791566       0.62414023
C        0.81211346       0.58883054       0.88720976
O        0.54738344       1.73491373       1.03409051
C       -0.37289470      -0.39129429      -0.62184718
C       -1.73274094      -0.20308737      -0.04177726
N       -1.43038050       0.27784587      -1.37428637
H        1.20495530      -0.31600198      -0.90481495
H        1.89654953      -1.18450545       0.90383829
H        2.90108137       0.29587986       1.02475838
H       -0.23329133      -1.42635533      -0.93642450
H       -1.92578366       0.54294425       0.71986921
H       -2.39112698      -1.06064208       0.03273575
H       -1.26828136       1.27938794      -1.34749186
13
Frame=16 idx=002198 GeodesicLength=1.6376963583912212 rxn_smarts="[C:1]([C:2](=[O:3])[C@@:4]1([H:10])[C:5]([H:11])([H:12])[N:6]1[H:13])([H:7])([H:8])[H:9]>>[C:1](=[C:2]=[O:3])([H:8])[H:9].[C:4]1([H:7])([H:10])[C:5]([H:11])([H:12])[N:6]1[H:13]"
C        1.98911757      -0.13332574       0.62172265
C        0.81358151       0.59214776       0.92348595
O        0.56336557       1.74188481       1.05729459
C       -0.37493200      -0.38450696      -0.63313975
C       -1.73353666      -0.20460282      -0.04633664
N       -1.43919796       0.28187377      -1.37892255
H        1.22449957      -0.36098058      -0.92304223
H        1.90241165      -1.17325395       0.93002958
H        2.90489363       0.30314109       1.00289021
H       -0.24471461      -1.42095991      -0.94876273
H       -1.93540789       0.53908053       0.71532955
H       -2.38883068      -1.06437075       0.03032718
H       -1.28124971       1.28387274      -1.35087582
