16
Frame=0 idx=008683 GeodesicLength=0.0 rxn_smarts="[C:1]([N:2]([C:3]([C:4](=[O:5])[O:6][C:7]([H:14])([H:15])[H:16])([H:12])[H:13])[H:11])([H:8])([H:9])[H:10]>>[C-:4]([O:5][H:11])=[O+:6][C:7]([H:14])([H:15])[H:16].[C:1]([N:2]=[C:3]([H:12])[H:13])([H:8])([H:9])[H:10]"
C       -2.46841073       0.43400471      -0.31786563
N       -1.73429436      -0.68536667       0.24793799
C       -1.14905862      -0.46126697       1.38420886
C        0.82586605      -0.00295517       0.36961837
O        0.50146143      -0.58967773      -0.70597326
O        2.06904829       0.39708129       0.45449843
C        2.96118857       0.14861015      -0.64801090
H       -2.98697405       1.01405313       0.45115235
H       -3.20713976       0.06866040      -1.03117177
H       -1.79020964       1.11175900      -0.85333127
H       -0.57488458      -0.85838052      -0.50112501
H       -0.65624527      -1.28263449       1.89125914
H       -1.35261765       0.42504565       1.98547611
H        3.91941607       0.56399232      -0.34814474
H        2.59480667       0.63909145      -1.54887388
H        3.04804759      -0.92201651      -0.82965476
16
Frame=1 idx=008683 GeodesicLength=0.06325366991437262 rxn_smarts="[C:1]([N:2]([C:3]([C:4](=[O:5])[O:6][C:7]([H:14])([H:15])[H:16])([H:12])[H:13])[H:11])([H:8])([H:9])[H:10]>>[C-:4]([O:5][H:11])=[O+:6][C:7]([H:14])([H:15])[H:16].[C:1]([N:2]=[C:3]([H:12])[H:13])([H:8])([H:9])[H:10]"
C       -2.48501786       0.42921388      -0.31436743
N       -1.73114896      -0.67967452       0.24617668
C       -1.13589698      -0.44558218       1.37900431
C        0.83069431      -0.00436140       0.36128156
O        0.50719430      -0.58094501      -0.71948284
O        2.07851418       0.37963385       0.46188623
C        2.97204920       0.14322444      -0.64168198
H       -3.00580962       1.00232320       0.45830538
H       -3.22382182       0.05103243      -1.02095782
H       -1.82161765       1.11533725      -0.85733207
H       -0.58648007      -0.85354625      -0.51602687
H       -0.64377591      -1.26549100       1.88975203
H       -1.35202643       0.43630813       1.98245674
H        3.93289292       0.54472363      -0.33136588
H        2.61317570       0.65242592      -1.53520373
H        3.05107470      -0.92462236      -0.84244430
16
Frame=2 idx=008683 GeodesicLength=0.1264900558261689 rxn_smarts="[C:1]([N:2]([C:3]([C:4](=[O:5])[O:6][C:7]([H:14])([H:15])[H:16])([H:12])[H:13])[H:11])([H:8])([H:9])[H:10]>>[C-:4]([O:5][H:11])=[O+:6][C:7]([H:14])([H:15])[H:16].[C:1]([N:2]=[C:3]([H:12])[H:13])([H:8])([H:9])[H:10]"
C       -2.50201837       0.42410553      -0.31049432
N       -1.72788865      -0.67380015       0.24412207
C       -1.12252594      -0.42953587       1.37326250
C        0.83532745      -0.00447545       0.35214491
O        0.51301272      -0.57106783      -0.73368087
O        2.08762339       0.36254579       0.46878120
C        2.98320043       0.13737910      -0.63502470
H       -3.02495967       0.98977561       0.46617160
H       -3.24065450       0.03292855      -1.01023802
H       -1.85412154       1.11885131      -0.86084078
H       -0.59825000      -0.84829425      -0.53124103
H       -0.63067727      -1.24783882       1.88753557
H       -1.35140501       0.44741888       1.97929640
H        3.94651415       0.52441796      -0.31406780
H        2.63274782       0.66498196      -1.52124205
H        3.05407500      -0.92739234      -0.85448468
16
Frame=3 idx=008683 GeodesicLength=0.18964755502305614 rxn_smarts="[C:1]([N:2]([C:3]([C:4](=[O:5])[O:6][C:7]([H:14])([H:15])[H:16])([H:12])[H:13])[H:11])([H:8])([H:9])[H:10]>>[C-:4]([O:5][H:11])=[O+:6][C:7]([H:14])([H:15])[H:16].[C:1]([N:2]=[C:3]([H:12])[H:13])([H:8])([H:9])[H:10]"
C       -2.51905030       0.41886011      -0.30638247
N       -1.72459532      -0.66772628       0.24183328
C       -1.10912858      -0.41318843       1.36710224
C        0.83988645      -0.00407332       0.34259789
O        0.51901062      -0.56078532      -0.74818841
O        2.09630988       0.34558326       0.47529058
C        2.99438637       0.13135160      -0.62820725
H       -3.04398717       0.97680785       0.47448648
H       -3.25727299       0.01469701      -0.99923510
H       -1.88707489       1.12222056      -0.86393327
H       -0.61022857      -0.84305345      -0.54651329
H       -0.61746710      -1.22984681       1.88486829
H       -1.35073326       0.45842511       1.97600725
H        3.95990072       0.50372309      -0.29661345
H        2.65282487       0.67699054      -1.50699561
H        3.05721928      -0.92998551      -0.86611718
16
Frame=4 idx=008683 GeodesicLength=0.2523253779230571 rxn_smarts="[C:1]([N:2]([C:3]([C:4](=[O:5])[O:6][C:7]([H:14])([H:15])[H:16])([H:12])[H:13])[H:11])([H:8])([H:9])[H:10]>>[C-:4]([O:5][H:11])=[O+:6][C:7]([H:14])([H:15])[H:16].[C:1]([N:2]=[C:3]([H:12])[H:13])([H:8])([H:9])[H:10]"
C       -2.53379027       0.41497442      -0.30299436
N       -1.72200912      -0.66148549       0.23984311
C       -1.09690815      -0.39728669       1.36147479
C        0.84495501      -0.00877184       0.33512026
O        0.52567795      -0.55597963      -0.76036184
O        2.10430681       0.32722695       0.48192331
C        3.00411052       0.12723546      -0.62238960
H       -3.06002911       0.96665906       0.48140010
H       -3.27164517      -0.00088020      -0.98937527
H       -1.91595144       1.12511573      -0.86741704
H       -0.62279406      -0.84096865      -0.56010796
H       -0.60762898      -1.21302006       1.88364984
H       -1.34987195       0.46948332       1.97278498
H        3.97096992       0.48767683      -0.28159154
H        2.66857049       0.69000536      -1.49270438
H        3.06203757      -0.92998459      -0.87925438
16
Frame=5 idx=008683 GeodesicLength=0.3151809594944822 rxn_smarts="[C:1]([N:2]([C:3]([C:4](=[O:5])[O:6][C:7]([H:14])([H:15])[H:16])([H:12])[H:13])[H:11])([H:8])([H:9])[H:10]>>[C-:4]([O:5][H:11])=[O+:6][C:7]([H:14])([H:15])[H:16].[C:1]([N:2]=[C:3]([H:12])[H:13])([H:8])([H:9])[H:10]"
C       -2.55009096       0.41003933      -0.29871423
N       -1.71896073      -0.65505887       0.23726758
C       -1.08385356      -0.38070175       1.35478636
C        0.84946779      -0.00920573       0.32549431
O        0.53219178      -0.54705083      -0.77462899
O        2.11199253       0.31032275       0.48772162
C        3.01487716       0.12158876      -0.61561120
H       -3.07778373       0.95405968       0.49001350
H       -3.28720403      -0.01826716      -0.97828985
H       -1.94819516       1.12814529      -0.86992023
H       -0.63540712      -0.83695282      -0.57492807
H       -0.59531064      -1.19498116       1.88064363
H       -1.34903196       0.48019334       1.96935066
H        3.98321383       0.46814606      -0.26468051
H        2.68799662       0.70123316      -1.47816567
H        3.06609817      -0.93151005      -0.89033892
16
Frame=6 idx=008683 GeodesicLength=0.37763541524833044 rxn_smarts="[C:1]([N:2]([C:3]([C:4](=[O:5])[O:6][C:7]([H:14])([H:15])[H:16])([H:12])[H:13])[H:11])([H:8])([H:9])[H:10]>>[C-:4]([O:5][H:11])=[O+:6][C:7]([H:14])([H:15])[H:16].[C:1]([N:2]=[C:3]([H:12])[H:13])([H:8])([H:9])[H:10]"
C       -2.56412889       0.40659455      -0.29519468
N       -1.71668904      -0.64852268       0.23505327
C       -1.07194581      -0.36466107       1.34868057
C        0.85449087      -0.01513930       0.31795920
O        0.53937521      -0.54400091      -0.78658264
O        2.11911599       0.29188113       0.49368429
C        3.02421117       0.11797767      -0.60983586
H       -3.09255804       0.94455726       0.49717785
H       -3.30068459      -0.03283761      -0.96833147
H       -1.97625850       1.13080331      -0.87296633
H       -0.64870035      -0.83632556      -0.58804344
H       -0.58643351      -1.17823014       1.87919809
H       -1.34788128       0.49102319       1.96595669
H        3.99325256       0.45358081      -0.25018521
H        2.70286189       0.71365926      -1.46358283
H        3.07197232      -0.93035992      -0.90298752
16
Frame=7 idx=008683 GeodesicLength=0.44022925543199315 rxn_smarts="[C:1]([N:2]([C:3]([C:4](=[O:5])[O:6][C:7]([H:14])([H:15])[H:16])([H:12])[H:13])[H:11])([H:8])([H:9])[H:10]>>[C-:4]([O:5][H:11])=[O+:6][C:7]([H:14])([H:15])[H:16].[C:1]([N:2]=[C:3]([H:12])[H:13])([H:8])([H:9])[H:10]"
C       -2.57971649       0.40201692      -0.29077253
N       -1.71392378      -0.64175827       0.23222198
C       -1.05920422      -0.34785157       1.34145473
C        0.85898056      -0.01663699       0.30829411
O        0.54642722      -0.53658034      -0.80061917
O        2.12588886       0.27490413       0.49885402
C        3.03455653       0.11277529      -0.60308331
H       -3.10901432       0.93246095       0.50603135
H       -3.31529514      -0.04933562      -0.95714486
H       -2.00775093       1.13350729      -0.87496103
H       -0.66203293      -0.83371633      -0.60235877
H       -0.57503914      -1.16014946       1.87588613
H       -1.34675355       0.50151777       1.96229632
H        4.00439862       0.43533466      -0.23376750
H        2.72147854       0.72429516      -1.44869859
H        3.07700017      -0.93078358      -0.91363287
16
Frame=8 idx=008683 GeodesicLength=0.5027707214701427 rxn_smarts="[C:1]([N:2]([C:3]([C:4](=[O:5])[O:6][C:7]([H:14])([H:15])[H:16])([H:12])[H:13])[H:11])([H:8])([H:9])[H:10]>>[C-:4]([O:5][H:11])=[O+:6][C:7]([H:14])([H:15])[H:16].[C:1]([N:2]=[C:3]([H:12])[H:13])([H:8])([H:9])[H:10]"
C       -2.59509439       0.39752939      -0.28624489
N       -1.71127322      -0.63481344       0.22925762
C       -1.04656952      -0.33082800       1.33392056
C        0.86348508      -0.01854553       0.29852091
O        0.55372948      -0.52961072      -0.81472644
O        2.13231049       0.25773766       0.50378169
C        3.04478681       0.10771171      -0.59628565
H       -3.12497457       0.92049212       0.51507840
H       -3.32957483      -0.06558841      -0.94581200
H       -2.03914714       1.13602187      -0.87673599
H       -0.67572973      -0.83173491      -0.61648617
H       -0.56399418      -1.14191499       1.87240103
H       -1.34543858       0.51204114       1.95845761
H        4.01515214       0.41742654      -0.21740878
H        2.73988162       0.73480589      -1.43349520
H        3.08245054      -0.93073033      -0.92422270
16
Frame=9 idx=008683 GeodesicLength=0.5653762086535133 rxn_smarts="[C:1]([N:2]([C:3]([C:4](=[O:5])[O:6][C:7]([H:14])([H:15])[H:16])([H:12])[H:13])[H:11])([H:8])([H:9])[H:10]>>[C-:4]([O:5][H:11])=[O+:6][C:7]([H:14])([H:15])[H:16].[C:1]([N:2]=[C:3]([H:12])[H:13])([H:8])([H:9])[H:10]"
C       -2.61106596       0.39250801      -0.28122399
N       -1.70843886      -0.62764011       0.22591392
C       -1.03362767      -0.31326487       1.32567228
C        0.86777055      -0.01849751       0.28768102
O        0.56112212      -0.52066161      -0.82989566
O        2.13833841       0.24116838       0.50823756
C        3.05540546       0.10194116      -0.58899608
H       -3.14140991       0.90730548       0.52503984
H       -3.34414185      -0.08268786      -0.93381806
H       -2.07213517       1.13838481      -0.87786198
H       -0.68963135      -0.82917535      -0.63107301
H       -0.55195833      -1.12291316       1.86792123
H       -1.34404248       0.52245413       1.95438584
H        4.02615161       0.39785053      -0.20013429
H        2.75998264       0.74442984      -1.41794733
H        3.08768078      -0.93120184      -0.93390126
16
Frame=10 idx=008683 GeodesicLength=0.6279486157276134 rxn_smarts="[C:1]([N:2]([C:3]([C:4](=[O:5])[O:6][C:7]([H:14])([H:15])[H:16])([H:12])[H:13])[H:11])([H:8])([H:9])[H:10]>>[C-:4]([O:5][H:11])=[O+:6][C:7]([H:14])([H:15])[H:16].[C:1]([N:2]=[C:3]([H:12])[H:13])([H:8])([H:9])[H:10]"
C       -2.62699162       0.38741135      -0.27598554
N       -1.70564339      -0.62025974       0.22235277
C       -1.02069634      -0.29540089       1.31697862
C        0.87200638      -0.01821045       0.27648126
O        0.56874178      -0.51148081      -0.84539619
O        2.14394599       0.22466799       0.51238451
C        3.06599544       0.09608623      -0.58153736
H       -3.15751645       0.89389053       0.53538822
H       -3.35848855      -0.09980793      -0.92154103
H       -2.10542417       1.14053524      -0.87860720
H       -0.70387814      -0.82698674      -0.64562094
H       -0.53992612      -1.10359733       1.86300176
H       -1.34246057       0.53283786       1.95010257
H        4.03684144       0.37808644      -0.18265810
H        2.78034448       0.75369456      -1.40207267
H        3.09314984      -0.93146632      -0.94327066
16
Frame=11 idx=008683 GeodesicLength=0.6905108867765355 rxn_smarts="[C:1]([N:2]([C:3]([C:4](=[O:5])[O:6][C:7]([H:14])([H:15])[H:16])([H:12])[H:13])[H:11])([H:8])([H:9])[H:10]>>[C-:4]([O:5][H:11])=[O+:6][C:7]([H:14])([H:15])[H:16].[C:1]([N:2]=[C:3]([H:12])[H:13])([H:8])([H:9])[H:10]"
C       -2.64297899       0.38214161      -0.27046444
N       -1.70284286      -0.61266343       0.21852872
C       -1.00771722      -0.27718676       1.30776601
C        0.87615078      -0.01729058       0.26475717
O        0.57657196      -0.50166574      -0.86139935
O        2.14909868       0.20839184       0.51618285
C        3.07661751       0.09001429      -0.57383217
H       -3.17340718       0.88004506       0.54624096
H       -3.37269477      -0.11711215      -0.90889625
H       -2.13926159       1.14246353      -0.87889174
H       -0.71845633      -0.82502323      -0.66022306
H       -0.52768218      -1.08387610       1.85749456
H       -1.34069671       0.54316527       1.94559519
H        4.04728626       0.35782133      -0.16481177
H        2.80126110       0.76246767      -1.38587021
H        3.09875153      -0.93169261      -0.95217648
16
Frame=12 idx=008683 GeodesicLength=0.7530270768260952 rxn_smarts="[C:1]([N:2]([C:3]([C:4](=[O:5])[O:6][C:7]([H:14])([H:15])[H:16])([H:12])[H:13])[H:11])([H:8])([H:9])[H:10]>>[C-:4]([O:5][H:11])=[O+:6][C:7]([H:14])([H:15])[H:16].[C:1]([N:2]=[C:3]([H:12])[H:13])([H:8])([H:9])[H:10]"
C       -2.65878082       0.37689789      -0.26476972
N       -1.70013706      -0.60486978       0.21450914
C       -0.99480843      -0.25873937       1.29813564
C        0.88026118      -0.01645204       0.25277811
O        0.58466593      -0.49193889      -0.87762849
O        2.15379566       0.19211748       0.51969527
C        3.08711154       0.08398656      -0.56600107
H       -3.18875686       0.86620345       0.55738664
H       -3.38659376      -0.13424990      -0.89601699
H       -2.17312552       1.14415612      -0.87883754
H       -0.73344583      -0.82371051      -0.67466903
H       -0.51561374      -1.06394974       1.85161396
H       -1.33868228       0.55347324       1.94085622
H        4.05728184       0.33766973      -0.14686362
H        2.82214327       0.77098347      -1.36933552
H        3.10468488      -0.93157770      -0.96085301
16
Frame=13 idx=008683 GeodesicLength=0.8155432044779802 rxn_smarts="[C:1]([N:2]([C:3]([C:4](=[O:5])[O:6][C:7]([H:14])([H:15])[H:16])([H:12])[H:13])[H:11])([H:8])([H:9])[H:10]>>[C-:4]([O:5][H:11])=[O+:6][C:7]([H:14])([H:15])[H:16].[C:1]([N:2]=[C:3]([H:12])[H:13])([H:8])([H:9])[H:10]"
C       -2.67461950       0.37147557      -0.25878079
N       -1.69743126      -0.59685946       0.21021247
C       -0.98185534      -0.23994419       1.28795598
C        0.88426747      -0.01492953       0.24023754
O        0.59298376      -0.48150152      -0.89440818
O        2.15799308       0.17610587       0.52285655
C        3.09760641       0.07773697      -0.55790025
H       -3.20382052       0.85194799       0.56904534
H       -3.40034025      -0.15157053      -0.88274509
H       -2.20751979       1.14559157      -0.87830224
H       -0.74879840      -0.82272323      -0.68914134
H       -0.50330731      -1.04361702       1.84509673
H       -1.33644044       0.56373230       1.93586125
H        4.06697507       0.31698770      -0.12849354
H        2.84357718       0.77900941      -1.35244701
H        3.11072984      -0.93144188      -0.96904743
16
Frame=14 idx=008683 GeodesicLength=0.8780948893456084 rxn_smarts="[C:1]([N:2]([C:3]([C:4](=[O:5])[O:6][C:7]([H:14])([H:15])[H:16])([H:12])[H:13])[H:11])([H:8])([H:9])[H:10]>>[C-:4]([O:5][H:11])=[O+:6][C:7]([H:14])([H:15])[H:16].[C:1]([N:2]=[C:3]([H:12])[H:13])([H:8])([H:9])[H:10]"
C       -2.69062505       0.36571817      -0.25241239
N       -1.69465230      -0.58861102       0.20557526
C       -0.96878836      -0.22070595       1.27713064
C        0.88812548      -0.01215120       0.22692091
O        0.60150471      -0.46974455      -0.91196867
O        2.16163229       0.16055101       0.52562455
C        3.10816509       0.07107103      -0.54942853
H       -3.21873794       0.83697294       0.58136762
H       -3.41400351      -0.16933175      -0.86897328
H       -2.24278037       1.14672519      -0.87717204
H       -0.76447030      -0.82185079      -0.70375613
H       -0.49047643      -1.02272331       1.83774880
H       -1.33398612       0.57392483       1.93059121
H        4.07641857       0.29529258      -0.10947387
H        2.86597132       0.78637676      -1.33517506
H        3.11670291      -0.93151395      -0.97659901
16
Frame=15 idx=008683 GeodesicLength=0.9405381035053458 rxn_smarts="[C:1]([N:2]([C:3]([C:4](=[O:5])[O:6][C:7]([H:14])([H:15])[H:16])([H:12])[H:13])[H:11])([H:8])([H:9])[H:10]>>[C-:4]([O:5][H:11])=[O+:6][C:7]([H:14])([H:15])[H:16].[C:1]([N:2]=[C:3]([H:12])[H:13])([H:8])([H:9])[H:10]"
C       -2.70599253       0.36040902      -0.24607547
N       -1.69218219      -0.58022904       0.20087428
C       -0.95599613      -0.20152187       1.26606697
C        0.89203338      -0.01087402       0.21382852
O        0.61038521      -0.45949792      -0.92926564
O        2.16483321       0.14452940       0.52821678
C        3.11830788       0.06497848      -0.54104347
H       -3.23249137       0.82292836       0.59357901
H       -3.42712606      -0.18620332      -0.85517819
H       -2.27705423       1.14763418      -0.87596811
H       -0.78076286      -0.82255463      -0.71777418
H       -0.47853074      -1.00206850       1.83041518
H       -1.33109492       0.58416888       1.92504345
H        4.08506623       0.27492651      -0.09082784
H        2.88717961       0.79400196      -1.31752427
H        3.12342550      -0.93062750      -0.98436703
16
Frame=16 idx=008683 GeodesicLength=1.0030157589610895 rxn_smarts="[C:1]([N:2]([C:3]([C:4](=[O:5])[O:6][C:7]([H:14])([H:15])[H:16])([H:12])[H:13])[H:11])([H:8])([H:9])[H:10]>>[C-:4]([O:5][H:11])=[O+:6][C:7]([H:14])([H:15])[H:16].[C:1]([N:2]=[C:3]([H:12])[H:13])([H:8])([H:9])[H:10]"
C       -2.72142878       0.35483790      -0.23938613
N       -1.68967903      -0.57162998       0.19584373
C       -0.94312150      -0.18196468       1.25436325
C        0.89578481      -0.00851154       0.19999126
O        0.61949402      -0.44810726      -0.94730729
O        2.16743222       0.12894325       0.53041910
C        3.12843797       0.05855665      -0.53229915
H       -3.24593622       0.80835521       0.60638679
H       -3.44012741      -0.20338547      -0.84088970
H       -2.31199673       1.14822127      -0.87420669
H       -0.79743906      -0.82363817      -0.73181621
H       -0.46613711      -0.98094344       1.82226631
H       -1.32792057       0.59435376       1.91918752
H        4.09335464       0.25373499      -0.07156313
H        2.90915655       0.80104123      -1.29946944
H        3.13012620      -0.92986373      -0.99152020
