13
Frame=0 idx=009684 GeodesicLength=0.0 rxn_smarts="[C:1]([c:2]1[n:3][c:4]([H:11])[c:5]([O:6][H:12])[n:7]1[H:13])([H:8])([H:9])[H:10]>>[C:1]([C:2]1=[N:7][C@@:5]([O:6][H:12])([H:13])[C:4]([H:11])=[N:3]1)([H:8])([H:9])[H:10]"
C        2.13904866      -0.30864217       0.14004974
C        0.68063326      -0.17023262      -0.12748956
N        0.16605550      -0.10260854      -1.35844535
C       -1.14184309       0.12135028      -1.21387240
C       -1.44738480       0.20719920       0.14464632
O       -2.65281167       0.13499844       0.75555220
N       -0.22007290      -0.01165648       0.86691315
H        2.59311798      -0.92053009      -0.63818704
H        2.31036285      -0.76881044       1.11194559
H        2.63402651       0.66536510       0.12970764
H       -1.82091463       0.22393914      -2.04680996
H       -2.52199169      -0.22165922       1.63861584
H       -0.71822603       1.15128743       0.59737383
13
Frame=1 idx=009684 GeodesicLength=0.049276425065174864 rxn_smarts="[C:1]([c:2]1[n:3][c:4]([H:11])[c:5]([O:6][H:12])[n:7]1[H:13])([H:8])([H:9])[H:10]>>[C:1]([C:2]1=[N:7][C@@:5]([O:6][H:12])([H:13])[C:4]([H:11])=[N:3]1)([H:8])([H:9])[H:10]"
C        2.13954095      -0.31018169       0.13940650
C        0.68085315      -0.17036992      -0.12481127
N        0.15944986      -0.13125382      -1.35665280
C       -1.14508018       0.10788809      -1.20988480
C       -1.44323846       0.23262837       0.14960983
O       -2.64715256       0.17475031       0.76684882
N       -0.21452870       0.02052020       0.86652385
H        2.60079309      -0.89365786      -0.65649796
H        2.31161084      -0.80539736       1.09425664
H        2.62992654       0.66569043       0.16372626
H       -1.82861263       0.19223892      -2.04165264
H       -2.53307697      -0.27153229       1.61060968
H       -0.71048495       1.18867662       0.59851786
13
Frame=2 idx=009684 GeodesicLength=0.09799921649125451 rxn_smarts="[C:1]([c:2]1[n:3][c:4]([H:11])[c:5]([O:6][H:12])[n:7]1[H:13])([H:8])([H:9])[H:10]>>[C:1]([C:2]1=[N:7][C@@:5]([O:6][H:12])([H:13])[C:4]([H:11])=[N:3]1)([H:8])([H:9])[H:10]"
C        2.13958756      -0.31140674       0.13858404
C        0.68100329      -0.17005980      -0.12192209
N        0.15232441      -0.15997086      -1.35327597
C       -1.14806116       0.09527911      -1.20467255
C       -1.43832939       0.25756853       0.15439116
O       -2.63942737       0.21024500       0.77899838
N       -0.20854469       0.05155380       0.86540389
H        2.60709297      -0.86566209      -0.67411229
H        2.31231633      -0.84096257       1.07471076
H        2.62582198       0.66484375       0.19768376
H       -1.83656689       0.15975018      -2.03408263
H       -2.54516001      -0.31624683       1.57738217
H       -0.70205702       1.22506853       0.60091136
13
Frame=3 idx=009684 GeodesicLength=0.14729976472162426 rxn_smarts="[C:1]([c:2]1[n:3][c:4]([H:11])[c:5]([O:6][H:12])[n:7]1[H:13])([H:8])([H:9])[H:10]>>[C:1]([C:2]1=[N:7][C@@:5]([O:6][H:12])([H:13])[C:4]([H:11])=[N:3]1)([H:8])([H:9])[H:10]"
C        2.14015456      -0.31255514       0.13767379
C        0.68146266      -0.16922292      -0.11898311
N        0.14494270      -0.18885390      -1.34910976
C       -1.15121878       0.08332248      -1.19905495
C       -1.43345292       0.28212671       0.15896923
O       -2.63110326       0.24197089       0.79226545
N       -0.20230153       0.08188580       0.86396231
H        2.61361326      -0.83653270      -0.69146769
H        2.31352779      -0.87627257       1.05374564
H        2.62242348       0.66265010       0.23211895
H       -1.84535508       0.12655135      -2.02533031
H       -2.55858469      -0.35602611       1.54082296
H       -0.69410819       1.26095601       0.60438750
13
Frame=4 idx=009684 GeodesicLength=0.19692100490657727 rxn_smarts="[C:1]([c:2]1[n:3][c:4]([H:11])[c:5]([O:6][H:12])[n:7]1[H:13])([H:8])([H:9])[H:10]>>[C:1]([C:2]1=[N:7][C@@:5]([O:6][H:12])([H:13])[C:4]([H:11])=[N:3]1)([H:8])([H:9])[H:10]"
C        2.14075898      -0.31351639       0.13666772
C        0.68206444      -0.16784566      -0.11601523
N        0.13716673      -0.21830824      -1.34384789
C       -1.15434310       0.07170690      -1.19293674
C       -1.42837543       0.30601362       0.16324362
O       -2.62181986       0.26987639       0.80627404
N       -0.19576256       0.11165215       0.86199589
H        2.61950319      -0.80696938      -0.70799329
H        2.31475733      -0.91038287       1.03159094
H        2.61938419       0.65921610       0.26631555
H       -1.85432931       0.09387366      -2.01526790
H       -2.57245341      -0.39159928       1.50122499
H       -0.68655120       1.29628300       0.60874830
13
Frame=5 idx=009684 GeodesicLength=0.246877400605387 rxn_smarts="[C:1]([c:2]1[n:3][c:4]([H:11])[c:5]([O:6][H:12])[n:7]1[H:13])([H:8])([H:9])[H:10]>>[C:1]([C:2]1=[N:7][C@@:5]([O:6][H:12])([H:13])[C:4]([H:11])=[N:3]1)([H:8])([H:9])[H:10]"
C        2.14160030      -0.31426053       0.13554980
C        0.68287867      -0.16613783      -0.11308381
N        0.12921960      -0.24818703      -1.33757710
C       -1.15728191       0.06064556      -1.18654475
C       -1.42319310       0.32915180       0.16714947
O       -2.61197313       0.29500069       0.82058843
N       -0.18908978       0.14040503       0.85953028
H        2.62538447      -0.77526992      -0.72443515
H        2.31621975      -0.94461939       1.00734301
H        2.61656221       0.65451376       0.30159581
H       -1.86361919       0.05988219      -2.00391976
H       -2.58731274      -0.42186697       1.45952546
H       -0.67939514       1.33074266       0.61427831
13
Frame=6 idx=009684 GeodesicLength=0.2971637248728958 rxn_smarts="[C:1]([c:2]1[n:3][c:4]([H:11])[c:5]([O:6][H:12])[n:7]1[H:13])([H:8])([H:9])[H:10]>>[C:1]([C:2]1=[N:7][C@@:5]([O:6][H:12])([H:13])[C:4]([H:11])=[N:3]1)([H:8])([H:9])[H:10]"
C        2.14256540      -0.31475874       0.13431983
C        0.68385039      -0.16415879      -0.11015585
N        0.12090262      -0.27907641      -1.33008101
C       -1.16009169       0.04972999      -1.17986942
C       -1.41790535       0.35145571       0.17067411
O       -2.60150139       0.31718275       0.83521957
N       -0.18220652       0.16853568       0.85653805
H        2.63084247      -0.74246144      -0.74020414
H        2.31794087      -0.97788035       0.98154312
H        2.61394216       0.64856377       0.33700796
H       -1.87288003       0.02631977      -1.99149251
H       -2.60277396      -0.44795010       1.41583930
H       -0.67268496       1.36449816       0.62066099
13
Frame=7 idx=009684 GeodesicLength=0.34771407969678847 rxn_smarts="[C:1]([c:2]1[n:3][c:4]([H:11])[c:5]([O:6][H:12])[n:7]1[H:13])([H:8])([H:9])[H:10]>>[C:1]([C:2]1=[N:7][C@@:5]([O:6][H:12])([H:13])[C:4]([H:11])=[N:3]1)([H:8])([H:9])[H:10]"
C        2.14375069      -0.31501652       0.13296113
C        0.68501619      -0.16201464      -0.10728384
N        0.11244802      -0.31077000      -1.32140089
C       -1.16265545       0.03880628      -1.17304409
C       -1.41259459       0.37277500       0.17376811
O       -2.59064656       0.33695655       0.84987803
N       -0.17523747       0.19586918       0.85301197
H        2.63612783      -0.70770475      -0.75558910
H        2.32005226      -1.01075895       0.95368100
H        2.61144972       0.64124146       0.37313922
H       -1.88199265      -0.00751824      -1.97809726
H       -2.61909987      -0.46925724       1.37101541
H       -0.66661812       1.39739188       0.62796032
13
Frame=8 idx=009684 GeodesicLength=0.39844389908247835 rxn_smarts="[C:1]([c:2]1[n:3][c:4]([H:11])[c:5]([O:6][H:12])[n:7]1[H:13])([H:8])([H:9])[H:10]>>[C:1]([C:2]1=[N:7][C@@:5]([O:6][H:12])([H:13])[C:4]([H:11])=[N:3]1)([H:8])([H:9])[H:10]"
C        2.14511920      -0.31498447       0.13145428
C        0.68630607      -0.16003919      -0.10438717
N        0.10376376      -0.34365886      -1.31134147
C       -1.16498137       0.02756357      -1.16605268
C       -1.40728855       0.39292760       0.17644616
O       -2.57945340       0.35426160       0.86447997
N       -0.16818803       0.22239259       0.84896778
H        2.64097636      -0.67176915      -0.77022361
H        2.32280573      -1.04232061       0.92427755
H        2.60897749       0.63276185       0.40904888
H       -1.89060382      -0.04014193      -1.96415073
H       -2.63622619      -0.48629594       1.32537855
H       -0.66120725       1.42930293       0.63610249
13
Frame=9 idx=009684 GeodesicLength=0.44934146295118876 rxn_smarts="[C:1]([c:2]1[n:3][c:4]([H:11])[c:5]([O:6][H:12])[n:7]1[H:13])([H:8])([H:9])[H:10]>>[C:1]([C:2]1=[N:7][C@@:5]([O:6][H:12])([H:13])[C:4]([H:11])=[N:3]1)([H:8])([H:9])[H:10]"
C        2.14667836      -0.31468186       0.12978794
C        0.68769770      -0.15838721      -0.10142364
N        0.09494500      -0.37760283      -1.29985711
C       -1.16701963       0.01585830      -1.15891851
C       -1.40200936       0.41190781       0.17870531
O       -2.56798931       0.36936959       0.87892525
N       -0.16109448       0.24813843       0.84441366
H        2.64533692      -0.63454318      -0.78414363
H        2.32633461      -1.07260445       0.89325177
H        2.60646707       0.62309742       0.44474855
H       -1.89859709      -0.07166289      -1.94985836
H       -2.65425214      -0.49912194       1.27927669
H       -0.65649765       1.46023281       0.64509207
13
Frame=10 idx=009684 GeodesicLength=0.5003936513598716 rxn_smarts="[C:1]([c:2]1[n:3][c:4]([H:11])[c:5]([O:6][H:12])[n:7]1[H:13])([H:8])([H:9])[H:10]>>[C:1]([C:2]1=[N:7][C@@:5]([O:6][H:12])([H:13])[C:4]([H:11])=[N:3]1)([H:8])([H:9])[H:10]"
C        2.14842609      -0.31413685       0.12795531
C        0.68916091      -0.15722474      -0.09833133
N        0.08609373      -0.41235742      -1.28694737
C       -1.16874194       0.00356308      -1.15164303
C       -1.39676771       0.42973511       0.18054531
O       -2.55629262       0.38249826       0.89314690
N       -0.15397678       0.27315523       0.83935046
H        2.64912108      -0.59600273      -0.79733664
H        2.33076637      -1.10158756       0.86056548
H        2.60387642       0.61220916       0.48019630
H       -1.90589519      -0.10222305      -1.93538390
H       -2.67327400      -0.50782070       1.23294712
H       -0.65249636       1.49019223       0.65493541
13
Frame=11 idx=009684 GeodesicLength=0.5515218877853649 rxn_smarts="[C:1]([c:2]1[n:3][c:4]([H:11])[c:5]([O:6][H:12])[n:7]1[H:13])([H:8])([H:9])[H:10]>>[C:1]([C:2]1=[N:7][C@@:5]([O:6][H:12])([H:13])[C:4]([H:11])=[N:3]1)([H:8])([H:9])[H:10]"
C        2.15035105      -0.31335951       0.12594349
C        0.69063392      -0.15685590      -0.09498903
N        0.07727010      -0.44774625      -1.27261063
C       -1.17013519      -0.00940142      -1.14420443
C       -1.39158098       0.44637402       0.18199549
O       -2.54440957       0.39369633       0.90709589
N       -0.14686046       0.29738907       0.83380264
H        2.65215375      -0.55662106      -0.80968952
H        2.33631767      -1.12885045       0.82657139
H        2.60115650       0.60028870       0.51483297
H       -1.91235028      -0.13141462      -1.92102345
H       -2.69334990      -0.51258713       1.18655441
H       -0.64919662       1.51908823       0.66572078
13
Frame=12 idx=009684 GeodesicLength=0.6026984956258745 rxn_smarts="[C:1]([c:2]1[n:3][c:4]([H:11])[c:5]([O:6][H:12])[n:7]1[H:13])([H:8])([H:9])[H:10]>>[C:1]([C:2]1=[N:7][C@@:5]([O:6][H:12])([H:13])[C:4]([H:11])=[N:3]1)([H:8])([H:9])[H:10]"
C        2.15244382      -0.31238154       0.12374962
C        0.69207990      -0.15745306      -0.09128756
N        0.06856354      -0.48349221      -1.25691061
C       -1.17118865      -0.02306614      -1.13658519
C       -1.38645060       0.46187812       0.18307094
O       -2.53234695       0.40307623       0.92075828
N       -0.13975133       0.32089074       0.82776863
H        2.65432218      -0.51652368      -0.82120176
H        2.34310400      -1.15433559       0.79135457
H        2.59830176       0.58738503       0.54852136
H       -1.91793226      -0.15940804      -1.90689671
H       -2.71456080      -0.51349542       1.14015230
H       -0.64658461       1.54692557       0.67750613
13
Frame=13 idx=009684 GeodesicLength=0.6539063577478377 rxn_smarts="[C:1]([c:2]1[n:3][c:4]([H:11])[c:5]([O:6][H:12])[n:7]1[H:13])([H:8])([H:9])[H:10]>>[C:1]([C:2]1=[N:7][C@@:5]([O:6][H:12])([H:13])[C:4]([H:11])=[N:3]1)([H:8])([H:9])[H:10]"
C        2.15469725      -0.31123476       0.12137706
C        0.69347550      -0.15913871      -0.08712091
N        0.06007789      -0.51931453      -1.23996299
C       -1.17190463      -0.03748559      -1.12876504
C       -1.38137526       0.47630291       0.18377740
O       -2.52009865       0.41073923       0.93413115
N       -0.13264743       0.34373302       0.82122725
H        2.65554217      -0.47570991      -0.83188188
H        2.35119950      -1.17807934       0.75489998
H        2.59532537       0.57348891       0.58126521
H       -1.92264411      -0.18650298      -1.89306012
H       -2.73699433      -0.51051941       1.09378300
H       -0.64465327       1.57372116       0.69032990
13
Frame=14 idx=009684 GeodesicLength=0.7051249871940872 rxn_smarts="[C:1]([c:2]1[n:3][c:4]([H:11])[c:5]([O:6][H:12])[n:7]1[H:13])([H:8])([H:9])[H:10]>>[C:1]([C:2]1=[N:7][C@@:5]([O:6][H:12])([H:13])[C:4]([H:11])=[N:3]1)([H:8])([H:9])[H:10]"
C        2.15710585      -0.30993292       0.11882425
C        0.69479975      -0.16204282      -0.08235968
N        0.05188199      -0.55506949      -1.22185019
C       -1.17228772      -0.05270860      -1.12071030
C       -1.37634788       0.48969489       0.18412502
O       -2.50764147       0.41673457       0.94722707
N       -0.12553791       0.36597478       0.81415464
H        2.65571649      -0.43417558      -0.84173490
H        2.36069386      -1.20007173       0.71719038
H        2.59224539       0.55861554       0.61303987
H       -1.92648227      -0.21291712      -1.87955445
H       -2.76076074      -0.50356903       1.04740219
H       -0.64338534       1.59946751       0.70424610
13
Frame=15 idx=009684 GeodesicLength=0.7563303378745253 rxn_smarts="[C:1]([c:2]1[n:3][c:4]([H:11])[c:5]([O:6][H:12])[n:7]1[H:13])([H:8])([H:9])[H:10]>>[C:1]([C:2]1=[N:7][C@@:5]([O:6][H:12])([H:13])[C:4]([H:11])=[N:3]1)([H:8])([H:9])[H:10]"
C        2.15966587      -0.30848255       0.11608917
C        0.69604671      -0.16623887      -0.07688253
N        0.04403952      -0.59066170      -1.20264945
C       -1.17234658      -0.06879635      -1.11237739
C       -1.37136122       0.50208659       0.18412471
O       -2.49493371       0.42103648       0.96008029
N       -0.11839980       0.38769586       0.80650547
H        2.65474757      -0.39191192      -0.85075543
H        2.37163568      -1.22029898       0.67818793
H        2.58911373       0.54276168       0.64383654
H       -1.92944465      -0.23886512      -1.86639688
H       -2.78597421      -0.49247653       1.00092422
H       -0.64278890       1.62415141       0.71931335
13
Frame=16 idx=009684 GeodesicLength=0.807486661172348 rxn_smarts="[C:1]([c:2]1[n:3][c:4]([H:11])[c:5]([O:6][H:12])[n:7]1[H:13])([H:8])([H:9])[H:10]>>[C:1]([C:2]1=[N:7][C@@:5]([O:6][H:12])([H:13])[C:4]([H:11])=[N:3]1)([H:8])([H:9])[H:10]"
C        2.16237177      -0.30688329       0.11316968
C        0.69722971      -0.17172913      -0.07059589
N        0.03662698      -0.62599743      -1.18245460
C       -1.17209729      -0.08584175      -1.10371104
C       -1.36640524       0.51348950       0.18378228
O       -2.48190884       0.42354324       0.97273619
N       -0.11119695       0.40899153       0.79820055
H        2.65254977      -0.34887973      -0.85891811
H        2.38400917      -1.23875259       0.63781825
H        2.58600474       0.52587910       0.67369360
H       -1.93153686      -0.26460568      -1.85357060
H       -2.81274700      -0.47695716       0.95425526
H       -0.64289997       1.64774338       0.73559443
