10
Frame=0 idx=007649 GeodesicLength=0.0 rxn_smarts="[N:1]#[C:2][c:3]1[c:4]([H:8])[o:5][c:6]([H:9])[c:7]1[H:10]>>[N:1]#[C:2][C:3]([C:4](=[O:5])[H:8])=[C:7]=[C:6]([H:9])[H:10]"
N        3.23638084      -0.55454220      -0.12813519
C        2.10211540      -0.39358928      -0.05399610
C        0.69631894      -0.16804104       0.04082568
C        0.13099106       1.01951013       0.37182643
O       -1.20067101       0.95678502       0.35072200
C       -1.48384468      -0.35893441      -0.00574499
C       -0.34576858      -1.17237342      -0.14605428
H        0.56015663       1.97914017       0.61993415
H       -2.52360664      -0.63302292       0.10734876
H       -1.17207195      -0.67493204      -1.15672645
10
Frame=1 idx=007649 GeodesicLength=0.10621604332973966 rxn_smarts="[N:1]#[C:2][c:3]1[c:4]([H:8])[o:5][c:6]([H:9])[c:7]1[H:10]>>[N:1]#[C:2][C:3]([C:4](=[O:5])[H:8])=[C:7]=[C:6]([H:9])[H:10]"
N        3.23409719      -0.56074503      -0.12035676
C        2.10038009      -0.39204637      -0.05527268
C        0.69559279      -0.15937499       0.03216891
C        0.13344226       1.03608938       0.35904289
O       -1.19456138       0.97680673       0.34441712
C       -1.49149089      -0.36517714      -0.01472572
C       -0.34538593      -1.15826559      -0.14913680
H        0.57530170       1.97819261       0.65036782
H       -2.52452114      -0.65052205       0.12604454
H       -1.18285470      -0.70495755      -1.17254934
10
Frame=2 idx=007649 GeodesicLength=0.2124006285204163 rxn_smarts="[N:1]#[C:2][c:3]1[c:4]([H:8])[o:5][c:6]([H:9])[c:7]1[H:10]>>[N:1]#[C:2][C:3]([C:4](=[O:5])[H:8])=[C:7]=[C:6]([H:9])[H:10]"
N        3.23141458      -0.56669151      -0.11345950
C        2.09838867      -0.39083222      -0.05531428
C        0.69471558      -0.15054092       0.02401933
C        0.13611406       1.05249930       0.34867387
O       -1.18823789       0.99725849       0.33959008
C       -1.49936931      -0.37139648      -0.02421745
C       -0.34528970      -1.14354317      -0.15324760
H        0.59013394       1.97673752       0.67808985
H       -2.52477514      -0.66803266       0.14422267
H       -1.19309479      -0.73545836      -1.18835697
10
Frame=3 idx=007649 GeodesicLength=0.3185959995525769 rxn_smarts="[N:1]#[C:2][c:3]1[c:4]([H:8])[o:5][c:6]([H:9])[c:7]1[H:10]>>[N:1]#[C:2][C:3]([C:4](=[O:5])[H:8])=[C:7]=[C:6]([H:9])[H:10]"
N        3.22836008      -0.57270551      -0.10645342
C        2.09611409      -0.38980334      -0.05479144
C        0.69367601      -0.14149578       0.01601830
C        0.13896950       1.06851419       0.34129385
O       -1.18172857       1.01796575       0.33684506
C       -1.50751493      -0.37771138      -0.03417772
C       -0.34548691      -1.12817815      -0.15882060
H        0.60493549       1.97551416       0.70236976
H       -2.52432091      -0.68586520       0.16198641
H       -1.20300384      -0.76623475      -1.20427020
10
Frame=4 idx=007649 GeodesicLength=0.42472896597061016 rxn_smarts="[N:1]#[C:2][c:3]1[c:4]([H:8])[o:5][c:6]([H:9])[c:7]1[H:10]>>[N:1]#[C:2][C:3]([C:4](=[O:5])[H:8])=[C:7]=[C:6]([H:9])[H:10]"
N        3.22488471      -0.57880064      -0.09965618
C        2.09350985      -0.38900836      -0.05351896
C        0.69244792      -0.13221687       0.00815423
C        0.14196832       1.08421951       0.33656674
O       -1.17506162       1.03899019       0.33606133
C       -1.51596389      -0.38412061      -0.04469235
C       -0.34601221      -1.11216743      -0.16567266
H        0.61992692       1.97478892       0.72377859
H       -2.52316569      -0.70400978       0.17920164
H       -1.21253432      -0.79767494      -1.22022239
10
Frame=5 idx=007649 GeodesicLength=0.5309119326667775 rxn_smarts="[N:1]#[C:2][c:3]1[c:4]([H:8])[o:5][c:6]([H:9])[c:7]1[H:10]>>[N:1]#[C:2][C:3]([C:4](=[O:5])[H:8])=[C:7]=[C:6]([H:9])[H:10]"
N        3.22096666      -0.58535028      -0.09134488
C        2.09057126      -0.38799609      -0.05312023
C        0.69104601      -0.12235336      -0.00060699
C        0.14515310       1.09997268       0.33340361
O       -1.16818520       1.06060107       0.33670063
C       -1.52469916      -0.39065088      -0.05560745
C       -0.34681963      -1.09536820      -0.17390414
H        0.63522029       1.97412626       0.74391402
H       -2.52110828      -0.72256696       0.19653442
H       -1.22214505      -0.83041423      -1.23596899
10
Frame=6 idx=007649 GeodesicLength=0.6370515068447078 rxn_smarts="[N:1]#[C:2][c:3]1[c:4]([H:8])[o:5][c:6]([H:9])[c:7]1[H:10]>>[N:1]#[C:2][C:3]([C:4](=[O:5])[H:8])=[C:7]=[C:6]([H:9])[H:10]"
N        3.21652107      -0.59205268      -0.08328732
C        2.08723165      -0.38711850      -0.05227267
C        0.68943182      -0.11205535      -0.00954685
C        0.14849134       1.11576150       0.33193926
O       -1.16111886       1.08284714       0.33870093
C       -1.53377618      -0.39723426      -0.06716844
C       -0.34799535      -1.07781396      -0.18311837
H        0.65086445       1.97375495       0.76282591
H       -2.51829573      -0.74128072       0.21332493
H       -1.23135421      -0.86480813      -1.25139739
10
Frame=7 idx=007649 GeodesicLength=0.7431834535784706 rxn_smarts="[N:1]#[C:2][c:3]1[c:4]([H:8])[o:5][c:6]([H:9])[c:7]1[H:10]>>[N:1]#[C:2][C:3]([C:4](=[O:5])[H:8])=[C:7]=[C:6]([H:9])[H:10]"
N        3.21148260      -0.59918068      -0.07430925
C        2.08347194      -0.38609320      -0.05199649
C        0.68760259      -0.10110499      -0.01924134
C        0.15200397       1.13171697       0.33179779
O       -1.15383726       1.10579009       0.34210876
C       -1.54318892      -0.40391385      -0.07929926
C       -0.34952202      -1.05935790      -0.19359699
H        0.66695256       1.97351587       0.78098390
H       -2.51457058      -0.76024886       0.22987913
H       -1.24039488      -0.90112346      -1.26632627
10
Frame=8 idx=007649 GeodesicLength=0.8493032585773064 rxn_smarts="[N:1]#[C:2][c:3]1[c:4]([H:8])[o:5][c:6]([H:9])[c:7]1[H:10]>>[N:1]#[C:2][C:3]([C:4](=[O:5])[H:8])=[C:7]=[C:6]([H:9])[H:10]"
N        3.20579563      -0.60649377      -0.06580642
C        2.07921803      -0.38517586      -0.05135131
C        0.68552947      -0.08958239      -0.02917166
C        0.15568950       1.14787681       0.33302068
O       -1.14632499       1.12956565       0.34669441
C       -1.55297990      -0.41062034      -0.09221792
C       -0.35147537      -1.03998959      -0.20504176
H        0.68346873       1.97344633       0.79869177
H       -2.51007163      -0.77919086       0.24571095
H       -1.24884946      -0.93983598      -1.28052872
10
Frame=9 idx=007649 GeodesicLength=0.955411458395035 rxn_smarts="[N:1]#[C:2][c:3]1[c:4]([H:8])[o:5][c:6]([H:9])[c:7]1[H:10]>>[N:1]#[C:2][C:3]([C:4](=[O:5])[H:8])=[C:7]=[C:6]([H:9])[H:10]"
N        3.19933529      -0.61442436      -0.05594088
C        2.07447414      -0.38392740      -0.05186012
C        0.68320963      -0.07720466      -0.04006686
C        0.15956221       1.16430823       0.33532708
O       -1.13854721       1.15416725       0.35274899
C       -1.56313336      -0.41743818      -0.10579649
C       -0.35382401      -1.01945046      -0.21802060
H        0.70050808       1.97333631       0.81611946
H       -2.50454232      -0.79833943       0.26124967
H       -1.25704247      -0.98102730      -1.29376025
10
Frame=10 idx=007649 GeodesicLength=1.0615081270169067 rxn_smarts="[N:1]#[C:2][c:3]1[c:4]([H:8])[o:5][c:6]([H:9])[c:7]1[H:10]>>[N:1]#[C:2][C:3]([C:4](=[O:5])[H:8])=[C:7]=[C:6]([H:9])[H:10]"
N        3.19203132      -0.62267117      -0.04665667
C        2.06913518      -0.38272263      -0.05221134
C        0.68060252      -0.06415588      -0.05105992
C        0.16360798       1.18101532       0.33893993
O       -1.13049147       1.17969977       0.36010994
C       -1.57370322      -0.42427739      -0.12035673
C       -0.35666721      -0.99775102      -0.23221812
H        0.71802161       1.97337040       0.83336758
H       -2.49821681      -0.81731677       0.27581873
H       -1.26431989      -1.02519062      -1.30573342
10
Frame=11 idx=007649 GeodesicLength=1.1675789492118673 rxn_smarts="[N:1]#[C:2][c:3]1[c:4]([H:8])[o:5][c:6]([H:9])[c:7]1[H:10]>>[N:1]#[C:2][C:3]([C:4](=[O:5])[H:8])=[C:7]=[C:6]([H:9])[H:10]"
N        3.18382779      -0.63134683      -0.03777509
C        2.06314687      -0.38151399      -0.05257962
C        0.67768118      -0.05033598      -0.06221639
C        0.16783646       1.19802215       0.34382844
O       -1.12216331       1.20619783       0.36891758
C       -1.58471434      -0.43115500      -0.13598872
C       -0.36005819      -0.97468134      -0.24797484
H        0.73606998       1.97351463       0.85051066
H       -2.49103008      -0.83612589       0.28937127
H       -1.27059638      -1.07257558      -1.31609329
10
Frame=12 idx=007649 GeodesicLength=1.2736721031267078 rxn_smarts="[N:1]#[C:2][c:3]1[c:4]([H:8])[o:5][c:6]([H:9])[c:7]1[H:10]>>[N:1]#[C:2][C:3]([C:4](=[O:5])[H:8])=[C:7]=[C:6]([H:9])[H:10]"
N        3.17469856      -0.64038620      -0.03000658
C        2.05641967      -0.38045896      -0.05250431
C        0.67443346      -0.03572908      -0.07332325
C        0.17224172       1.21535984       0.35002590
O       -1.11352826       1.23381749       0.37893637
C       -1.59623220      -0.43802371      -0.15294435
C       -0.36405701      -0.95004709      -0.26548986
H        0.75457655       1.97367321       0.86789871
H       -2.48301084      -0.85457605       0.30179304
H       -1.27554165      -1.12362944      -1.32438567
10
Frame=13 idx=007649 GeodesicLength=1.3796813594202884 rxn_smarts="[N:1]#[C:2][c:3]1[c:4]([H:8])[o:5][c:6]([H:9])[c:7]1[H:10]>>[N:1]#[C:2][C:3]([C:4](=[O:5])[H:8])=[C:7]=[C:6]([H:9])[H:10]"
N        3.16422300      -0.65050547      -0.02113088
C        2.04885531      -0.37918240      -0.05333403
C        0.67077361      -0.02001628      -0.08510220
C        0.17680167       1.23306841       0.35743227
O       -1.10461173       1.26221083       0.39129051
C       -1.60818217      -0.44505561      -0.17105989
C       -0.36870299      -0.92335631      -0.28609410
H        0.77380390       1.97411749       0.88481010
H       -2.47352947      -0.87324454       0.31349970
H       -1.27943111      -1.17803612      -1.33031149
10
Frame=14 idx=007649 GeodesicLength=1.485736035374779 rxn_smarts="[N:1]#[C:2][c:3]1[c:4]([H:8])[o:5][c:6]([H:9])[c:7]1[H:10]>>[N:1]#[C:2][C:3]([C:4](=[O:5])[H:8])=[C:7]=[C:6]([H:9])[H:10]"
N        3.15246543      -0.66136197      -0.01337708
C        2.04028124      -0.37819852      -0.05352814
C        0.66670353      -0.00328497      -0.09690814
C        0.18151149       1.25118108       0.36617835
O       -1.09538039       1.29184918       0.40486626
C       -1.62071929      -0.45212670      -0.19082909
C       -0.37412659      -0.89428448      -0.30991418
H        0.79346553       1.97451233       0.90226026
H       -2.46267434      -0.89166908       0.32430122
H       -1.28152660      -1.23661688      -1.33304946
10
Frame=15 idx=007649 GeodesicLength=1.5916388702188267 rxn_smarts="[N:1]#[C:2][c:3]1[c:4]([H:8])[o:5][c:6]([H:9])[c:7]1[H:10]>>[N:1]#[C:2][C:3]([C:4](=[O:5])[H:8])=[C:7]=[C:6]([H:9])[H:10]"
N        3.13898506      -0.67362684      -0.00557435
C        2.03040310      -0.37765746      -0.05310913
C        0.66211677       0.01469714      -0.10910468
C        0.18625415       1.26972270       0.37617303
O       -1.08591877       1.32239321       0.42067518
C       -1.63380897      -0.45939188      -0.21216794
C       -0.38043061      -0.86195249      -0.33878912
H        0.81366504       1.97522108       0.91933500
H       -2.44949900      -0.91053056       0.33468854
H       -1.28176677      -1.29887491      -1.33212652
10
Frame=16 idx=007649 GeodesicLength=1.6974701199298468 rxn_smarts="[N:1]#[C:2][c:3]1[c:4]([H:8])[o:5][c:6]([H:9])[c:7]1[H:10]>>[N:1]#[C:2][C:3]([C:4](=[O:5])[H:8])=[C:7]=[C:6]([H:9])[H:10]"
N        3.12345577      -0.68756382       0.00106341
C        2.01863077      -0.37838748      -0.05023413
C        0.65690056       0.03403304      -0.12143959
C        0.19094596       1.28881287       0.38736191
O       -1.07628944       1.35406920       0.43836791
C       -1.64754223      -0.46694919      -0.23527231
C       -0.38787632      -0.82518827      -0.37445016
H        0.83425018       1.97629832       0.93617648
H       -2.43303001      -0.93027596       0.34512214
H       -1.27944523      -1.36484872      -1.32669565
