17
Frame=0 idx=007843 GeodesicLength=0.0 rxn_smarts="[C:1]([C:2]([C@@:3]([O:4][H:14])([C:5]([C:6](=[O:7])[H:17])([H:15])[H:16])[H:13])([H:11])[H:12])([H:8])([H:9])[H:10]>>[C:1](/[C:2](=[C:3](\[O:4][H:14])[H:13])[H:12])([H:8])([H:9])[H:10].[C:5](=[C:6]([O:7][H:11])[H:17])([H:15])[H:16]"
C       -1.76915584      -0.97034127      -0.82708776
C       -1.09605971       0.24111321      -0.20507195
C       -0.36036515       0.06865720       0.97867111
O       -0.06773814      -1.17584253       1.37286046
C        1.77505620       1.06515948       0.45513716
C        1.79493601       0.35165053      -0.71157196
O        0.98683407       0.57526331      -1.67638136
H       -2.20815951      -0.69745561      -1.78618697
H       -1.04660692      -1.76565907      -1.00896257
H       -2.55892475      -1.37260645      -0.18830867
H       -0.16727530       0.51920757      -1.03855269
H       -1.68055536       1.15972282      -0.19638246
H       -0.30451693       0.84325523       1.73124097
H        0.51258821      -1.15513505       2.13712949
H        2.47006504       0.82536122       1.25170224
H        1.29947369       2.03782559       0.48048260
H        2.42040446      -0.55017624      -0.76871758
17
Frame=1 idx=007843 GeodesicLength=0.10984057263673058 rxn_smarts="[C:1]([C:2]([C@@:3]([O:4][H:14])([C:5]([C:6](=[O:7])[H:17])([H:15])[H:16])[H:13])([H:11])[H:12])([H:8])([H:9])[H:10]>>[C:1](/[C:2](=[C:3](\[O:4][H:14])[H:13])[H:12])([H:8])([H:9])[H:10].[C:5](=[C:6]([O:7][H:11])[H:17])([H:15])[H:16]"
C       -1.81326363      -0.95657394      -0.81690990
C       -1.10091110       0.23924457      -0.21020474
C       -0.35449700       0.05820048       0.96727683
O       -0.05104456      -1.19573687       1.33173325
C        1.75477938       1.08078745       0.46651127
C        1.83658450       0.34496005      -0.68615278
O        1.03671490       0.49760443      -1.67058829
H       -2.26044085      -0.67713423      -1.77047786
H       -1.11362286      -1.77054246      -1.00553785
H       -2.60291207      -1.33691442      -0.16464275
H       -0.15319691       0.49034381      -1.05279143
H       -1.66852678       1.16855983      -0.19848800
H       -0.32151247       0.81061033       1.74357889
H        0.56746123      -1.18894020       2.06550961
H        2.45161047       0.89779124       1.27656072
H        1.26664550       2.04762625       0.44616662
H        2.52613226      -0.50988630      -0.72154360
17
Frame=2 idx=007843 GeodesicLength=0.2173832547145633 rxn_smarts="[C:1]([C:2]([C@@:3]([O:4][H:14])([C:5]([C:6](=[O:7])[H:17])([H:15])[H:16])[H:13])([H:11])[H:12])([H:8])([H:9])[H:10]>>[C:1](/[C:2](=[C:3](\[O:4][H:14])[H:13])[H:12])([H:8])([H:9])[H:10].[C:5](=[C:6]([O:7][H:11])[H:17])([H:15])[H:16]"
C       -1.85481292      -0.94299546      -0.80619920
C       -1.10608432       0.23751560      -0.21520902
C       -0.34920662       0.04870600       0.95617084
O       -0.03701685      -1.21387196       1.29277914
C        1.73523510       1.09269629       0.47655051
C        1.87740653       0.33934740      -0.66156446
O        1.08597397       0.42079037      -1.66042048
H       -2.30932592      -0.65791581      -1.75476376
H       -1.17730065      -1.77429598      -0.99979451
H       -2.64388424      -1.30197328      -0.14120280
H       -0.13989398       0.46191834      -1.06683203
H       -1.65815833       1.17631939      -0.20048167
H       -0.33764228       0.77855025       1.75459212
H        0.61760117      -1.21950222       1.99435194
H        2.43080758       0.96390170       1.29818355
H        1.23768987       2.05315442       0.41246896
H        2.62861190      -0.46234505      -0.67862912
17
Frame=3 idx=007843 GeodesicLength=0.3231976261538331 rxn_smarts="[C:1]([C:2]([C@@:3]([O:4][H:14])([C:5]([C:6](=[O:7])[H:17])([H:15])[H:16])[H:13])([H:11])[H:12])([H:8])([H:9])[H:10]>>[C:1](/[C:2](=[C:3](\[O:4][H:14])[H:13])[H:12])([H:8])([H:9])[H:10].[C:5](=[C:6]([O:7][H:11])[H:17])([H:15])[H:16]"
C       -1.89417853      -0.92961458      -0.79502133
C       -1.11143190       0.23585453      -0.22020976
C       -0.34442068       0.04003038       0.94528030
O       -0.02550739      -1.23053849       1.25596917
C        1.71657091       1.10123759       0.48551820
C        1.91760136       0.33475622      -0.63770948
O        1.13487850       0.34459262      -1.64600061
H       -2.35524240      -0.63977425      -1.73911431
H       -1.23819466      -1.77722725      -0.99184170
H       -2.68237128      -1.26746396      -0.11797073
H       -0.12705488       0.43346448      -1.08080435
H       -1.64903969       1.18318264      -0.20258733
H       -0.35308266       0.74707730       1.76429012
H        0.66311619      -1.24732238       1.92382501
H        2.40822700       1.02412211       1.31705054
H        1.21235202       2.05488861       0.37961676
H        2.72777811      -0.40726559      -0.64029048
17
Frame=4 idx=007843 GeodesicLength=0.4276643396237792 rxn_smarts="[C:1]([C:2]([C@@:3]([O:4][H:14])([C:5]([C:6](=[O:7])[H:17])([H:15])[H:16])[H:13])([H:11])[H:12])([H:8])([H:9])[H:10]>>[C:1](/[C:2](=[C:3](\[O:4][H:14])[H:13])[H:12])([H:8])([H:9])[H:10].[C:5](=[C:6]([O:7][H:11])[H:17])([H:15])[H:16]"
C       -1.93159819      -0.91644022      -0.78346493
C       -1.11682127       0.23420598      -0.22532030
C       -0.34006843       0.03207538       0.93455546
O       -0.01629526      -1.24595941       1.22126521
C        1.69892821       1.10672799       0.49364481
C        1.95729345       0.33115530      -0.61450930
O        1.18367951       0.26900657      -1.62740840
H       -2.39848661      -0.62269415      -1.72362402
H       -1.29665699      -1.77954671      -0.98180741
H       -2.71870978      -1.23317257      -0.09497976
H       -0.11441699       0.40461851      -1.09479380
H       -1.64084692       1.18928303      -0.20501188
H       -0.36798074       0.71623204       1.77268772
H        0.70415287      -1.27279318       1.85413873
H        2.38441098       1.07881004       1.33355489
H        1.19040248       2.05325586       0.34786308
H        2.82301368      -0.34476445      -0.60679010
17
Frame=5 idx=007843 GeodesicLength=0.5307393466490907 rxn_smarts="[C:1]([C:2]([C@@:3]([O:4][H:14])([C:5]([C:6](=[O:7])[H:17])([H:15])[H:16])[H:13])([H:11])[H:12])([H:8])([H:9])[H:10]>>[C:1](/[C:2](=[C:3](\[O:4][H:14])[H:13])[H:12])([H:8])([H:9])[H:10].[C:5](=[C:6]([O:7][H:11])[H:17])([H:15])[H:16]"
C       -1.96708817      -0.90350542      -0.77163972
C       -1.12205549       0.23253326      -0.23060989
C       -0.33590570       0.02476301       0.92387446
O       -0.00886192      -1.26030021       1.18838393
C        1.68237245       1.10984081       0.50102066
C        1.99650035       0.32904433      -0.59206834
O        1.23254374       0.19467185      -1.60481857
H       -2.43920724      -0.60665904      -1.70832671
H       -1.35275343      -1.78134381      -0.96993883
H       -2.75289976      -1.19910738      -0.07230902
H       -0.10179364       0.37528981      -1.10885088
H       -1.63329443       1.19466047      -0.20777471
H       -0.38228696       0.68595562       1.77977201
H        0.74140965      -1.29625179       1.78494820
H        2.35981110       1.12870555       1.34788557
H        1.17145813       2.04896290       0.31744563
H        2.91205134      -0.27725996      -0.57699380
17
Frame=6 idx=007843 GeodesicLength=0.6328673021439007 rxn_smarts="[C:1]([C:2]([C@@:3]([O:4][H:14])([C:5]([C:6](=[O:7])[H:17])([H:15])[H:16])[H:13])([H:11])[H:12])([H:8])([H:9])[H:10]>>[C:1](/[C:2](=[C:3](\[O:4][H:14])[H:13])[H:12])([H:8])([H:9])[H:10].[C:5](=[C:6]([O:7][H:11])[H:17])([H:15])[H:16]"
C       -2.00084165      -0.89080234      -0.75963551
C       -1.12713528       0.23082039      -0.23615568
C       -0.33202082       0.01807570       0.91329349
O       -0.00308556      -1.27366358       1.15738482
C        1.66700016       1.11057856       0.50792459
C        2.03516511       0.32798863      -0.57020456
O        1.28167597       0.12159944      -1.57833398
H       -2.47761449      -0.59166812      -1.69336610
H       -1.40670682      -1.78274274      -0.95632854
H       -2.78520557      -1.16510341      -0.05001845
H       -0.08904194       0.34517228      -1.12298239
H       -1.62626523       1.19945224      -0.21109178
H       -0.39622073       0.65641099       1.78562452
H        0.77470493      -1.31786889       1.71686237
H        2.33487600       1.17383357       1.36045791
H        1.15535567       2.04216542       0.28862389
H        2.99536025      -0.20424812      -0.55205462
17
Frame=7 idx=007843 GeodesicLength=0.7341590001576432 rxn_smarts="[C:1]([C:2]([C@@:3]([O:4][H:14])([C:5]([C:6](=[O:7])[H:17])([H:15])[H:16])[H:13])([H:11])[H:12])([H:8])([H:9])[H:10]>>[C:1](/[C:2](=[C:3](\[O:4][H:14])[H:13])[H:12])([H:8])([H:9])[H:10].[C:5](=[C:6]([O:7][H:11])[H:17])([H:15])[H:16]"
C       -2.03292779      -0.87832668      -0.74753647
C       -1.13199089       0.22905025      -0.24199683
C       -0.32836068       0.01196927       0.90279210
O        0.00133039      -1.28614998       1.12811291
C        1.65284829       1.10921470       0.51450295
C        2.07318820       0.32784876      -0.54880500
O        1.33123817       0.05020183      -1.54813827
H       -2.51383679      -0.57768687      -1.67880057
H       -1.45861355      -1.78378108      -0.94113638
H       -2.81570360      -1.13112050      -0.02818378
H       -0.07604814       0.31413746      -1.13715441
H       -1.61960355       1.20371859      -0.21502756
H       -0.40983989       0.62762631       1.79028138
H        0.80427762      -1.33784097       1.65003991
H        2.30993831       1.21457182       1.37152059
H        1.14184996       2.03320974       0.26151948
H        3.07225394      -0.12664266      -0.53199006
17
Frame=8 idx=007843 GeodesicLength=0.834790720737757 rxn_smarts="[C:1]([C:2]([C@@:3]([O:4][H:14])([C:5]([C:6](=[O:7])[H:17])([H:15])[H:16])[H:13])([H:11])[H:12])([H:8])([H:9])[H:10]>>[C:1](/[C:2](=[C:3](\[O:4][H:14])[H:13])[H:12])([H:8])([H:9])[H:10].[C:5](=[C:6]([O:7][H:11])[H:17])([H:15])[H:16]"
C       -2.06343957      -0.86605002      -0.73543717
C       -1.13658656       0.22720828      -0.24816704
C       -0.32493481       0.00639041       0.89238016
O        0.00461751      -1.29784322       1.10042463
C        1.63996755       1.10586576       0.52094351
C        2.11052069       0.32812669      -0.52753843
O        1.38143288      -0.01923010      -1.51438411
H       -2.54799827      -0.56465577      -1.66471072
H       -1.50858936      -1.78446362      -0.92450896
H       -2.84451833      -1.09709326      -0.00690948
H       -0.06269303       0.28207022      -1.15128736
H       -1.61318921       1.20751135      -0.21965991
H       -0.42326414       0.59961171       1.79380220
H        0.83018051      -1.35628836       1.58494080
H        2.28528442       1.25118455       1.38135362
H        1.13079531       2.02225849       0.23616528
H        3.14241440      -0.04460312      -0.51740703
17
Frame=9 idx=007843 GeodesicLength=0.9345595072796035 rxn_smarts="[C:1]([C:2]([C@@:3]([O:4][H:14])([C:5]([C:6](=[O:7])[H:17])([H:15])[H:16])[H:13])([H:11])[H:12])([H:8])([H:9])[H:10]>>[C:1](/[C:2](=[C:3](\[O:4][H:14])[H:13])[H:12])([H:8])([H:9])[H:10].[C:5](=[C:6]([O:7][H:11])[H:17])([H:15])[H:16]"
C       -2.09225756      -0.85402890      -0.72335640
C       -1.14089281       0.22534879      -0.25459865
C       -0.32142236       0.00130561       0.88187352
O        0.00769553      -1.30876885       1.07358923
C        1.62816011       1.10144694       0.52705727
C        2.14694188       0.32955828      -0.50672740
O        1.43218746      -0.08531656      -1.47784662
H       -2.58029128      -0.55251312      -1.65090227
H       -1.55635409      -1.78469597      -0.90684941
H       -2.87130923      -1.06341332       0.01389117
H       -0.04914867       0.24947327      -1.16543969
H       -1.60716250       1.21081584      -0.22458882
H       -0.43622817       0.57211970       1.79621007
H        0.85348804      -1.37319650       1.52095532
H        2.26093676       1.28478691       1.38982747
H        1.12154230       2.01017167       0.21241971
H        3.20411458       0.03690619      -0.50551449
17
Frame=10 idx=007843 GeodesicLength=1.033804028698093 rxn_smarts="[C:1]([C:2]([C@@:3]([O:4][H:14])([C:5]([C:6](=[O:7])[H:17])([H:15])[H:16])[H:13])([H:11])[H:12])([H:8])([H:9])[H:10]>>[C:1](/[C:2](=[C:3](\[O:4][H:14])[H:13])[H:12])([H:8])([H:9])[H:10].[C:5](=[C:6]([O:7][H:11])[H:17])([H:15])[H:16]"
C       -2.11961277      -0.84218014      -0.71141714
C       -1.14498619       0.22347745      -0.26129936
C       -0.31798683      -0.00336433       0.87136431
O        0.01047751      -1.31904599       1.04757151
C        1.61750002       1.09568154       0.53312073
C        2.18254179       0.33094576      -0.48565765
O        1.48366985      -0.14839862      -1.43860339
H       -2.61090285      -0.54110771      -1.63752977
H       -1.60216493      -1.78445212      -0.88832388
H       -2.89639973      -1.02995761       0.03406281
H       -0.03533375       0.21625071      -1.17949305
H       -1.60148165       1.21373024      -0.22989145
H       -0.44892546       0.54514871       1.79763137
H        0.87382860      -1.38867724       1.45915855
H        2.23707646       1.31538687       1.39731281
H        1.11421199       1.99671014       0.19009530
H        3.25848795       0.11985235      -0.49810170
17
Frame=11 idx=007843 GeodesicLength=1.1325412240183326 rxn_smarts="[C:1]([C:2]([C@@:3]([O:4][H:14])([C:5]([C:6](=[O:7])[H:17])([H:15])[H:16])[H:13])([H:11])[H:12])([H:8])([H:9])[H:10]>>[C:1](/[C:2](=[C:3](\[O:4][H:14])[H:13])[H:12])([H:8])([H:9])[H:10].[C:5](=[C:6]([O:7][H:11])[H:17])([H:15])[H:16]"
C       -2.14555856      -0.83045300      -0.69967261
C       -1.14887862       0.22163407      -0.26822057
C       -0.31455668      -0.00770429       0.86079984
O        0.01324406      -1.32877640       1.02199875
C        1.60788919       1.08878441       0.53916775
C        2.21738502       0.33191725      -0.46397167
O        1.53589638      -0.20827658      -1.39697372
H       -2.63997117      -0.53027362      -1.62455321
H       -1.64604355      -1.78365555      -0.86918618
H       -2.91979621      -0.99680456       0.05357393
H       -0.02128534       0.18264375      -1.19340504
H       -1.59615004       1.21631261      -0.23537795
H       -0.46130777       0.51851233       1.79811696
H        0.89151955      -1.40280750       1.39986843
H        2.21364616       1.34352079       1.40388667
H        1.10863533       1.98202593       0.16888066
H        3.30533225       0.20340036      -0.49493205
17
Frame=12 idx=007843 GeodesicLength=1.230834796069881 rxn_smarts="[C:1]([C:2]([C@@:3]([O:4][H:14])([C:5]([C:6](=[O:7])[H:17])([H:15])[H:16])[H:13])([H:11])[H:12])([H:8])([H:9])[H:10]>>[C:1](/[C:2](=[C:3](\[O:4][H:14])[H:13])[H:12])([H:8])([H:9])[H:10].[C:5](=[C:6]([O:7][H:11])[H:17])([H:15])[H:16]"
C       -2.17018358      -0.81882813      -0.68815704
C       -1.15263919       0.21987456      -0.27529282
C       -0.31103128      -0.01178826       0.85010531
O        0.01633605      -1.33803632       0.99641143
C        1.59920648       1.08108528       0.54515256
C        2.25159611       0.33237514      -0.44143721
O        1.58883918      -0.26469538      -1.35337173
H       -2.66773954      -0.51985788      -1.61188533
H       -1.68799032      -1.78223069      -0.84975444
H       -2.94150936      -0.96415301       0.07246518
H       -0.00711737       0.14904061      -1.20721899
H       -1.59128839       1.21860844      -0.24075643
H       -0.47327199       0.49196214       1.79774035
H        0.90704317      -1.41559782       1.34326309
H        2.19052375       1.36986512       1.40953160
H        1.10460637       1.96634166       0.14840757
H        3.34461991       0.28603455      -0.49520311
17
Frame=13 idx=007843 GeodesicLength=1.328665437141942 rxn_smarts="[C:1]([C:2]([C@@:3]([O:4][H:14])([C:5]([C:6](=[O:7])[H:17])([H:15])[H:16])[H:13])([H:11])[H:12])([H:8])([H:9])[H:10]>>[C:1](/[C:2](=[C:3](\[O:4][H:14])[H:13])[H:12])([H:8])([H:9])[H:10].[C:5](=[C:6]([O:7][H:11])[H:17])([H:15])[H:16]"
C       -2.19357355      -0.80735707      -0.67675501
C       -1.15642025       0.21827656      -0.28241922
C       -0.30720622      -0.01566498       0.83907001
O        0.02037099      -1.34682737       0.97007842
C        1.59115671       1.07326164       0.55074558
C        2.28512576       0.33297976      -0.41833275
O        1.64233793      -0.31692131      -1.30858957
H       -2.69459615      -0.50978560      -1.59920065
H       -1.72792844      -1.78013616      -0.83027273
H       -2.96142464      -0.93236229       0.09102326
H        0.00683773       0.11609004      -1.22114696
H       -1.58721342       1.22063045      -0.24557387
H       -0.48453531       0.46513893       1.79647666
H        0.92132597      -1.42691047       1.28883247
H        2.16735182       1.39534130       1.41395226
H        1.10160040       1.95018879       0.12820065
H        3.37679065       0.36405777      -0.49608853
17
Frame=14 idx=007843 GeodesicLength=1.4261765688230963 rxn_smarts="[C:1]([C:2]([C@@:3]([O:4][H:14])([C:5]([C:6](=[O:7])[H:17])([H:15])[H:16])[H:13])([H:11])[H:12])([H:8])([H:9])[H:10]>>[C:1](/[C:2](=[C:3](\[O:4][H:14])[H:13])[H:12])([H:8])([H:9])[H:10].[C:5](=[C:6]([O:7][H:11])[H:17])([H:15])[H:16]"
C       -2.21588672      -0.79596242      -0.66554546
C       -1.16028845       0.21689082      -0.28954387
C       -0.30316632      -0.01940346       0.82773484
O        0.02513625      -1.35525100       0.94292210
C        1.58373912       1.06514271       0.55608462
C        2.31826469       0.33313765      -0.39409077
O        1.69642877      -0.36561364      -1.26247567
H       -2.72065993      -0.49986234      -1.58656064
H       -1.76601259      -1.77733303      -0.81095954
H       -2.97976865      -0.90143547       0.10916403
H        0.02060871       0.08393307      -1.23518017
H       -1.58390160       1.22248257      -0.24972553
H       -0.49515269       0.43793098       1.79440783
H        0.93430305      -1.43689971       1.23716805
H        2.14405301       1.42007875       1.41726142
H        1.09977311       1.93331586       0.10799896
H        3.40253024       0.43884865      -0.49866021
17
Frame=15 idx=007843 GeodesicLength=1.5233914048191306 rxn_smarts="[C:1]([C:2]([C@@:3]([O:4][H:14])([C:5]([C:6](=[O:7])[H:17])([H:15])[H:16])[H:13])([H:11])[H:12])([H:8])([H:9])[H:10]>>[C:1](/[C:2](=[C:3](\[O:4][H:14])[H:13])[H:12])([H:8])([H:9])[H:10].[C:5](=[C:6]([O:7][H:11])[H:17])([H:15])[H:16]"
C       -2.23723511      -0.78464721      -0.65445911
C       -1.16435480       0.21578040      -0.29659708
C       -0.29885912      -0.02304007       0.81599605
O        0.03077545      -1.36331988       0.91458745
C        1.57678498       1.05697451       0.56102320
C        2.35108505       0.33310066      -0.36869636
O        1.75103891      -0.41079795      -1.21523846
H       -2.74615773      -0.48999976      -1.57379277
H       -1.80228653      -1.77382086      -0.79194257
H       -2.99658841      -0.87152736       0.12704802
H        0.03402776       0.05293567      -1.24947345
H       -1.58148803       1.22421974      -0.25297110
H       -0.50499501       0.41013040       1.79150889
H        0.94640295      -1.44558021       1.18808990
H        2.12036053       1.44450194       1.41928831
H        1.09892681       1.91585136       0.08748060
H        3.42256230       0.50923862      -0.50185152
17
Frame=16 idx=007843 GeodesicLength=1.6203587095200476 rxn_smarts="[C:1]([C:2]([C@@:3]([O:4][H:14])([C:5]([C:6](=[O:7])[H:17])([H:15])[H:16])[H:13])([H:11])[H:12])([H:8])([H:9])[H:10]>>[C:1](/[C:2](=[C:3](\[O:4][H:14])[H:13])[H:12])([H:8])([H:9])[H:10].[C:5](=[C:6]([O:7][H:11])[H:17])([H:15])[H:16]"
C       -2.25775742      -0.77343869      -0.64341462
C       -1.16876817       0.21501240      -0.30350748
C       -0.29426217      -0.02658133       0.80375591
O        0.03738968      -1.37100675       0.88474623
C        1.57014739       1.04897793       0.56539758
C        2.38361956       0.33314183      -0.34218427
O        1.80609583      -0.45254155      -1.16704529
H       -2.77135880      -0.48014390      -1.56071204
H       -1.83679444      -1.76962230      -0.77334770
H       -3.01195778      -0.84283909       0.14486108
H        0.04690130       0.02345557      -1.26421978
H       -1.58015810       1.22589370      -0.25507510
H       -0.51393821       0.38157028       1.78775436
H        0.95798444      -1.45294907       1.14138355
H        2.09604460       1.46897425       1.41982266
H        1.09889367       1.89790013       0.06634051
H        3.43791862       0.57419658      -0.50455559
