9
Frame=0 idx=000399 GeodesicLength=0.0 rxn_smarts="[O:1]([c:2]1[n:3][n:4]([H:8])[c:5]([H:9])[n:6]1)[H:7]>>[O-:1][c:2]1[n:3][n:4]([H:8])[c:5]([H:9])[n+:6]1[H:7]"
O        2.28978432      -0.00712091      -0.08433233
C        1.05880811       0.26073867       0.11460638
N        0.29908482       1.18177316       0.67592782
N       -0.95626929       0.68223954       0.42996009
C       -0.94081088      -0.46549829      -0.23741879
N        0.32323078      -0.76004176      -0.45251027
H        1.50634759      -1.06214587      -0.66922877
H       -1.76135537       1.18889955       0.75203456
H       -1.81882005      -1.01884412      -0.52903873
9
Frame=1 idx=000399 GeodesicLength=0.05250327846103072 rxn_smarts="[O:1]([c:2]1[n:3][n:4]([H:8])[c:5]([H:9])[n:6]1)[H:7]>>[O-:1][c:2]1[n:3][n:4]([H:8])[c:5]([H:9])[n+:6]1[H:7]"
O        2.28857176      -0.01004192      -0.07422453
C        1.05910398       0.23025754       0.16642785
N        0.29720799       1.19425878       0.64904125
N       -0.95756920       0.68493669       0.42748294
C       -0.94315307      -0.46102242      -0.24234316
N        0.32106508      -0.76814809      -0.43990430
H        1.51746178      -1.04018147      -0.71765035
H       -1.76202066       1.19494959       0.74582006
H       -1.82066766      -1.02500872      -0.51464976
9
Frame=2 idx=000399 GeodesicLength=0.10558305269596366 rxn_smarts="[O:1]([c:2]1[n:3][n:4]([H:8])[c:5]([H:9])[n:6]1)[H:7]>>[O-:1][c:2]1[n:3][n:4]([H:8])[c:5]([H:9])[n+:6]1[H:7]"
O        2.28662639      -0.01873033      -0.05479520
C        1.05793076       0.20585985       0.20569640
N        0.29721314       1.19854953       0.63169097
N       -0.95829912       0.68974160       0.42012856
C       -0.94524981      -0.46228727      -0.23860590
N        0.31867063      -0.77352475      -0.43342314
H        1.52724411      -1.01046206      -0.76879530
H       -1.76154461       1.20472297       0.73326834
H       -1.82259148      -1.03386954      -0.49516473
9
Frame=3 idx=000399 GeodesicLength=0.15872262936499015 rxn_smarts="[O:1]([c:2]1[n:3][n:4]([H:8])[c:5]([H:9])[n:6]1)[H:7]>>[O-:1][c:2]1[n:3][n:4]([H:8])[c:5]([H:9])[n+:6]1[H:7]"
O        2.28454435      -0.02957119      -0.03455343
C        1.05606429       0.18462887       0.23778680
N        0.29811620       1.19823202       0.62111433
N       -0.95869621       0.69404199       0.41289689
C       -0.94741514      -0.46425402      -0.23430432
N        0.31621534      -0.77791647      -0.42976766
H        1.53629058      -0.97755828      -0.81692153
H       -1.76068735       1.21660142       0.71638167
H       -1.82443205      -1.04420435      -0.47263275
9
Frame=4 idx=000399 GeodesicLength=0.212037416489874 rxn_smarts="[O:1]([c:2]1[n:3][n:4]([H:8])[c:5]([H:9])[n:6]1)[H:7]>>[O-:1][c:2]1[n:3][n:4]([H:8])[c:5]([H:9])[n+:6]1[H:7]"
O        2.28198182      -0.04096158      -0.01575592
C        1.05374024       0.16448420       0.26599112
N        0.29952554       1.19411755       0.61689296
N       -0.95878669       0.69810512       0.40524845
C       -0.94971570      -0.46609265      -0.23056016
N        0.31358619      -0.78115816      -0.42894518
H        1.54508395      -0.94282414      -0.86158272
H       -1.75940638       1.23009258       0.69555649
H       -1.82600896      -1.05576293      -0.44684504
9
Frame=5 idx=000399 GeodesicLength=0.2655599579404835 rxn_smarts="[O:1]([c:2]1[n:3][n:4]([H:8])[c:5]([H:9])[n:6]1)[H:7]>>[O-:1][c:2]1[n:3][n:4]([H:8])[c:5]([H:9])[n+:6]1[H:7]"
O        2.27909947      -0.05227122       0.00104150
C        1.05100553       0.14531731       0.29107424
N        0.30109699       1.18843816       0.61509880
N       -0.95875202       0.70107838       0.39929136
C       -0.95220362      -0.46757347      -0.22781320
N        0.31075209      -0.78369855      -0.42979071
H        1.55408514      -0.90815037      -0.90170955
H       -1.75773224       1.24399656       0.67327454
H       -1.82735134      -1.06713679      -0.42046697
9
Frame=6 idx=000399 GeodesicLength=0.31923325656831225 rxn_smarts="[O:1]([c:2]1[n:3][n:4]([H:8])[c:5]([H:9])[n:6]1)[H:7]>>[O-:1][c:2]1[n:3][n:4]([H:8])[c:5]([H:9])[n+:6]1[H:7]"
O        2.27589688      -0.06346400       0.01598843
C        1.04798922       0.12661065       0.31389111
N        0.30274076       1.18128192       0.61567558
N       -0.95861947       0.70296305       0.39507900
C       -0.95485863      -0.46932859      -0.22476355
N        0.30769121      -0.78582626      -0.43172689
H        1.56318823      -0.87276870      -0.93883508
H       -1.75550070       1.25873380       0.64853156
H       -1.82852750      -1.07820187      -0.39384018
9
Frame=7 idx=000399 GeodesicLength=0.3729211086105845 rxn_smarts="[O:1]([c:2]1[n:3][n:4]([H:8])[c:5]([H:9])[n:6]1)[H:7]>>[O-:1][c:2]1[n:3][n:4]([H:8])[c:5]([H:9])[n+:6]1[H:7]"
O        2.27241064      -0.07436898       0.02937982
C        1.04472275       0.10872139       0.33458572
N        0.30435975       1.17396457       0.61619099
N       -0.95844713       0.70468925       0.39089594
C       -0.95767747      -0.47080107      -0.22242389
N        0.30447809      -0.78833824      -0.43335944
H        1.57249681      -0.83794180      -0.97225455
H       -1.75276039       1.27233238       0.62523948
H       -1.82958305      -1.08825750      -0.36825408
9
Frame=8 idx=000399 GeodesicLength=0.42669557284465276 rxn_smarts="[O:1]([c:2]1[n:3][n:4]([H:8])[c:5]([H:9])[n:6]1)[H:7]>>[O-:1][c:2]1[n:3][n:4]([H:8])[c:5]([H:9])[n+:6]1[H:7]"
O        2.26870398      -0.08508683       0.04148048
C        1.04126233       0.09149598       0.35356511
N        0.30595271       1.16655854       0.61654108
N       -0.95824108       0.70624094       0.38681661
C       -0.96062675      -0.47229410      -0.22020595
N        0.30111812      -0.79118096      -0.43474589
H        1.58207173      -0.80342690      -1.00273126
H       -1.74959888       1.28505994       0.60299686
H       -1.83064215      -1.09736660      -0.34371704
9
Frame=9 idx=000399 GeodesicLength=0.4805432066774897 rxn_smarts="[O:1]([c:2]1[n:3][n:4]([H:8])[c:5]([H:9])[n:6]1)[H:7]>>[O-:1][c:2]1[n:3][n:4]([H:8])[c:5]([H:9])[n+:6]1[H:7]"
O        2.26477555      -0.09572672       0.05244475
C        1.03763504       0.07461354       0.37123586
N        0.30752266       1.15878885       0.61724635
N       -0.95800578       0.70749836       0.38309076
C       -0.96372306      -0.47390185      -0.21792226
N        0.29757556      -0.79423423      -0.43610215
H        1.59185184      -0.76863518      -1.03105351
H       -1.74595432       1.29746863       0.58067303
H       -1.83167749      -1.10587140      -0.31961282
9
Frame=10 idx=000399 GeodesicLength=0.5344724221594935 rxn_smarts="[O:1]([c:2]1[n:3][n:4]([H:8])[c:5]([H:9])[n:6]1)[H:7]>>[O-:1][c:2]1[n:3][n:4]([H:8])[c:5]([H:9])[n+:6]1[H:7]"
O        2.26061672      -0.10642313       0.06240303
C        1.03384705       0.05780851       0.38788154
N        0.30906228       1.15045674       0.61867051
N       -0.95774905       0.70845281       0.37972994
C       -0.96698993      -0.47568748      -0.21546174
N        0.29381632      -0.79743040      -0.43757384
H        1.60178025      -0.73303207      -1.05774229
H       -1.74171903       1.30988104       0.55752823
H       -1.83266462      -1.11402600      -0.29543539
9
Frame=11 idx=000399 GeodesicLength=0.5884909341481579 rxn_smarts="[O:1]([c:2]1[n:3][n:4]([H:8])[c:5]([H:9])[n:6]1)[H:7]>>[O-:1][c:2]1[n:3][n:4]([H:8])[c:5]([H:9])[n+:6]1[H:7]"
O        2.25621185      -0.11726594       0.07145355
C        1.02989032       0.04093138       0.40366427
N        0.31055406       1.14150543       0.62089522
N       -0.95747429       0.70917439       0.37658291
C       -0.97044964      -0.47765450      -0.21283885
N        0.28981420      -0.80075959      -0.43921140
H        1.61184039      -0.69633918      -1.08301757
H       -1.73680571       1.32235252       0.53336563
H       -1.83358118      -1.12194450      -0.27089377
9
Frame=12 idx=000399 GeodesicLength=0.6426241160644136 rxn_smarts="[O:1]([c:2]1[n:3][n:4]([H:8])[c:5]([H:9])[n:6]1)[H:7]>>[O-:1][c:2]1[n:3][n:4]([H:8])[c:5]([H:9])[n+:6]1[H:7]"
O        2.25153954      -0.12835417       0.07962891
C        1.02575968       0.02380508       0.41872031
N        0.31197951       1.13180682       0.62412628
N       -0.95719021       0.70964417       0.37367713
C       -0.97412755      -0.47987233      -0.20992085
N        0.28552932      -0.80418706      -0.44110109
H        1.62197428      -0.65813835      -1.10710023
H       -1.73105155       1.33504213       0.50767260
H       -1.83441303      -1.12974628      -0.24570306
9
Frame=13 idx=000399 GeodesicLength=0.6968523340968209 rxn_smarts="[O:1]([c:2]1[n:3][n:4]([H:8])[c:5]([H:9])[n:6]1)[H:7]>>[O-:1][c:2]1[n:3][n:4]([H:8])[c:5]([H:9])[n+:6]1[H:7]"
O        2.24661182      -0.13962324       0.08698161
C        1.02145598       0.00657670       0.43301022
N        0.31331899       1.12164952       0.62780157
N       -0.95688927       0.71003632       0.37064450
C       -0.97802038      -0.48224294      -0.20690934
N        0.28097299      -0.80783954      -0.44304992
H        1.63229622      -0.61883917      -1.12973664
H       -1.72455015       1.34753040       0.48140332
H       -1.83519620      -1.13724805      -0.22014532
9
Frame=14 idx=000399 GeodesicLength=0.7511610568375124 rxn_smarts="[O:1]([c:2]1[n:3][n:4]([H:8])[c:5]([H:9])[n:6]1)[H:7]>>[O-:1][c:2]1[n:3][n:4]([H:8])[c:5]([H:9])[n+:6]1[H:7]"
O        2.24145085      -0.15092340       0.09336133
C        1.01704397      -0.01069585       0.44655053
N        0.31457024       1.11110025       0.63183627
N       -0.95659275       0.71019538       0.36789916
C       -0.98211936      -0.48483721      -0.20354846
N        0.27612562      -0.81177619      -0.44489664
H        1.64276561      -0.57853430      -1.15094228
H       -1.71720724       1.35982268       0.45432146
H       -1.83603693      -1.14435137      -0.19458138
9
Frame=15 idx=000399 GeodesicLength=0.8055236502793025 rxn_smarts="[O:1]([c:2]1[n:3][n:4]([H:8])[c:5]([H:9])[n:6]1)[H:7]>>[O-:1][c:2]1[n:3][n:4]([H:8])[c:5]([H:9])[n+:6]1[H:7]"
O        2.23609969      -0.16223762       0.09891728
C        1.01253178      -0.02778516       0.45928978
N        0.31575059       1.10053719       0.63550973
N       -0.95627893       0.71034108       0.36496083
C       -0.98640231      -0.48752722      -0.20010134
N        0.27102658      -0.81613007      -0.44645758
H        1.65359427      -0.53778578      -1.17049101
H       -1.70932202       1.37145474       0.42770159
H       -1.83699965      -1.15086716      -0.16932927
9
Frame=16 idx=000399 GeodesicLength=0.8599167597884608 rxn_smarts="[O:1]([c:2]1[n:3][n:4]([H:8])[c:5]([H:9])[n:6]1)[H:7]>>[O-:1][c:2]1[n:3][n:4]([H:8])[c:5]([H:9])[n+:6]1[H:7]"
O        2.23058173      -0.17352277       0.10364154
C        1.00795497      -0.04463088       0.47125360
N        0.31687845       1.09004536       0.63868890
N       -0.95594462       0.71045720       0.36189808
C       -0.99085932      -0.49030998      -0.19651592
N        0.26567371      -0.82094067      -0.44765978
H        1.66484762      -0.49672822      -1.18842717
H       -1.70098271       1.38238833       0.40165360
H       -1.83814982      -1.15675838      -0.14453285
