14
Frame=0 idx=007119 GeodesicLength=0.0 rxn_smarts="[N:1](=[C:2]1\[O:3][C:4]([H:9])([H:10])[C@@:5]2([H:11])[C:6]([H:12])([H:13])[C@@:7]12[H:14])\[H:8]>>[N:1](=[C:2]1\[O:3][C:4]([H:9])([H:10])[C:5]([H:11])=[C:7]([H:14])[C:6]1([H:12])[H:13])\[H:8]"
N        1.30465380      -1.96266555      -0.06573519
C        0.73352067      -0.83315555      -0.05989979
O        1.33804742       0.37882983      -0.38243944
C        0.39032689       1.44217698      -0.22883624
C       -0.85765303       0.74698663       0.32508003
C       -0.78313434      -0.58134710      -0.46013164
C       -0.34597320      -0.17593631       1.32507750
H        2.31308510      -1.85652556      -0.11629547
H        0.21592437       1.91033821      -1.20194985
H        0.79274079       2.17914832       0.46776373
H       -1.80319831       1.27256764       0.37847793
H       -0.67184094      -0.37981927      -1.52372157
H       -1.51804136      -1.35307714      -0.27567521
H       -1.10845788      -0.78752107       1.81828526
14
Frame=1 idx=007119 GeodesicLength=0.09930696209949949 rxn_smarts="[N:1](=[C:2]1\[O:3][C:4]([H:9])([H:10])[C@@:5]2([H:11])[C:6]([H:12])([H:13])[C@@:7]12[H:14])\[H:8]>>[N:1](=[C:2]1\[O:3][C:4]([H:9])([H:10])[C:5]([H:11])=[C:7]([H:14])[C:6]1([H:12])[H:13])\[H:8]"
N        1.32406777      -1.95956327      -0.06755047
C        0.74279421      -0.83565298      -0.05925245
O        1.34102048       0.37812374      -0.37859127
C        0.39492393       1.44285290      -0.22686322
C       -0.85813824       0.75993567       0.32534211
C       -0.79369258      -0.59277148      -0.45325803
C       -0.36680324      -0.18952514       1.30438334
H        2.33127771      -1.84451330      -0.12517593
H        0.22423058       1.90926984      -1.20150080
H        0.79994647       2.18003233       0.46800517
H       -1.79471161       1.29939558       0.39246561
H       -0.69005939      -0.39665381      -1.51864012
H       -1.52571696      -1.36976499      -0.27801109
H       -1.12913913      -0.78116509       1.81864715
14
Frame=2 idx=007119 GeodesicLength=0.19853409524487692 rxn_smarts="[N:1](=[C:2]1\[O:3][C:4]([H:9])([H:10])[C@@:5]2([H:11])[C:6]([H:12])([H:13])[C@@:7]12[H:14])\[H:8]>>[N:1](=[C:2]1\[O:3][C:4]([H:9])([H:10])[C:5]([H:11])=[C:7]([H:14])[C:6]1([H:12])[H:13])\[H:8]"
N        1.34302303      -1.95637152      -0.06869779
C        0.75178516      -0.83809519      -0.05842204
O        1.34389405       0.37740030      -0.37449324
C        0.39935538       1.44351812      -0.22485891
C       -0.85860664       0.77260460       0.32558609
C       -0.80459507      -0.60435554      -0.44710839
C       -0.38769566      -0.20255427       1.28322016
H        2.34888709      -1.83256049      -0.13360590
H        0.23239709       1.90819004      -1.20100378
H        0.80691607       2.18103270       0.46817086
H       -1.78562314       1.32596786       0.40742304
H       -0.70799714      -0.41332853      -1.51405350
H       -1.53343727      -1.38676465      -0.28100165
H       -1.14830295      -0.77468343       1.81884504
14
Frame=3 idx=007119 GeodesicLength=0.29769956155576227 rxn_smarts="[N:1](=[C:2]1\[O:3][C:4]([H:9])([H:10])[C@@:5]2([H:11])[C:6]([H:12])([H:13])[C@@:7]12[H:14])\[H:8]>>[N:1](=[C:2]1\[O:3][C:4]([H:9])([H:10])[C:5]([H:11])=[C:7]([H:14])[C:6]1([H:12])[H:13])\[H:8]"
N        1.36154134      -1.95307566      -0.06901541
C        0.76049996      -0.84046818      -0.05730365
O        1.34667226       0.37665971      -0.37007932
C        0.40361965       1.44417474      -0.22282016
C       -0.85909097       0.78502442       0.32579036
C       -0.81583609      -0.61611107      -0.44168831
C       -0.40870636      -0.21497372       1.26160302
H        2.36590673      -1.82068302      -0.14188096
H        0.24046118       1.90705939      -1.20047774
H        0.81362546       2.18216736       0.46825735
H       -1.77591282       1.35228624       0.42335645
H       -0.72560844      -0.42989116      -1.50998636
H       -1.54118835      -1.40407222      -0.28460451
H       -1.16598355      -0.76809684       1.81884923
14
Frame=4 idx=007119 GeodesicLength=0.3967729769340713 rxn_smarts="[N:1](=[C:2]1\[O:3][C:4]([H:9])([H:10])[C@@:5]2([H:11])[C:6]([H:12])([H:13])[C@@:7]12[H:14])\[H:8]>>[N:1](=[C:2]1\[O:3][C:4]([H:9])([H:10])[C:5]([H:11])=[C:7]([H:14])[C:6]1([H:12])[H:13])\[H:8]"
N        1.37960696      -1.94966455      -0.06843409
C        0.76893595      -0.84275427      -0.05584009
O        1.34934219       0.37591764      -0.36533642
C        0.40771488       1.44483690      -0.22075758
C       -0.85960309       0.79722040       0.32594327
C       -0.82741021      -0.62804235      -0.43701205
C       -0.42984082      -0.22677139       1.23952846
H        2.38228793      -1.80889774      -0.15005727
H        0.24842452       1.90588226      -1.19994051
H        0.82007104       2.18344978       0.46824927
H       -1.76554726       1.37831913       0.44027262
H       -0.74287926      -0.44635065      -1.50646961
H       -1.54895840      -1.42167805      -0.28877726
H       -1.18214441      -0.76146710       1.81863126
14
Frame=5 idx=007119 GeodesicLength=0.49584074528315814 rxn_smarts="[N:1](=[C:2]1\[O:3][C:4]([H:9])([H:10])[C@@:5]2([H:11])[C:6]([H:12])([H:13])[C@@:7]12[H:14])\[H:8]>>[N:1](=[C:2]1\[O:3][C:4]([H:9])([H:10])[C:5]([H:11])=[C:7]([H:14])[C:6]1([H:12])[H:13])\[H:8]"
N        1.39725382      -1.94616988      -0.06697319
C        0.77710493      -0.84496192      -0.05403083
O        1.35190683       0.37517047      -0.36029251
C        0.41163409       1.44552986      -0.21868032
C       -0.86016982       0.80924399       0.32605143
C       -0.83935195      -0.64015025      -0.43311587
C       -0.45108811      -0.23792903       1.21698746
H        2.39808596      -1.79725104      -0.15800628
H        0.25625494       1.90467496      -1.19941174
H        0.82627255       2.18491173       0.46814959
H       -1.75452050       1.40407683       0.45823433
H       -0.75987063      -0.46272522      -1.50357032
H       -1.55678349      -1.43957491      -0.29350999
H       -1.19672860      -0.75484560       1.81816823
14
Frame=6 idx=007119 GeodesicLength=0.5947613670499959 rxn_smarts="[N:1](=[C:2]1\[O:3][C:4]([H:9])([H:10])[C@@:5]2([H:11])[C:6]([H:12])([H:13])[C@@:7]12[H:14])\[H:8]>>[N:1](=[C:2]1\[O:3][C:4]([H:9])([H:10])[C:5]([H:11])=[C:7]([H:14])[C:6]1([H:12])[H:13])\[H:8]"
N        1.41441114      -1.94250467      -0.06465619
C        0.78496557      -0.84704356      -0.05188028
O        1.35432489       0.37444082      -0.35499451
C        0.41539248       1.44623052      -0.21661403
C       -0.86076176       0.82107621       0.32611541
C       -0.85166169      -0.65241094      -0.42998689
C       -0.47244949      -0.24846924       1.19392542
H        2.41321142      -1.78564073      -0.16558454
H        0.26397850       1.90341644      -1.19888321
H        0.83225695       2.18648907       0.46789511
H       -1.74273315       1.42943108       0.47725689
H       -0.77659103      -0.47898152      -1.50125960
H       -1.56465649      -1.45771946      -0.29873146
H       -1.20968733      -0.74831402       1.81739789
14
Frame=7 idx=007119 GeodesicLength=0.6936809930998284 rxn_smarts="[N:1](=[C:2]1\[O:3][C:4]([H:9])([H:10])[C@@:5]2([H:11])[C:6]([H:12])([H:13])[C@@:7]12[H:14])\[H:8]>>[N:1](=[C:2]1\[O:3][C:4]([H:9])([H:10])[C:5]([H:11])=[C:7]([H:14])[C:6]1([H:12])[H:13])\[H:8]"
N        1.43115912      -1.93872364      -0.06131522
C        0.79255564      -0.84901795      -0.04928047
O        1.35662094       0.37372460      -0.34936463
C        0.41896987       1.44698258      -0.21454815
C       -0.86144228       0.83279744       0.32611597
C       -0.86434184      -0.66485327      -0.42766003
C       -0.49397000      -0.25834440       1.17036275
H        2.42770816      -1.77419074      -0.17306839
H        0.27158363       1.90211080      -1.19839619
H        0.83799354       2.18826966       0.46752170
H       -1.73019896       1.45445276       0.49739155
H       -0.79303062      -0.49520554      -1.49961892
H       -1.57258149      -1.47614203      -0.30445657
H       -1.22102570      -0.74186026       1.81631662
14
Frame=8 idx=007119 GeodesicLength=0.7925844400699937 rxn_smarts="[N:1](=[C:2]1\[O:3][C:4]([H:9])([H:10])[C@@:5]2([H:11])[C:6]([H:12])([H:13])[C@@:7]12[H:14])\[H:8]>>[N:1](=[C:2]1\[O:3][C:4]([H:9])([H:10])[C:5]([H:11])=[C:7]([H:14])[C:6]1([H:12])[H:13])\[H:8]"
N        1.44749418      -1.93481090      -0.05687649
C        0.79987573      -0.85086565      -0.04616968
O        1.35878558       0.37304004      -0.34338019
C        0.42236622       1.44780447      -0.21247708
C       -0.86221759       0.84443882       0.32605656
C       -0.87739038      -0.67747856      -0.42613733
C       -0.51565964      -0.26753881       1.14628408
H        2.44155173      -1.76294694      -0.18056480
H        0.27907085       1.90076089      -1.19794862
H        0.84348427       2.19027541       0.46703186
H       -1.71690030       1.47908217       0.51859349
H       -0.80919225      -0.51142515      -1.49866272
H       -1.58055336      -1.49483949      -0.31065321
H       -1.23071506      -0.73549631       1.81490412
14
Frame=9 idx=007119 GeodesicLength=0.8913921728992723 rxn_smarts="[N:1](=[C:2]1\[O:3][C:4]([H:9])([H:10])[C@@:5]2([H:11])[C:6]([H:12])([H:13])[C@@:7]12[H:14])\[H:8]>>[N:1](=[C:2]1\[O:3][C:4]([H:9])([H:10])[C:5]([H:11])=[C:7]([H:14])[C:6]1([H:12])[H:13])\[H:8]"
N        1.46338533      -1.93066655      -0.05121892
C        0.80690417      -0.85253198      -0.04247152
O        1.36080621       0.37240405      -0.33701038
C        0.42559358       1.44866747      -0.21041916
C       -0.86309383       0.85599708       0.32591306
C       -0.89078230      -0.69027225      -0.42539667
C       -0.53757976      -0.27603646       1.12163983
H        2.45458271      -1.75181206      -0.18822017
H        0.28650466       1.89930094      -1.19755132
H        0.84871780       2.19246238       0.46636558
H       -1.70272509       1.50319460       0.54093009
H       -0.82501296      -0.52766352      -1.49835747
H       -1.58854761      -1.51377352      -0.31725592
H       -1.23875292      -0.72927018       1.81305297
14
Frame=10 idx=007119 GeodesicLength=0.9901965399997851 rxn_smarts="[N:1](=[C:2]1\[O:3][C:4]([H:9])([H:10])[C@@:5]2([H:11])[C:6]([H:12])([H:13])[C@@:7]12[H:14])\[H:8]>>[N:1](=[C:2]1\[O:3][C:4]([H:9])([H:10])[C:5]([H:11])=[C:7]([H:14])[C:6]1([H:12])[H:13])\[H:8]"
N        1.47885524      -1.92635512      -0.04445391
C        0.81364066      -0.85404298      -0.03824463
O        1.36266479       0.37181920      -0.33033231
C        0.42863059       1.44962657      -0.20838507
C       -0.86408233       0.86753977       0.32572117
C       -0.90456906      -0.70323370      -0.42549708
C       -0.55968039      -0.28385412       1.09639849
H        2.46690758      -1.74089753      -0.19566517
H        0.29379181       1.89780836      -1.19722333
H        0.85373085       2.19488747       0.46553970
H       -1.68767187       1.52679231       0.56445688
H       -0.84062584      -0.54392362      -1.49879835
H       -1.59661347      -1.53295427      -0.32429244
H       -1.24497855      -0.72321234       1.81077604
14
Frame=11 idx=007119 GeodesicLength=1.088973359514548 rxn_smarts="[N:1](=[C:2]1\[O:3][C:4]([H:9])([H:10])[C@@:5]2([H:11])[C:6]([H:12])([H:13])[C@@:7]12[H:14])\[H:8]>>[N:1](=[C:2]1\[O:3][C:4]([H:9])([H:10])[C:5]([H:11])=[C:7]([H:14])[C:6]1([H:12])[H:13])\[H:8]"
N        1.49388581      -1.92182725      -0.03649636
C        0.82007139      -0.85536520      -0.03343373
O        1.36434835       0.37130397      -0.32332801
C        0.43147744       1.45068601      -0.20637999
C       -0.86518859       0.87908807       0.32548378
C       -0.91874418      -0.71635513      -0.42643929
C       -0.58199091      -0.29097944       1.07051915
H        2.47844618      -1.73020581      -0.20296408
H        0.30094256       1.89626599      -1.19696905
H        0.85852342       2.19755067       0.46453197
H       -1.67167971       1.54977320       0.58918803
H       -0.85602062      -0.56023077      -1.49998833
H       -1.60474465      -1.55236409      -0.33173170
H       -1.24932649      -0.71734021       1.80800761
14
Frame=12 idx=007119 GeodesicLength=1.1877292956442662 rxn_smarts="[N:1](=[C:2]1\[O:3][C:4]([H:9])([H:10])[C@@:5]2([H:11])[C:6]([H:12])([H:13])[C@@:7]12[H:14])\[H:8]>>[N:1](=[C:2]1\[O:3][C:4]([H:9])([H:10])[C:5]([H:11])=[C:7]([H:14])[C:6]1([H:12])[H:13])\[H:8]"
N        1.50845483      -1.91706819      -0.02737704
C        0.82617662      -0.85648352      -0.02805427
O        1.36583731       0.37086879      -0.31604211
C        0.43412913       1.45186188      -0.20442054
C       -0.86641072       0.89067387       0.32522851
C       -0.93332838      -0.72962088      -0.42824237
C       -0.60450875      -0.29741494       1.04395217
H        2.48918160      -1.71974457      -0.20990435
H        0.30792515       1.89468892      -1.19680017
H        0.86311934       2.20045774       0.46331522
H       -1.65469511       1.57203639       0.61517461
H       -0.87125405      -0.57658536      -1.50195511
H       -1.61296875      -1.57197684      -0.33955597
H       -1.25165821      -0.71169328       1.80468143
14
Frame=13 idx=007119 GeodesicLength=1.2864664863361686 rxn_smarts="[N:1](=[C:2]1\[O:3][C:4]([H:9])([H:10])[C@@:5]2([H:11])[C:6]([H:12])([H:13])[C@@:7]12[H:14])\[H:8]>>[N:1](=[C:2]1\[O:3][C:4]([H:9])([H:10])[C:5]([H:11])=[C:7]([H:14])[C:6]1([H:12])[H:13])\[H:8]"
N        1.52253713      -1.91205590      -0.01708084
C        0.83193553      -0.85737798      -0.02209679
O        1.36711173       0.37052678      -0.30849490
C        0.43658038       1.45317080      -0.20251437
C       -0.86774441       0.90232828       0.32498557
C       -0.94833314      -0.74301798      -0.43091860
C       -0.62723978      -0.30315428       1.01665243
H        2.49908340      -1.70953448      -0.21637370
H        0.31471289       1.89308556      -1.19672180
H        0.86753409       2.20362024       0.46186991
H       -1.63666984       1.59347024       0.64243543
H       -0.88636469      -0.59299992      -1.50471765
H       -1.62130243      -1.59177009      -0.34774477
H       -1.25184084      -0.70629127       1.80072009
14
Frame=14 idx=007119 GeodesicLength=1.3851940587111105 rxn_smarts="[N:1](=[C:2]1\[O:3][C:4]([H:9])([H:10])[C@@:5]2([H:11])[C:6]([H:12])([H:13])[C@@:7]12[H:14])\[H:8]>>[N:1](=[C:2]1\[O:3][C:4]([H:9])([H:10])[C:5]([H:11])=[C:7]([H:14])[C:6]1([H:12])[H:13])\[H:8]"
N        1.53610541      -1.90677128      -0.00560111
C        0.83732603      -0.85802963      -0.01556283
O        1.36815338       0.37029001      -0.30071650
C        0.43882571       1.45463008      -0.20067164
C       -0.86918368       0.91408135       0.32479569
C       -0.96377539      -0.75653006      -0.43448074
C       -0.65018930      -0.30819099       0.98857540
H        2.50813059      -1.69959364      -0.22221814
H        0.32127146       1.89146735      -1.19674274
H        0.87178804       2.20704904       0.46017319
H       -1.61755720       1.61395035       0.67099629
H       -0.90140234      -0.60948248      -1.50829732
H       -1.62977309      -1.61171525      -0.35627624
H       -1.24971962      -0.70115485       1.79602668
14
Frame=15 idx=007119 GeodesicLength=1.4839212364377616 rxn_smarts="[N:1](=[C:2]1\[O:3][C:4]([H:9])([H:10])[C@@:5]2([H:11])[C:6]([H:12])([H:13])[C@@:7]12[H:14])\[H:8]>>[N:1](=[C:2]1\[O:3][C:4]([H:9])([H:10])[C:5]([H:11])=[C:7]([H:14])[C:6]1([H:12])[H:13])\[H:8]"
N        1.54911934      -1.90119902       0.00703987
C        0.84231944      -0.85842139      -0.00847732
O        1.36893847       0.37016836      -0.29275766
C        0.44085988       1.45625639      -0.19890499
C       -0.87071098       0.92595888       0.32471509
C       -0.97967760      -0.77013701      -0.43893809
C       -0.67335240      -0.31252095       0.95967503
H        2.51632241      -1.68992605      -0.22720800
H        0.32755271       1.88985026      -1.19686875
H        0.87591060       2.21075033       0.45819666
H       -1.59730568       1.63333661       0.70088479
H       -0.91643649      -0.62603436      -1.51270970
H       -1.63841638      -1.63177772      -0.36512285
H       -1.24512331      -0.69630433       1.79047592
14
Frame=16 idx=007119 GeodesicLength=1.5826619819227445 rxn_smarts="[N:1](=[C:2]1\[O:3][C:4]([H:9])([H:10])[C@@:5]2([H:11])[C:6]([H:12])([H:13])[C@@:7]12[H:14])\[H:8]>>[N:1](=[C:2]1\[O:3][C:4]([H:9])([H:10])[C:5]([H:11])=[C:7]([H:14])[C:6]1([H:12])[H:13])\[H:8]"
N        1.56153552      -1.89532573       0.02081958
C        0.84688690      -0.85853685      -0.00087603
O        1.36944438       0.37017068      -0.28467849
C        0.44267839       1.45806588      -0.19722825
C       -0.87230211       0.93798220       0.32481319
C       -0.99606451      -0.78381689      -0.44429348
C       -0.69672042      -0.31613765       0.92991116
H        2.52367428      -1.68052723      -0.23109479
H        0.33349951       1.88825103      -1.19710662
H        0.87993593       2.21472909       0.45590838
H       -1.57585938       1.65147619       0.73213271
H       -0.93154690      -0.64265706      -1.51796500
H       -1.64727375      -1.65191904      -0.37424870
H       -1.23788784      -0.69175461       1.78390634
