15
Frame=0 idx=001704 GeodesicLength=0.0 rxn_smarts="[C:1]([C:2]1([H:9])[C:3]([H:10])([H:11])[C:4]([H:12])([H:13])[C:5]1([H:14])[H:15])([H:6])([H:7])[H:8]>>[C:1]([H:6])([H:7])([H:8])[H:9].[C:2]1[C:3]([H:10])([H:11])[C:4]([H:12])([H:13])[C:5]1([H:14])[H:15]"
C        2.07200470       0.10944872       0.33456512
C       -0.10602388       0.29772178       0.72279117
C       -0.74083777      -1.01750160       0.34878647
C       -1.77749946      -0.09405568      -0.35019525
C       -0.63244119       0.94182588      -0.53275480
H        2.38165577       1.04469935      -0.12493512
H        2.79473562      -0.23502662       1.07414240
H        1.87274986      -0.65789501      -0.40324094
H        1.14796045       0.40622989       1.09014614
H       -0.22557462      -1.59752885      -0.42471393
H       -1.05513159      -1.67912311       1.15590817
H       -2.54979540       0.25506066       0.33149637
H       -2.23537769      -0.47905810      -1.25934271
H       -0.85211855       2.00931601      -0.50723878
H       -0.09430621       0.69588664      -1.45541427
15
Frame=1 idx=001704 GeodesicLength=0.06263646801782911 rxn_smarts="[C:1]([C:2]1([H:9])[C:3]([H:10])([H:11])[C:4]([H:12])([H:13])[C:5]1([H:14])[H:15])([H:6])([H:7])[H:8]>>[C:1]([H:6])([H:7])([H:8])[H:9].[C:2]1[C:3]([H:10])([H:11])[C:4]([H:12])([H:13])[C:5]1([H:14])[H:15]"
C        2.07316893       0.11004509       0.34100895
C       -0.10132960       0.29982015       0.70241660
C       -0.73715102      -1.01795022       0.34587739
C       -1.78247392      -0.09542537      -0.34305122
C       -0.64059918       0.94107432      -0.54732492
H        2.41795309       1.04703385      -0.08972271
H        2.77478491      -0.27598929       1.08068625
H        1.88865236      -0.63214380      -0.42669790
H        1.14993428       0.43003260       1.10762166
H       -0.23066234      -1.60036783      -0.43142776
H       -1.04203536      -1.67456179       1.16051857
H       -2.54916883       0.25523064       0.34395155
H       -2.24658098      -0.48571472      -1.24665916
H       -0.86198998       2.00810083      -0.52277298
H       -0.11250235       0.69081554      -1.47442433
15
Frame=2 idx=001704 GeodesicLength=0.12521845030229667 rxn_smarts="[C:1]([C:2]1([H:9])[C:3]([H:10])([H:11])[C:4]([H:12])([H:13])[C:5]1([H:14])[H:15])([H:6])([H:7])[H:8]>>[C:1]([H:6])([H:7])([H:8])[H:9].[C:2]1[C:3]([H:10])([H:11])[C:4]([H:12])([H:13])[C:5]1([H:14])[H:15]"
C        2.07433544       0.11077760       0.34737324
C       -0.09620302       0.30176230       0.68138622
C       -0.73324156      -1.01840070       0.34271728
C       -1.78730201      -0.09664539      -0.33556058
C       -0.64882118       0.94009856      -0.56225718
H        2.45468921       1.04800403      -0.05262194
H        2.75276334      -0.31651149       1.08631279
H        1.90577119      -0.60503100      -0.44948232
H        1.15131445       0.45357732       1.12434987
H       -0.23585221      -1.60328362      -0.43842684
H       -1.02829495      -1.66986338       1.16494385
H       -2.54789847       0.25578880       0.35710090
H       -2.25817006      -0.49221921      -1.23325161
H       -0.87169199       2.00670682      -0.53865413
H       -0.13139818       0.68523936      -1.49392955
15
Frame=3 idx=001704 GeodesicLength=0.1876953688571486 rxn_smarts="[C:1]([C:2]1([H:9])[C:3]([H:10])([H:11])[C:4]([H:12])([H:13])[C:5]1([H:14])[H:15])([H:6])([H:7])[H:8]>>[C:1]([H:6])([H:7])([H:8])[H:9].[C:2]1[C:3]([H:10])([H:11])[C:4]([H:12])([H:13])[C:5]1([H:14])[H:15]"
C        2.07552837       0.11171610       0.35364504
C       -0.09067348       0.30350912       0.65972575
C       -0.72914068      -1.01886366       0.33931033
C       -1.79194643      -0.09768670      -0.32774394
C       -0.65706647       0.93888338      -0.57752463
H        2.49151410       1.04754930      -0.01373348
H        2.72888933      -0.35635813       1.09077089
H        1.92411820      -0.57662587      -0.47136441
H        1.15207808       0.47668724       1.14044332
H       -0.24117630      -1.60630323      -0.44568164
H       -1.01397884      -1.66503088       1.16914677
H       -2.54594981       0.25679035       0.37088269
H       -2.27008006      -0.49852482      -1.21914051
H       -0.88115438       2.00512680      -0.55485894
H       -0.15096163       0.67913099      -1.51387724
15
Frame=4 idx=001704 GeodesicLength=0.25002561208990104 rxn_smarts="[C:1]([C:2]1([H:9])[C:3]([H:10])([H:11])[C:4]([H:12])([H:13])[C:5]1([H:14])[H:15])([H:6])([H:7])[H:8]>>[C:1]([H:6])([H:7])([H:8])[H:9].[C:2]1[C:3]([H:10])([H:11])[C:4]([H:12])([H:13])[C:5]1([H:14])[H:15]"
C        2.07676191       0.11291430       0.35981826
C       -0.08476650       0.30501962       0.63746027
C       -0.72488045      -1.01935245       0.33566793
C       -1.79637213      -0.09852198      -0.31962356
C       -0.66529742       0.93740860      -0.59310227
H        2.52811248       1.04563318       0.02685559
H        2.70338420      -0.39531851       1.09379933
H        1.94368940      -0.54698772      -0.49214040
H        1.15220569       0.49922270       1.15601318
H       -0.24667014      -1.60945958      -0.45315598
H       -0.99916041      -1.66007070       1.17310902
H       -2.54329136       0.25828784       0.38523101
H       -2.28224724      -0.50458458      -1.20435102
H       -0.89031265       2.00334688      -0.57136888
H       -0.17115538       0.67246240      -1.53421248
15
Frame=5 idx=001704 GeodesicLength=0.31223045021224244 rxn_smarts="[C:1]([C:2]1([H:9])[C:3]([H:10])([H:11])[C:4]([H:12])([H:13])[C:5]1([H:14])[H:15])([H:6])([H:7])[H:8]>>[C:1]([H:6])([H:7])([H:8])[H:9].[C:2]1[C:3]([H:10])([H:11])[C:4]([H:12])([H:13])[C:5]1([H:14])[H:15]"
C        2.07802374       0.11435863       0.36586698
C       -0.07852300       0.30624706       0.61459089
C       -0.72052720      -1.01988876       0.33179185
C       -1.80056466      -0.09913089      -0.31122348
C       -0.67349628       0.93565615      -0.60898165
H        2.56432742       1.04223918       0.06918535
H        2.67672938      -0.43306425       1.09525635
H        1.96437714      -0.51618897      -0.51173319
H        1.15168258       0.52105686       1.17115982
H       -0.25243669      -1.61280677      -0.46082471
H       -0.98396208      -1.65500424       1.17681113
H       -2.53989949       0.26032614       0.40007943
H       -2.29464205      -0.51036221      -1.18889706
H       -0.89910797       2.00135871      -0.58819019
H       -0.19198082       0.66520336      -1.55489154
15
Frame=6 idx=001704 GeodesicLength=0.3742563160576099 rxn_smarts="[C:1]([C:2]1([H:9])[C:3]([H:10])([H:11])[C:4]([H:12])([H:13])[C:5]1([H:14])[H:15])([H:6])([H:7])[H:8]>>[C:1]([H:6])([H:7])([H:8])[H:9].[C:2]1[C:3]([H:10])([H:11])[C:4]([H:12])([H:13])[C:5]1([H:14])[H:15]"
C        2.07933790       0.11612738       0.37182269
C       -0.07195215       0.30717926       0.59114276
C       -0.71607917      -1.02046959       0.32770293
C       -1.80447496      -0.09949506      -0.30255961
C       -0.68162216       0.93362102      -0.62514336
H        2.59976069       1.03732351       0.11305995
H        2.64902611      -0.46959632       1.09494116
H        1.98620895      -0.48425563      -0.52997892
H        1.15044468       0.54212445       1.18598733
H       -0.25846257      -1.61635280      -0.46863961
H       -0.96839587      -1.64981940       1.18025138
H       -2.53572907       0.26293687       0.41537925
H       -2.30718385      -0.51583111      -1.17278868
H       -0.90749425       1.99915909      -0.60531348
H       -0.21338427       0.65734832      -1.57586377
15
Frame=7 idx=001704 GeodesicLength=0.4360921201929884 rxn_smarts="[C:1]([C:2]1([H:9])[C:3]([H:10])([H:11])[C:4]([H:12])([H:13])[C:5]1([H:14])[H:15])([H:6])([H:7])[H:8]>>[C:1]([H:6])([H:7])([H:8])[H:9].[C:2]1[C:3]([H:10])([H:11])[C:4]([H:12])([H:13])[C:5]1([H:14])[H:15]"
C        2.08071289       0.11824037       0.37770198
C       -0.06506676       0.30777581       0.56713260
C       -0.71155286      -1.02110794       0.32341191
C       -1.80807223      -0.09959116      -0.29364797
C       -0.68963985       0.93129066      -0.64156876
H        2.63411662       1.03087953       0.15831826
H        2.62052387      -0.50479476       1.09273661
H        2.00915107      -0.45123617      -0.54675480
H        1.14844738       0.56236547       1.20058899
H       -0.26477671      -1.62012537      -0.47657355
H       -0.95251374      -1.64452870       1.18342154
H       -2.53075322       0.26616198       0.43108576
H       -2.31983117      -0.52095042      -1.15604659
H       -0.91541472       1.99673830      -0.62272835
H       -0.23533056       0.64888240      -1.59707762
15
Frame=8 idx=001704 GeodesicLength=0.4977202537138475 rxn_smarts="[C:1]([C:2]1([H:9])[C:3]([H:10])([H:11])[C:4]([H:12])([H:13])[C:5]1([H:14])[H:15])([H:6])([H:7])[H:8]>>[C:1]([H:6])([H:7])([H:8])[H:9].[C:2]1[C:3]([H:10])([H:11])[C:4]([H:12])([H:13])[C:5]1([H:14])[H:15]"
C        2.08213808       0.12070739       0.38352846
C       -0.05788377       0.30800736       0.54257094
C       -0.70697225      -1.02181386       0.31893082
C       -1.81132270      -0.09940005      -0.28450297
C       -0.69752552       0.92865475      -0.65824443
H        2.66712969       1.02288054       0.20483495
H        2.59151463      -0.53856015       1.08853219
H        2.03315169      -0.41716179      -0.56196610
H        1.14563215       0.58173850       1.21504080
H       -0.27141836      -1.62415334      -0.48459157
H       -0.93636194      -1.63913664       1.18631584
H       -2.52493163       0.27003411       0.44714501
H       -2.33252622      -0.52568625      -1.13867373
H       -0.92282818       1.99409287      -0.64043535
H       -0.25779567       0.63979657      -1.61848485
15
Frame=9 idx=001704 GeodesicLength=0.5592078521403249 rxn_smarts="[C:1]([C:2]1([H:9])[C:3]([H:10])([H:11])[C:4]([H:12])([H:13])[C:5]1([H:14])[H:15])([H:6])([H:7])[H:8]>>[C:1]([H:6])([H:7])([H:8])[H:9].[C:2]1[C:3]([H:10])([H:11])[C:4]([H:12])([H:13])[C:5]1([H:14])[H:15]"
C        2.08357578       0.12346815       0.38925791
C       -0.05042975       0.30782703       0.51742798
C       -0.70238349      -1.02260947       0.31425554
C       -1.81423074      -0.09891050      -0.27513520
C       -0.70529425       0.92569379      -0.67517550
H        2.69889792       1.01332398       0.25270645
H        2.56241991      -0.57064723       1.08237915
H        2.05805709      -0.38207513      -0.57565089
H        1.14197096       0.60022869       1.22935461
H       -0.27849370      -1.62847818      -0.49268791
H       -0.92000905      -1.63367241       1.18892292
H       -2.51824902       0.27457539       0.46352739
H       -2.34528445      -0.53000732      -1.12066824
H       -0.92972222       1.99120493      -0.65845320
H       -0.28082500       0.63007827      -1.64006099
15
Frame=10 idx=001704 GeodesicLength=0.6204841155597196 rxn_smarts="[C:1]([C:2]1([H:9])[C:3]([H:10])([H:11])[C:4]([H:12])([H:13])[C:5]1([H:14])[H:15])([H:6])([H:7])[H:8]>>[C:1]([H:6])([H:7])([H:8])[H:9].[C:2]1[C:3]([H:10])([H:11])[C:4]([H:12])([H:13])[C:5]1([H:14])[H:15]"
C        2.08504963       0.12657897       0.39496937
C       -0.04269292       0.30722172       0.49173513
C       -0.69776488      -1.02349261       0.30940937
C       -1.81672849      -0.09810008      -0.26554992
C       -0.71288463       0.92240779      -0.69234011
H        2.72888181       1.00221762       0.30159482
H        2.53330329      -0.60119865       1.07413178
H        2.08390416      -0.34597543      -0.58764528
H        1.13736410       0.61783057       1.24360578
H       -0.28596645      -1.63310387      -0.50081420
H       -0.90344752      -1.62812934       1.19125133
H       -2.51063364       0.27981972       0.48020056
H       -2.35801347      -0.53387942      -1.10202395
H       -0.93602892       1.98807633      -0.67677473
H       -0.30434206       0.61972668      -1.66174996
15
Frame=11 idx=001704 GeodesicLength=0.6815642399658207 rxn_smarts="[C:1]([C:2]1([H:9])[C:3]([H:10])([H:11])[C:4]([H:12])([H:13])[C:5]1([H:14])[H:15])([H:6])([H:7])[H:8]>>[C:1]([H:6])([H:7])([H:8])[H:9].[C:2]1[C:3]([H:10])([H:11])[C:4]([H:12])([H:13])[C:5]1([H:14])[H:15]"
C        2.08654391       0.13002303       0.40068942
C       -0.03467730       0.30614482       0.46550064
C       -0.69312427      -1.02448181       0.30439947
C       -1.81878512      -0.09694697      -0.25575536
C       -0.72027246       0.91878420      -0.70972182
H        2.75688923       0.98961017       0.35131018
H        2.50438182      -0.63016653       1.06378531
H        2.11062505      -0.30890642      -0.59787137
H        1.13175385       0.63454422       1.25783189
H       -0.29386985      -1.63805465      -0.50895327
H       -0.88669958      -1.62253122       1.19329358
H       -2.50204746       0.28579896       0.49713516
H       -2.37068169      -0.53725318      -1.08274831
H       -0.94170824       1.98469524      -0.69539066
H       -0.32832790       0.60874014      -1.68350486
15
Frame=12 idx=001704 GeodesicLength=0.7424492585234996 rxn_smarts="[C:1]([C:2]1([H:9])[C:3]([H:10])([H:11])[C:4]([H:12])([H:13])[C:5]1([H:14])[H:15])([H:6])([H:7])[H:8]>>[C:1]([H:6])([H:7])([H:8])[H:9].[C:2]1[C:3]([H:10])([H:11])[C:4]([H:12])([H:13])[C:5]1([H:14])[H:15]"
C        2.08803611       0.13377159       0.40643414
C       -0.02638398       0.30456130       0.43871711
C       -0.68847307      -1.02558860       0.29923317
C       -1.82036965      -0.09543489      -0.24575471
C       -0.72744111       0.91481227      -0.72731613
H        2.78275772       0.97553101       0.40175676
H        2.47589489      -0.65753294       1.05133302
H        2.13814932      -0.27086777      -0.60628357
H        1.12506738       0.65037816       1.27203332
H       -0.30224834      -1.64335527      -0.51708094
H       -0.86978404      -1.61689068       1.19504669
H       -2.49243663       0.29254084       0.51430580
H       -2.38325710      -0.54009438      -1.06282162
H       -0.94672472       1.98105567      -0.71431443
H       -0.35278678       0.59711370      -1.70528860
15
Frame=13 idx=001704 GeodesicLength=0.8031966736852588 rxn_smarts="[C:1]([C:2]1([H:9])[C:3]([H:10])([H:11])[C:4]([H:12])([H:13])[C:5]1([H:14])[H:15])([H:6])([H:7])[H:8]>>[C:1]([H:6])([H:7])([H:8])[H:9].[C:2]1[C:3]([H:10])([H:11])[C:4]([H:12])([H:13])[C:5]1([H:14])[H:15]"
C        2.08947384       0.13777184       0.41217006
C       -0.01783329       0.30243221       0.41134734
C       -0.68383529      -1.02682992       0.29390205
C       -1.82147189      -0.09355919      -0.23555071
C       -0.73441515       0.91047742      -0.74513312
H        2.80664331       0.95996711       0.45302844
H        2.44812622      -0.68318641       1.03687053
H        2.16632311      -0.23185545      -0.61292699
H        1.11726040       0.66538175       1.28616010
H       -0.31118523      -1.64902919      -0.52519189
H       -0.85272060      -1.61123394       1.19649595
H       -2.48175799       0.30005305       0.53169858
H       -2.39574100      -0.54237609      -1.04221579
H       -0.95108651       1.97713906      -0.73357367
H       -0.37777990       0.58484774      -1.72708088
15
Frame=14 idx=001704 GeodesicLength=0.8637783350646828 rxn_smarts="[C:1]([C:2]1([H:9])[C:3]([H:10])([H:11])[C:4]([H:12])([H:13])[C:5]1([H:14])[H:15])([H:6])([H:7])[H:8]>>[C:1]([H:6])([H:7])([H:8])[H:9].[C:2]1[C:3]([H:10])([H:11])[C:4]([H:12])([H:13])[C:5]1([H:14])[H:15]"
C        2.09085942       0.14202676       0.41797680
C       -0.00900165       0.29971911       0.38341345
C       -0.67918743      -1.02821854       0.28842033
C       -1.82202997      -0.09128840      -0.22513743
C       -0.74113146       0.90577165      -0.76315111
H        2.82808910       0.94303625       0.50475750
H        2.42113707      -0.70726855       1.02031239
H        2.19516203      -0.19188917      -0.61762197
H        1.10823391       0.67955806       1.30024804
H       -0.32066456      -1.65508727      -0.53326019
H       -0.83549495      -1.60557834       1.19764601
H       -2.46993539       0.30837808       0.54930319
H       -2.40807545      -0.54404017      -1.02092094
H       -0.95471287       1.97294087      -0.75315742
H       -0.40324780       0.57193967      -1.74882864
15
Frame=15 idx=001704 GeodesicLength=0.9242177616973405 rxn_smarts="[C:1]([C:2]1([H:9])[C:3]([H:10])([H:11])[C:4]([H:12])([H:13])[C:5]1([H:14])[H:15])([H:6])([H:7])[H:8]>>[C:1]([H:6])([H:7])([H:8])[H:9].[C:2]1[C:3]([H:10])([H:11])[C:4]([H:12])([H:13])[C:5]1([H:14])[H:15]"
C        2.09216476       0.14648411       0.42386824
C        0.00011879       0.29636869       0.35490100
C       -0.67452921      -1.02977736       0.28278161
C       -1.82200693      -0.08860264      -0.21451152
C       -0.74757249       0.90068325      -0.78136197
H        2.84698377       0.92484391       0.55681126
H        2.39509193      -0.72977634       1.00173086
H        2.22456889      -0.15100382      -0.62031891
H        1.09792408       0.69293278       1.31426710
H       -0.33073383      -1.66155040      -0.54128401
H       -0.81810189      -1.59995971       1.19847636
H       -2.45689851       0.31754407       0.56711379
H       -2.42023998      -0.54503188      -0.99891197
H       -0.95756395       1.96845092      -0.77306761
H       -0.42920543       0.55839442      -1.77049423
15
Frame=16 idx=001704 GeodesicLength=0.9845594652324929 rxn_smarts="[C:1]([C:2]1([H:9])[C:3]([H:10])([H:11])[C:4]([H:12])([H:13])[C:5]1([H:14])[H:15])([H:6])([H:7])[H:8]>>[C:1]([H:6])([H:7])([H:8])[H:9].[C:2]1[C:3]([H:10])([H:11])[C:4]([H:12])([H:13])[C:5]1([H:14])[H:15]"
C        2.09334595       0.15110613       0.42984897
C        0.00952524       0.29234079       0.32578387
C       -0.66986346      -1.03152117       0.27698357
C       -1.82137077      -0.08548946      -0.20367107
C       -0.75373965       0.89519942      -0.79977021
H        2.86332370       0.90543427       0.60916410
H        2.37016237      -0.75072393       0.98114537
H        2.25443094      -0.10918586      -0.62097600
H        1.08626542       0.70555166       1.32817504
H       -0.34144514      -1.66843433      -0.54924888
H       -0.80053130      -1.59440039       1.19897537
H       -2.44257726       0.32757175       0.58512137
H       -2.43221529      -0.54531526      -0.97615395
H       -0.95962271       1.96365551      -0.79332958
H       -0.45568802       0.54421085      -1.79204796
