18
Frame=0 idx=011566 GeodesicLength=0.0 rxn_smarts="[C:1]([C:2]([C@@:3]([C:4]([H:14])([H:15])[H:16])([N:5]([C:6](=[O:7])[H:18])[H:17])[H:13])([H:11])[H:12])([H:8])([H:9])[H:10]>>[C:1]([C:2]([C@@:3]([C:4]([H:14])([H:15])[H:16])([N:5]=[C:6]=[O:7])[H:13])([H:11])[H:12])([H:8])([H:9])[H:10].[H:17][H:18]"
C       -1.62489763      -0.56809457      -1.18094679
C       -1.25056658       0.38711464      -0.05731209
C        0.25367863       0.60991318       0.08829905
C        0.57696171       1.65497443       1.14486238
N        0.91424724      -0.64823591       0.46395777
C        1.62247257      -1.34768901      -0.36259091
O        2.09134404      -1.52496003      -1.42288965
H       -1.25483672      -0.20931094      -2.14447781
H       -1.20638977      -1.56258612      -1.01426725
H       -2.70787355      -0.67558907      -1.25886827
H       -1.72041903       1.36071740      -0.22597212
H       -1.63671814       0.01453374       0.89702566
H        0.65551407       0.93838648      -0.87654781
H        0.11001784       2.60949436       0.89658431
H        0.20668919       1.33301748       2.12060103
H        1.65403739       1.80668551       1.22357200
H        1.37601322      -1.76713708       1.09463911
H        1.94072549      -2.41123451       0.61433139
18
Frame=1 idx=011566 GeodesicLength=0.06791505817767753 rxn_smarts="[C:1]([C:2]([C@@:3]([C:4]([H:14])([H:15])[H:16])([N:5]([C:6](=[O:7])[H:18])[H:17])[H:13])([H:11])[H:12])([H:8])([H:9])[H:10]>>[C:1]([C:2]([C@@:3]([C:4]([H:14])([H:15])[H:16])([N:5]=[C:6]=[O:7])[H:13])([H:11])[H:12])([H:8])([H:9])[H:10].[H:17][H:18]"
C       -1.62207567      -0.56922098      -1.18029591
C       -1.24723943       0.38208005      -0.05349279
C        0.25628182       0.61432524       0.08399493
C        0.57965533       1.65853851       1.14143484
N        0.92424538      -0.63984074       0.45320963
C        1.64455212      -1.33766544      -0.36212853
O        2.09787503      -1.51906506      -1.42947843
H       -1.26098821      -0.20189236      -2.14401525
H       -1.19516430      -1.56164711      -1.02300804
H       -2.70471466      -0.68429759      -1.25167741
H       -1.72451257       1.35342337      -0.21394736
H       -1.62546542       0.00205185       0.90116980
H        0.65252775       0.94579144      -0.88194569
H        0.10622243       2.61108535       0.89782143
H        0.21600064       1.33333087       2.11862108
H        1.65630510       1.81594488       1.21439400
H        1.32374553      -1.78279332       1.09880589
H        1.92274912      -2.42014896       0.63053781
18
Frame=2 idx=011566 GeodesicLength=0.13558064886027593 rxn_smarts="[C:1]([C:2]([C@@:3]([C:4]([H:14])([H:15])[H:16])([N:5]([C:6](=[O:7])[H:18])[H:17])[H:13])([H:11])[H:12])([H:8])([H:9])[H:10]>>[C:1]([C:2]([C@@:3]([C:4]([H:14])([H:15])[H:16])([N:5]=[C:6]=[O:7])[H:13])([H:11])[H:12])([H:8])([H:9])[H:10].[H:17][H:18]"
C       -1.62076155      -0.57036818      -1.17913585
C       -1.24440268       0.37703177      -0.04952702
C        0.25852925       0.61787364       0.07930672
C        0.58296546       1.66129240       1.13728472
N        0.93329200      -0.63266653       0.44205319
C        1.66517671      -1.32925402      -0.36195654
O        2.11564788      -1.50685572      -1.43223483
H       -1.26889887      -0.19489598      -2.14316466
H       -1.18597038      -1.56082389      -1.03126798
H       -2.70308752      -0.69251374      -1.24355482
H       -1.72852611       1.34629495      -0.20179124
H       -1.61456544      -0.00998169       0.90561300
H        0.64895742       0.95205453      -0.88790638
H        0.10347922       2.61205055       0.89835683
H        0.22615839       1.33318676       2.11609603
H        1.65927927       1.82381380       1.20405908
H        1.27199424      -1.79629776       1.10142726
H        1.90073271      -2.42994089       0.64634246
18
Frame=3 idx=011566 GeodesicLength=0.2037509616731406 rxn_smarts="[C:1]([C:2]([C@@:3]([C:4]([H:14])([H:15])[H:16])([N:5]([C:6](=[O:7])[H:18])[H:17])[H:13])([H:11])[H:12])([H:8])([H:9])[H:10]>>[C:1]([C:2]([C@@:3]([C:4]([H:14])([H:15])[H:16])([N:5]=[C:6]=[O:7])[H:13])([H:11])[H:12])([H:8])([H:9])[H:10].[H:17][H:18]"
C       -1.62030987      -0.57162913      -1.17750995
C       -1.24174903       0.37192975      -0.04540620
C        0.26051667       0.62078756       0.07439403
C        0.58664509       1.66352024       1.13260613
N        0.94160383      -0.62628498       0.43061290
C        1.68484882      -1.32172268      -0.36187128
O        2.14130085      -1.49023933      -1.43189544
H       -1.27799433      -0.18832025      -2.14185835
H       -1.17795926      -1.56006669      -1.03920456
H       -2.70220678      -0.70060488      -1.23459055
H       -1.73227268       1.33915902      -0.18944467
H       -1.60370423      -0.02164089       0.91024439
H        0.64490612       0.95739334      -0.89416515
H        0.10142457       2.61252941       0.89842296
H        0.23693237       1.33285222       2.11311325
H        1.66256281       1.83078388       1.19284639
H        1.22044250      -1.80755725       1.10264358
H        1.87501256      -2.44088934       0.66106254
18
Frame=4 idx=011566 GeodesicLength=0.27249145915602524 rxn_smarts="[C:1]([C:2]([C@@:3]([C:4]([H:14])([H:15])[H:16])([N:5]([C:6](=[O:7])[H:18])[H:17])[H:13])([H:11])[H:12])([H:8])([H:9])[H:10]>>[C:1]([C:2]([C@@:3]([C:4]([H:14])([H:15])[H:16])([N:5]=[C:6]=[O:7])[H:13])([H:11])[H:12])([H:8])([H:9])[H:10].[H:17][H:18]"
C       -1.62040572      -0.57297361      -1.17571389
C       -1.23925735       0.36676850      -0.04127606
C        0.26239410       0.62324738       0.06942386
C        0.59055895       1.66535376       1.12771413
N        0.94948529      -0.62057390       0.41916652
C        1.70422184      -1.31469978      -0.36155306
O        2.17073829      -1.47136159      -1.42992783
H       -1.28775806      -0.18196130      -2.14036868
H       -1.17068966      -1.55936694      -1.04701018
H       -2.70185096      -0.70866027      -1.22531863
H       -1.73587014       1.33203366      -0.17715613
H       -1.59305063      -0.03312596       0.91490122
H        0.64073097       0.96216629      -0.90053297
H        0.09980951       2.61269022       0.89823494
H        0.24798366       1.33225948       2.10996544
H        1.66611698       1.83710340       1.18130258
H        1.17008614      -1.81646741       1.10339664
H        1.84675676      -2.45243193       0.67475208
18
Frame=5 idx=011566 GeodesicLength=0.34141456944939264 rxn_smarts="[C:1]([C:2]([C@@:3]([C:4]([H:14])([H:15])[H:16])([N:5]([C:6](=[O:7])[H:18])[H:17])[H:13])([H:11])[H:12])([H:8])([H:9])[H:10]>>[C:1]([C:2]([C@@:3]([C:4]([H:14])([H:15])[H:16])([N:5]=[C:6]=[O:7])[H:13])([H:11])[H:12])([H:8])([H:9])[H:10].[H:17][H:18]"
C       -1.62119611      -0.57432948      -1.17374202
C       -1.23698348       0.36159541      -0.03715610
C        0.26407377       0.62513349       0.06433671
C        0.59474258       1.66664758       1.12252564
N        0.95669028      -0.61572086       0.40760704
C        1.72295351      -1.30835112      -0.36116521
O        2.20457468      -1.44975441      -1.42581676
H       -1.29834242      -0.17580370      -2.13866631
H       -1.16440831      -1.55867476      -1.05471569
H       -2.70212942      -0.71650401      -1.21569559
H       -1.73926150       1.32500724      -0.16491615
H       -1.58267455      -0.04432439       0.91954712
H        0.63634096       0.96618415      -0.90704579
H        0.09879579       2.61242753       0.89773883
H        0.25933955       1.33132725       2.10654393
H        1.66995509       1.84249755       1.16932225
H        1.12095159      -1.82319332       1.10389315
H        1.81657801      -2.46416414       0.68740495
18
Frame=6 idx=011566 GeodesicLength=0.41058778238055227 rxn_smarts="[C:1]([C:2]([C@@:3]([C:4]([H:14])([H:15])[H:16])([N:5]([C:6](=[O:7])[H:18])[H:17])[H:13])([H:11])[H:12])([H:8])([H:9])[H:10]>>[C:1]([C:2]([C@@:3]([C:4]([H:14])([H:15])[H:16])([N:5]=[C:6]=[O:7])[H:13])([H:11])[H:12])([H:8])([H:9])[H:10].[H:17][H:18]"
C       -1.62212594      -0.57578236      -1.17169531
C       -1.23466515       0.35634182      -0.03306413
C        0.26570711       0.62667417       0.05927118
C        0.59902930       1.66762848       1.11727329
N        0.96356496      -0.61132787       0.39601282
C        1.74165101      -1.30212057      -0.36048988
O        2.23942931      -1.42728163      -1.42068459
H       -1.30920318      -0.16981071      -2.13676694
H       -1.15837863      -1.55797465      -1.06248054
H       -2.70242182      -0.72446596      -1.20591784
H       -1.74233892       1.31790492      -0.15270638
H       -1.57231262      -0.05540760       0.92407838
H        0.63190580       0.96975967      -0.91349126
H        0.09804022       2.61185545       0.89722417
H        0.27085687       1.33016754       2.10300763
H        1.67382636       1.84743434       1.15721557
H        1.07256274      -1.82786467       1.10417130
H        1.78487258      -2.47573034       0.69904254
18
Frame=7 idx=011566 GeodesicLength=0.4800842100893853 rxn_smarts="[C:1]([C:2]([C@@:3]([C:4]([H:14])([H:15])[H:16])([N:5]([C:6](=[O:7])[H:18])[H:17])[H:13])([H:11])[H:12])([H:8])([H:9])[H:10]>>[C:1]([C:2]([C@@:3]([C:4]([H:14])([H:15])[H:16])([N:5]=[C:6]=[O:7])[H:13])([H:11])[H:12])([H:8])([H:9])[H:10].[H:17][H:18]"
C       -1.62349137      -0.57726203      -1.16957738
C       -1.23247191       0.35105738      -0.02902450
C        0.26723371       0.62779126       0.05413988
C        0.60350537       1.66818993       1.11185550
N        0.96999328      -0.60758796       0.38431751
C        1.76017035      -1.29616149      -0.35965927
O        2.27650343      -1.40325007      -1.41391475
H       -1.32062721      -0.16391968      -2.13472988
H       -1.15294168      -1.55724913      -1.07028071
H       -2.70308483      -0.73239224      -1.19594092
H       -1.74522593       1.31084694      -0.14058144
H       -1.56216123      -0.06631746       0.92853527
H        0.62737491       0.97281955      -0.92001102
H        0.09767835       2.61094097       0.89657009
H        0.28260802       1.32866707       2.09930695
H        1.67789395       1.85170847       1.14483983
H        1.02519636      -1.83066404       1.10457419
H        1.75184643      -2.48721746       0.70958066
18
Frame=8 idx=011566 GeodesicLength=0.5498260556502738 rxn_smarts="[C:1]([C:2]([C@@:3]([C:4]([H:14])([H:15])[H:16])([N:5]([C:6](=[O:7])[H:18])[H:17])[H:13])([H:11])[H:12])([H:8])([H:9])[H:10]>>[C:1]([C:2]([C@@:3]([C:4]([H:14])([H:15])[H:16])([N:5]=[C:6]=[O:7])[H:13])([H:11])[H:12])([H:8])([H:9])[H:10].[H:17][H:18]"
C       -1.62525918      -0.57876383      -1.16740478
C       -1.23038543       0.34574840      -0.02505472
C        0.26865322       0.62848706       0.04893524
C        0.60816202       1.66831291       1.10628322
N        0.97596715      -0.60449726       0.37246625
C        1.77852011      -1.29041375      -0.35873091
O        2.31543310      -1.37776630      -1.40548095
H       -1.33257057      -0.15813566      -2.13255287
H       -1.14807889      -1.55648949      -1.07813215
H       -2.70406794      -0.74027270      -1.18579431
H       -1.74789376       1.30383948      -0.12855245
H       -1.55220860      -0.07704316       0.93288737
H        0.62274399       0.97537445      -0.92659498
H        0.09770573       2.60966305       0.89581879
H        0.29459282       1.32678988       2.09543250
H        1.68213232       1.85530066       1.13220875
H        0.97879402      -1.83167041       1.10524877
H        1.71775991      -2.49846332       0.71901724
18
Frame=9 idx=011566 GeodesicLength=0.6198577069900785 rxn_smarts="[C:1]([C:2]([C@@:3]([C:4]([H:14])([H:15])[H:16])([N:5]([C:6](=[O:7])[H:18])[H:17])[H:13])([H:11])[H:12])([H:8])([H:9])[H:10]>>[C:1]([C:2]([C@@:3]([C:4]([H:14])([H:15])[H:16])([N:5]=[C:6]=[O:7])[H:13])([H:11])[H:12])([H:8])([H:9])[H:10].[H:17][H:18]"
C       -1.62743157      -0.58031298      -1.16515317
C       -1.22840643       0.34041563      -0.02115381
C        0.26997136       0.62877083       0.04363881
C        0.61301056       1.66800951       1.10053005
N        0.98151085      -0.60204846       0.36041968
C        1.79675442      -1.28481087      -0.35774221
O        2.35630390      -1.35066941      -1.39516794
H       -1.34503824      -0.15249688      -2.13021800
H       -1.14378901      -1.55572108      -1.08599059
H       -2.70537305      -0.74813839      -1.17544407
H       -1.75034958       1.29688763      -0.11663318
H       -1.54245272      -0.08757366       0.93714886
H        0.61800305       0.97743994      -0.93326773
H        0.09812005       2.60803409       0.89495359
H        0.30684258       1.32453643       2.09136077
H        1.68655369       1.85823180       1.11927642
H        0.93332245      -1.83095599       1.10637218
H        1.68244769      -2.50959813       0.72707031
18
Frame=10 idx=011566 GeodesicLength=0.6900508580992607 rxn_smarts="[C:1]([C:2]([C@@:3]([C:4]([H:14])([H:15])[H:16])([N:5]([C:6](=[O:7])[H:18])[H:17])[H:13])([H:11])[H:12])([H:8])([H:9])[H:10]>>[C:1]([C:2]([C@@:3]([C:4]([H:14])([H:15])[H:16])([N:5]=[C:6]=[O:7])[H:13])([H:11])[H:12])([H:8])([H:9])[H:10].[H:17][H:18]"
C       -1.62988684      -0.58200185      -1.16276916
C       -1.22647688       0.33504076      -0.01730520
C        0.27122233       0.62868839       0.03826854
C        0.61803660       1.66736594       1.09459000
N        0.98671158      -0.60016311       0.34820270
C        1.81500614      -1.27918477      -0.35664250
O        2.39887507      -1.32190209      -1.38283356
H       -1.35791061      -0.14713077      -2.12768323
H       -1.13991295      -1.55501163      -1.09375498
H       -2.70685932      -0.75612949      -1.16483952
H       -1.75257083       1.28995052      -0.10485035
H       -1.53283422      -0.09789438       0.94135185
H        0.61316839       0.97905315      -0.94001193
H        0.09886862       2.60611041       0.89395780
H        0.31936513       1.32199807       2.08708465
H        1.69112627       1.86063917       1.10602724
H        0.88885960      -1.82851424       1.10817963
H        1.64521193      -2.52091410       0.73302802
18
Frame=11 idx=011566 GeodesicLength=0.7604469195090419 rxn_smarts="[C:1]([C:2]([C@@:3]([C:4]([H:14])([H:15])[H:16])([N:5]([C:6](=[O:7])[H:18])[H:17])[H:13])([H:11])[H:12])([H:8])([H:9])[H:10]>>[C:1]([C:2]([C@@:3]([C:4]([H:14])([H:15])[H:16])([N:5]=[C:6]=[O:7])[H:13])([H:11])[H:12])([H:8])([H:9])[H:10].[H:17][H:18]"
C       -1.63271509      -0.58369399      -1.16040866
C       -1.22465227       0.32966811      -0.01361125
C        0.27237104       0.62819302       0.03279799
C        0.62323857       1.66618459       1.08856185
N        0.99146692      -0.59894106       0.33564566
C        1.83310281      -1.27361104      -0.35569745
O        2.44226051      -1.29195388      -1.36886953
H       -1.37111017      -0.14194664      -2.12506522
H       -1.13671141      -1.55429309      -1.10150647
H       -2.70864428      -0.76393456      -1.15426946
H       -1.75454011       1.28310674      -0.09328595
H       -1.52346035      -0.10799905       0.94535524
H        0.60823801       0.98026397      -0.94680703
H        0.10001271       2.60374087       0.89301461
H        0.33211075       1.31887990       2.08265090
H        1.69585787       1.86224910       1.09263608
H        0.84542692      -1.82436139       1.11078960
H        1.60774756      -2.53155160       0.73806908
18
Frame=12 idx=011566 GeodesicLength=0.8309436609814046 rxn_smarts="[C:1]([C:2]([C@@:3]([C:4]([H:14])([H:15])[H:16])([N:5]([C:6](=[O:7])[H:18])[H:17])[H:13])([H:11])[H:12])([H:8])([H:9])[H:10]>>[C:1]([C:2]([C@@:3]([C:4]([H:14])([H:15])[H:16])([N:5]=[C:6]=[O:7])[H:13])([H:11])[H:12])([H:8])([H:9])[H:10].[H:17][H:18]"
C       -1.63578248      -0.58552569      -1.15797555
C       -1.22287917       0.32427328      -0.01003214
C        0.27347025       0.62734941       0.02725054
C        0.62860420       1.66460214       1.08242489
N        0.99591832      -0.59829263       0.32280381
C        1.85127343      -1.26789984      -0.35480910
O        2.48645157      -1.26066277      -1.35311159
H       -1.38449621      -0.13712079      -2.12230860
H       -1.13398657      -1.55369313      -1.10906782
H       -2.71059668      -0.77174820      -1.14362854
H       -1.75626758       1.27631911      -0.08197095
H       -1.51428105      -0.11787578       0.94923939
H        0.60324636       0.98113364      -0.95364896
H        0.10147654       2.60103809       0.89207102
H        0.34508692       1.31532284       2.07805606
H        1.70073635       1.86326566       1.07905968
H        0.80313863      -1.81847157       1.11446322
H        1.56888718      -2.54201376       0.74118462
18
Frame=13 idx=011566 GeodesicLength=0.9015975190131823 rxn_smarts="[C:1]([C:2]([C@@:3]([C:4]([H:14])([H:15])[H:16])([N:5]([C:6](=[O:7])[H:18])[H:17])[H:13])([H:11])[H:12])([H:8])([H:9])[H:10]>>[C:1]([C:2]([C@@:3]([C:4]([H:14])([H:15])[H:16])([N:5]=[C:6]=[O:7])[H:13])([H:11])[H:12])([H:8])([H:9])[H:10].[H:17][H:18]"
C       -1.63907232      -0.58756721      -1.15540278
C       -1.22113669       0.31884252      -0.00654996
C        0.27453436       0.62615950       0.02161431
C        0.63415597       1.66264534       1.07613445
N        1.00009958      -0.59819709       0.30966371
C        1.86959348      -1.26194829      -0.35397117
O        2.53169328      -1.22774285      -1.33519861
H       -1.39806104      -0.13277126      -2.11937046
H       -1.13171705      -1.55327859      -1.11632137
H       -2.71269640      -0.77964127      -1.13283253
H       -1.75774161       1.26956570      -0.07092536
H       -1.50526068      -0.12749440       0.95304674
H        0.59817720       0.98164719      -0.96056049
H        0.10326815       2.59801269       0.89107598
H        0.35834985       1.31136662       2.07326262
H        1.70577632       1.86372647       1.06522764
H        0.76201584      -1.81082180       1.11936718
H        1.52802177      -2.55250327       0.74174009
18
Frame=14 idx=011566 GeodesicLength=0.9725725993595876 rxn_smarts="[C:1]([C:2]([C@@:3]([C:4]([H:14])([H:15])[H:16])([N:5]([C:6](=[O:7])[H:18])[H:17])[H:13])([H:11])[H:12])([H:8])([H:9])[H:10]>>[C:1]([C:2]([C@@:3]([C:4]([H:14])([H:15])[H:16])([N:5]=[C:6]=[O:7])[H:13])([H:11])[H:12])([H:8])([H:9])[H:10].[H:17][H:18]"
C       -1.64261707      -0.58990320      -1.15258070
C       -1.21942355       0.31336434      -0.00312346
C        0.27557168       0.62461257       0.01585635
C        0.63993834       1.66035225       1.06959770
N        1.00403464      -0.59866270       0.29620241
C        1.88812418      -1.25568553      -0.35319953
O        2.57863511      -1.19269392      -1.31440742
H       -1.41186400      -0.12903446      -2.11618243
H       -1.12992943      -1.55314391      -1.12311441
H       -2.71497979      -0.78769369      -1.12171737
H       -1.75896721       1.26284216      -0.06014525
H       -1.49637392      -0.13681236       0.95686148
H        0.59300405       0.98175305      -0.96760427
H        0.10542112       2.59469867       0.88992255
H        0.37198740       1.30708107       2.06820192
H        1.71102360       1.86366841       1.05099069
H        0.72207542      -1.80145382       1.12560385
H        1.48433946      -2.56328893       0.73883787
18
Frame=15 idx=011566 GeodesicLength=1.0437930579390922 rxn_smarts="[C:1]([C:2]([C@@:3]([C:4]([H:14])([H:15])[H:16])([N:5]([C:6](=[O:7])[H:18])[H:17])[H:13])([H:11])[H:12])([H:8])([H:9])[H:10]>>[C:1]([C:2]([C@@:3]([C:4]([H:14])([H:15])[H:16])([N:5]=[C:6]=[O:7])[H:13])([H:11])[H:12])([H:8])([H:9])[H:10].[H:17][H:18]"
C       -1.64632357      -0.59275754      -1.14928515
C       -1.21765238       0.30778427       0.00033582
C        0.27663901       0.62272857       0.00999074
C        0.64600115       1.65787012       1.06269225
N        1.00784871      -0.59958827       0.28254040
C        1.90702986      -1.24890193      -0.35232361
O        2.62784079      -1.15493024      -1.28959374
H       -1.42584970      -0.12627003      -2.11258971
H       -1.12850343      -1.55348754      -1.12908846
H       -2.71733601      -0.79615951      -1.11001392
H       -1.75989836       1.25605190      -0.04966164
H       -1.48747680      -0.14575995       0.96083965
H        0.58772442       0.98136257      -0.97481189
H        0.10794216       2.59118297       0.88839512
H        0.38611645       1.30271690       2.06279102
H        1.71650446       1.86328839       1.03616878
H        0.68349637      -1.79034736       1.13329001
H        1.43589688      -2.57478331       0.73032432
18
Frame=16 idx=011566 GeodesicLength=1.1152775312893934 rxn_smarts="[C:1]([C:2]([C@@:3]([C:4]([H:14])([H:15])[H:16])([N:5]([C:6](=[O:7])[H:18])[H:17])[H:13])([H:11])[H:12])([H:8])([H:9])[H:10]>>[C:1]([C:2]([C@@:3]([C:4]([H:14])([H:15])[H:16])([N:5]=[C:6]=[O:7])[H:13])([H:11])[H:12])([H:8])([H:9])[H:10].[H:17][H:18]"
C       -1.65067540      -0.59542350      -1.14617873
C       -1.21612502       0.30228444       0.00351117
C        0.27753423       0.62029459       0.00386453
C        0.65236417       1.65447411       1.05569770
N        1.01104912      -0.60148878       0.26801320
C        1.92560179      -1.24210664      -0.35230106
O        2.67717001      -1.11581661      -1.26243395
H       -1.44025130      -0.12351300      -2.10909285
H       -1.12823677      -1.55380866      -1.13517053
H       -2.72033384      -0.80398502      -1.09853988
H       -1.76059339       1.24956241      -0.03946619
H       -1.47903924      -0.15445254       0.96449709
H        0.58225612       0.98061298      -0.98218319
H        0.11109129       2.58696697       0.88714285
H        0.40062371       1.29719319       2.05715694
H        1.72230122       1.86159604       1.02116105
H        0.64543581      -1.77827624       1.14141649
H        1.38982750      -2.58411374       0.72290536
