11
Frame=0 idx=004395 GeodesicLength=0.0 rxn_smarts="[O:1]=[C:2]1[N:3]([H:7])[C:4]([H:8])([H:9])[C:5]([H:10])=[C:6]1[H:11]>>[O:1]=[C:2]=[C:6]=[C:5]([C:4]([N:3]([H:7])[H:11])([H:8])[H:9])[H:10]"
O        2.14035564      -0.87312571       0.98219187
C        1.31183218      -0.23687669       0.42042245
N        0.25302445      -0.85102648      -0.44080704
C       -0.98241789      -0.19800635       0.03121149
C       -0.36040819       1.19986179       0.08066385
C        1.00124515       1.22550423       0.28400709
H        0.28345897      -1.85363781      -0.59160227
H       -1.31619019      -0.58698315       0.99641833
H       -1.77914339      -0.28773971      -0.70550945
H       -0.97257684       2.08279844      -0.06750424
H        0.42082010       0.37923146      -0.98949207
11
Frame=1 idx=004395 GeodesicLength=0.10693790668411608 rxn_smarts="[O:1]=[C:2]1[N:3]([H:7])[C:4]([H:8])([H:9])[C:5]([H:10])=[C:6]1[H:11]>>[O:1]=[C:2]=[C:6]=[C:5]([C:4]([N:3]([H:7])[H:11])([H:8])[H:9])[H:10]"
O        2.17042742      -0.85906057       0.97614563
C        1.32166751      -0.23227030       0.43467660
N        0.24682621      -0.85870399      -0.43803957
C       -0.98617913      -0.19855848       0.02694006
C       -0.36441576       1.19747453       0.08810523
C        0.99636546       1.21850711       0.27997856
H        0.26585530      -1.86211684      -0.58241790
H       -1.33355879      -0.58463067       0.98852006
H       -1.78067662      -0.27867536      -0.71411838
H       -0.97734750       2.08111313      -0.05172016
H        0.44103590       0.37692145      -1.00807013
11
Frame=2 idx=004395 GeodesicLength=0.21377567603448627 rxn_smarts="[O:1]=[C:2]1[N:3]([H:7])[C:4]([H:8])([H:9])[C:5]([H:10])=[C:6]1[H:11]>>[O:1]=[C:2]=[C:6]=[C:5]([C:4]([N:3]([H:7])[H:11])([H:8])[H:9])[H:10]"
O        2.20059013      -0.84426911       0.96961308
C        1.33151500      -0.22747530       0.44959871
N        0.24035059      -0.86644397      -0.43526172
C       -0.99009210      -0.19913716       0.02280040
C       -0.36851121       1.19494362       0.09608641
C        0.99145173       1.21122506       0.27557212
H        0.24792439      -1.87044955      -0.57349651
H       -1.35116355      -0.58242067       0.98046050
H       -1.78214820      -0.26938508      -0.72269705
H       -0.98197336       2.07927226      -0.03601424
H        0.46205658       0.37413987      -1.02666170
11
Frame=3 idx=004395 GeodesicLength=0.32052779681267435 rxn_smarts="[O:1]=[C:2]1[N:3]([H:7])[C:4]([H:8])([H:9])[C:5]([H:10])=[C:6]1[H:11]>>[O:1]=[C:2]=[C:6]=[C:5]([C:4]([N:3]([H:7])[H:11])([H:8])[H:9])[H:10]"
O        2.23064147      -0.82871237       0.96278586
C        1.34144952      -0.22244116       0.46507567
N        0.23359413      -0.87424298      -0.43252722
C       -0.99413672      -0.19975063       0.01881773
C       -0.37268512       1.19225491       0.10466670
C        0.98650916       1.20363772       0.27070141
H        0.22965263      -1.87863118      -0.56492751
H       -1.36892627      -0.58039028       0.97227156
H       -1.78356565      -0.25985654      -0.73117783
H       -0.98644673       2.07727211      -0.02035923
H        0.48391359       0.37086040      -1.04532714
11
Frame=4 idx=004395 GeodesicLength=0.4272232144152329 rxn_smarts="[O:1]=[C:2]1[N:3]([H:7])[C:4]([H:8])([H:9])[C:5]([H:10])=[C:6]1[H:11]>>[O:1]=[C:2]=[C:6]=[C:5]([C:4]([N:3]([H:7])[H:11])([H:8])[H:9])[H:10]"
O        2.26037893      -0.81236082       0.95589779
C        1.35155646      -0.21710655       0.48097169
N        0.22655373      -0.88209861      -0.42989804
C       -0.99829075      -0.20040399       0.01501519
C       -0.37692477       1.18939126       0.11391623
C        0.98153610       1.19572338       0.26525959
H        0.21102643      -1.88665674      -0.55679623
H       -1.38676607      -0.57857992       0.96398559
H       -1.78493966      -0.25006893      -0.73949132
H       -0.99075848       2.07510563      -0.00471301
H        0.50662806       0.36705529      -1.06414750
11
Frame=5 idx=004395 GeodesicLength=0.5338649002858717 rxn_smarts="[O:1]=[C:2]1[N:3]([H:7])[C:4]([H:8])([H:9])[C:5]([H:10])=[C:6]1[H:11]>>[O:1]=[C:2]=[C:6]=[C:5]([C:4]([N:3]([H:7])[H:11])([H:8])[H:9])[H:10]"
O        2.28959907      -0.79520849       0.94921381
C        1.36192768      -0.21140898       0.49713483
N        0.21922548      -0.89000823      -0.42743773
C       -1.00253541      -0.20110382       0.01141919
C       -0.38121411       1.18633756       0.12388859
C        0.97653450       1.18747170       0.25913835
H        0.19204264      -1.89452828      -0.54919918
H       -1.40459979      -0.57702208       0.95564237
H       -1.78628896      -0.24001028      -0.74755619
H       -0.99490229       2.07276633       0.01096803
H        0.53021120       0.36271458      -1.08321207
11
Frame=6 idx=004395 GeodesicLength=0.6404920551705681 rxn_smarts="[O:1]=[C:2]1[N:3]([H:7])[C:4]([H:8])([H:9])[C:5]([H:10])=[C:6]1[H:11]>>[O:1]=[C:2]=[C:6]=[C:5]([C:4]([N:3]([H:7])[H:11])([H:8])[H:9])[H:10]"
O        2.31821513      -0.77724585       0.94293372
C        1.37262212      -0.20526595       0.51345410
N        0.21159803      -0.89797160      -0.42519838
C       -1.00686323      -0.20184901       0.00804399
C       -0.38554299       1.18307417       0.13465792
C        0.97147604       1.17885573       0.25223520
H        0.17267732      -1.90224289      -0.54219046
H       -1.42238811      -0.57574691       0.94726025
H       -1.78762647      -0.22964431      -0.75532567
H       -0.99886825       2.07024418       0.02673176
H        0.55470042       0.35779243      -1.10260244
11
Frame=7 idx=004395 GeodesicLength=0.7471192849874797 rxn_smarts="[O:1]=[C:2]1[N:3]([H:7])[C:4]([H:8])([H:9])[C:5]([H:10])=[C:6]1[H:11]>>[O:1]=[C:2]=[C:6]=[C:5]([C:4]([N:3]([H:7])[H:11])([H:8])[H:9])[H:10]"
O        2.34619731      -0.75846259       0.93720065
C        1.38368360      -0.19858976       0.52983531
N        0.20365297      -0.90599182      -0.42321655
C       -1.01127735      -0.20263388       0.00489678
C       -0.38990222       1.17958313       0.14629086
C        0.96631839       1.16984901       0.24447103
H        0.15290705      -1.90980933      -0.53580533
H       -1.44012139      -0.57477069       0.93884606
H       -1.78896445      -0.21893131      -0.76276920
H       -1.00264977       2.06753162       0.04262899
H        0.58015586       0.35222564      -1.12237860
11
Frame=8 idx=004395 GeodesicLength=0.853770268599194 rxn_smarts="[O:1]=[C:2]1[N:3]([H:7])[C:4]([H:8])([H:9])[C:5]([H:10])=[C:6]1[H:11]>>[O:1]=[C:2]=[C:6]=[C:5]([C:4]([N:3]([H:7])[H:11])([H:8])[H:9])[H:10]"
O        2.37351367      -0.73882643       0.93213503
C        1.39515662      -0.19128657       0.54619830
N        0.19537109      -0.91407771      -0.42152454
C       -1.01578201      -0.20345164       0.00198068
C       -0.39427452       1.17583774       0.15884613
C        0.96101045       1.16041287       0.23576421
H        0.13269892      -1.91723495      -0.53006783
H       -1.45779958      -0.57410352       0.93040095
H       -1.79031043      -0.20782758      -0.76986327
H       -1.00623500       2.06461224       0.05873237
H        0.60665078       0.34594557      -1.14260202
11
Frame=9 idx=004395 GeodesicLength=0.9604455224559616 rxn_smarts="[O:1]=[C:2]1[N:3]([H:7])[C:4]([H:8])([H:9])[C:5]([H:10])=[C:6]1[H:11]>>[O:1]=[C:2]=[C:6]=[C:5]([C:4]([N:3]([H:7])[H:11])([H:8])[H:9])[H:10]"
O        2.40016241      -0.71829507       0.92780731
C        1.40706673      -0.18327104       0.56250817
N        0.18673668      -0.92223931      -0.42013889
C       -1.02038599      -0.20428936      -0.00071438
C       -0.39863128       1.17181864       0.17236224
C        0.95548747       1.15050256       0.22603794
H        0.11203111      -1.92453177      -0.52498039
H       -1.47544126      -0.57373680       0.92191190
H       -1.79166648      -0.19629278      -0.77660591
H       -1.00961285       2.06147226       0.07515461
H        0.63425346       0.33886268      -1.16334260
11
Frame=10 idx=004395 GeodesicLength=1.0671510224509324 rxn_smarts="[O:1]=[C:2]1[N:3]([H:7])[C:4]([H:8])([H:9])[C:5]([H:10])=[C:6]1[H:11]>>[O:1]=[C:2]=[C:6]=[C:5]([C:4]([N:3]([H:7])[H:11])([H:8])[H:9])[H:10]"
O        2.42626024      -0.69679870       0.92417175
C        1.41940597      -0.17442888       0.57873822
N        0.17770409      -0.93049869      -0.41906949
C       -1.02511957      -0.20514098      -0.00319836
C       -0.40296973       1.16748959       0.18688298
C        0.94967897       1.14006045       0.21527931
H        0.09083708      -1.93171961      -0.52052752
H       -1.49311601      -0.57365970       0.91335099
H       -1.79303525      -0.18427173      -0.78301274
H       -1.01276830       2.05809382       0.09195191
H        0.66312250       0.33087444      -1.18456705
11
Frame=11 idx=004395 GeodesicLength=1.1738780207516575 rxn_smarts="[O:1]=[C:2]1[N:3]([H:7])[C:4]([H:8])([H:9])[C:5]([H:10])=[C:6]1[H:11]>>[O:1]=[C:2]=[C:6]=[C:5]([C:4]([N:3]([H:7])[H:11])([H:8])[H:9])[H:10]"
O        2.45189088      -0.67425813       0.92118190
C        1.43216555      -0.16466003       0.59488301
N        0.16823377      -0.93888160      -0.41831982
C       -1.03000852      -0.20599695      -0.00549157
C       -0.40726977       1.16281928       0.20241661
C        0.94351458       1.12902631       0.20346771
H        0.06906346      -1.93882511      -0.51669342
H       -1.51088524      -0.57384274       0.90468974
H       -1.79441837      -0.17172679      -0.78909954
H       -1.01568643       2.05445815       0.10922897
H        0.69340008       0.32188760      -1.20626358
11
Frame=12 idx=004395 GeodesicLength=1.2806144074331032 rxn_smarts="[O:1]=[C:2]1[N:3]([H:7])[C:4]([H:8])([H:9])[C:5]([H:10])=[C:6]1[H:11]>>[O:1]=[C:2]=[C:6]=[C:5]([C:4]([N:3]([H:7])[H:11])([H:8])[H:9])[H:10]"
O        2.47709794      -0.65057297       0.91881969
C        1.44535180      -0.15383235       0.61090497
N        0.15828359      -0.94740572      -0.41792156
C       -1.03508010      -0.20684940      -0.00761060
C       -0.41149976       1.15776632       0.21896178
C        0.93690483       1.11732147       0.19057346
H        0.04664972      -1.94586025      -0.51347849
H       -1.52879244      -0.57425805       0.89590538
H       -1.79582587      -0.15861048      -0.79486962
H       -1.01834180       2.05053576       0.12711427
H        0.72525208       0.31176567      -1.22839928
11
Frame=13 idx=004395 GeodesicLength=1.3873218432554164 rxn_smarts="[O:1]=[C:2]1[N:3]([H:7])[C:4]([H:8])([H:9])[C:5]([H:10])=[C:6]1[H:11]>>[O:1]=[C:2]=[C:6]=[C:5]([C:4]([N:3]([H:7])[H:11])([H:8])[H:9])[H:10]"
O        2.50194617      -0.62563451       0.91703265
C        1.45895369      -0.14182241       0.62677717
N        0.14780464      -0.95609398      -0.41790327
C       -1.04036538      -0.20769116      -0.00957815
C       -0.41562355       1.15229318       0.23647895
C        0.92976073       1.10486778       0.17659018
H        0.02353516      -1.95284857      -0.51088613
H       -1.54688553      -0.57486051       0.88697784
H       -1.79727521      -0.14489077      -0.80033082
H       -1.02071188       2.04630291       0.14574913
H        0.75886115       0.30037804      -1.25090755
11
Frame=14 idx=004395 GeodesicLength=1.4939788278151351 rxn_smarts="[O:1]=[C:2]1[N:3]([H:7])[C:4]([H:8])([H:9])[C:5]([H:10])=[C:6]1[H:11]>>[O:1]=[C:2]=[C:6]=[C:5]([C:4]([N:3]([H:7])[H:11])([H:8])[H:9])[H:10]"
O        2.52646214      -0.59932271       0.91579328
C        1.47297206      -0.12848455       0.64244902
N        0.13674152      -0.96496738      -0.41832532
C       -1.04589412      -0.20852360      -0.01140521
C       -0.41960239       1.14634498       0.25491509
C        0.92200433       1.09157211       0.16153132
H       -0.00036059      -1.95980213      -0.50895727
H       -1.56518925      -0.57560861       0.87790736
H       -1.79879564      -0.13054213      -0.80545276
H       -1.02275353       2.04171877       0.16522978
H        0.79441548       0.28761525      -1.27368528
11
Frame=15 idx=004395 GeodesicLength=1.600552950220709 rxn_smarts="[O:1]=[C:2]1[N:3]([H:7])[C:4]([H:8])([H:9])[C:5]([H:10])=[C:6]1[H:11]>>[O:1]=[C:2]=[C:6]=[C:5]([C:4]([N:3]([H:7])[H:11])([H:8])[H:9])[H:10]"
O        2.55067525      -0.57152628       0.91506205
C        1.48739480      -0.11367161       0.65787742
N        0.12503384      -0.97404385      -0.41926226
C       -1.05169928      -0.20935481      -0.01310026
C       -0.42338960       1.13987470       0.27416842
C        0.91356391       1.07733055       0.14545096
H       -0.02511159      -1.96673122      -0.50776160
H       -1.58370975      -0.57645242       0.86871946
H       -1.80043853      -0.11556428      -0.81019218
H       -1.02441764       2.03675456       0.18562829
H        0.83209858       0.27338466      -1.29659030
11
Frame=16 idx=004395 GeodesicLength=1.7070117346868179 rxn_smarts="[O:1]=[C:2]1[N:3]([H:7])[C:4]([H:8])([H:9])[C:5]([H:10])=[C:6]1[H:11]>>[O:1]=[C:2]=[C:6]=[C:5]([C:4]([N:3]([H:7])[H:11])([H:8])[H:9])[H:10]"
O        2.57460593      -0.54213345       0.91480747
C        1.50220201      -0.09723762       0.67301928
N        0.11261468      -0.98333522      -0.42082126
C       -1.05781628      -0.21020042      -0.01466229
C       -0.42693556       1.13283304       0.29410499
C        0.90438531       1.06202739       0.12843447
H       -0.05080157      -1.97363593      -0.50741384
H       -1.60242268      -0.57734633       0.85947343
H       -1.80228529      -0.09997654      -0.81446992
H       -1.02563950       2.03138138       0.20695468
H        0.87209295       0.25762370      -1.31942702
