19
Frame=0 idx=011039 GeodesicLength=0.0 rxn_smarts="[C:1]([C:2]([C:3]([C@@:4]1([H:15])[C:5]([H:16])([H:17])[C@:6]1([O:7][H:19])[H:18])([H:13])[H:14])([H:11])[H:12])([H:8])([H:9])[H:10]>>[C:1]([C:2]([C:3]([C@@:4]([C:5]([H:16])([H:17])[H:18])([C:6][O:7][H:19])[H:15])([H:13])[H:14])([H:11])[H:12])([H:8])([H:9])[H:10]"
C       -2.77139267       0.12083396      -0.25003554
C       -1.41079290       0.56479968       0.26895991
C       -0.35468060      -0.53016682       0.15758504
C        0.99150766      -0.09371606       0.69683746
C        2.20702068      -0.89706092       0.37574147
C        1.83811472       0.86505389      -0.10917671
O        1.47344326       0.81958744      -1.43481425
H       -2.71797716      -0.15145667      -1.30706341
H       -3.13796469      -0.75168899       0.29706786
H       -3.51574883       0.91259340      -0.14786221
H       -1.49947623       0.87641007       1.31517264
H       -1.07078289       1.44339679      -0.28596058
H       -0.25308014      -0.83480672      -0.88670603
H       -0.68682209      -1.41458725       0.71168679
H        0.93858680       0.19597158       1.74444287
H        2.14928895      -1.55072250      -0.48603169
H        2.85378491      -1.21095265       1.18802392
H        2.92498132       0.20220505       0.05215610
H        2.04198990       1.43430668      -1.90002366
19
Frame=1 idx=011039 GeodesicLength=0.045866950578472516 rxn_smarts="[C:1]([C:2]([C:3]([C@@:4]1([H:15])[C:5]([H:16])([H:17])[C@:6]1([O:7][H:19])[H:18])([H:13])[H:14])([H:11])[H:12])([H:8])([H:9])[H:10]>>[C:1]([C:2]([C:3]([C@@:4]([C:5]([H:16])([H:17])[H:18])([C:6][O:7][H:19])[H:15])([H:13])[H:14])([H:11])[H:12])([H:8])([H:9])[H:10]"
C       -2.77014996       0.11962959      -0.25010430
C       -1.40924934       0.56507014       0.26684975
C       -0.35280576      -0.52991333       0.15772215
C        0.99372043      -0.09102545       0.69381687
C        2.20807028      -0.90072611       0.37675728
C        1.84376082       0.85720234      -0.11886419
O        1.47613153       0.81790911      -1.44218211
H       -2.71746874      -0.15493765      -1.30658579
H       -3.13595224      -0.75179848       0.29923484
H       -3.51461386       0.91143928      -0.14903550
H       -1.49750188       0.87942160       1.31228752
H       -1.06999994       1.44254417      -0.29052600
H       -0.25281905      -0.83785353      -0.88586406
H       -0.68327464      -1.41279203       0.71525899
H        0.94313570       0.20726736       1.73918315
H        2.14762518      -1.55798432      -0.48240298
H        2.83589238      -1.22993173       1.19767829
H        2.94351470       0.19826736       0.06480024
H        2.01198438       1.46821167      -1.89802414
19
Frame=2 idx=011039 GeodesicLength=0.09167547221926114 rxn_smarts="[C:1]([C:2]([C:3]([C@@:4]1([H:15])[C:5]([H:16])([H:17])[C@:6]1([O:7][H:19])[H:18])([H:13])[H:14])([H:11])[H:12])([H:8])([H:9])[H:10]>>[C:1]([C:2]([C:3]([C@@:4]([C:5]([H:16])([H:17])[H:18])([C:6][O:7][H:19])[H:15])([H:13])[H:14])([H:11])[H:12])([H:8])([H:9])[H:10]"
C       -2.76876769       0.11849852      -0.25023838
C       -1.40757428       0.56538599       0.26470781
C       -0.35078407      -0.52958254       0.15773333
C        0.99607836      -0.08826640       0.69064616
C        2.20928244      -0.90434590       0.37779802
C        1.84962156       0.84920833      -0.12873876
O        1.47894095       0.81636200      -1.44968432
H       -2.71681665      -0.15824606      -1.30619346
H       -3.13378244      -0.75188654       0.30125391
H       -3.51335473       0.91033290      -0.15019892
H       -1.49540458       0.88237945       1.30939245
H       -1.06910971       1.44179798      -0.29502526
H       -0.25241924      -0.84078454      -0.88514607
H       -0.67954989      -1.41093534       0.71866878
H        0.94786107       0.21870348       1.73367107
H        2.14610708      -1.56514675      -0.47876967
H        2.81757738      -1.24881492       1.20701935
H        2.96205716       0.19443373       0.07822199
H        1.98003729       1.50090664      -1.89511804
19
Frame=3 idx=011039 GeodesicLength=0.1374362022270198 rxn_smarts="[C:1]([C:2]([C:3]([C@@:4]1([H:15])[C:5]([H:16])([H:17])[C@:6]1([O:7][H:19])[H:18])([H:13])[H:14])([H:11])[H:12])([H:8])([H:9])[H:10]>>[C:1]([C:2]([C:3]([C@@:4]([C:5]([H:16])([H:17])[H:18])([C:6][O:7][H:19])[H:15])([H:13])[H:14])([H:11])[H:12])([H:8])([H:9])[H:10]"
C       -2.76726047       0.11743680      -0.25042509
C       -1.40578461       0.56574531       0.26255236
C       -0.34862257      -0.52916485       0.15760882
C        0.99857267      -0.08542670       0.68731882
C        2.21065418      -0.90789247       0.37884484
C        1.85567833       0.84110202      -0.13878976
O        1.48183993       0.81501804      -1.45730316
H       -2.71603672      -0.16136189      -1.30588112
H       -3.13145996      -0.75197377       0.30311999
H       -3.51199310       0.90926152      -0.15131917
H       -1.49320046       0.88525765       1.30651430
H       -1.06813914       1.44117310      -0.29942211
H       -0.25188831      -0.84356716      -0.88456949
H       -0.67564450      -1.40902328       0.72188918
H        0.95275421       0.23027073       1.72790435
H        2.14473627      -1.57216446      -0.47516611
H        2.79884357      -1.26756439       1.21600074
H        2.98056774       0.19075657       0.09244512
H        1.94638297       1.53211724      -1.89132252
19
Frame=4 idx=011039 GeodesicLength=0.1831629548671266 rxn_smarts="[C:1]([C:2]([C:3]([C@@:4]1([H:15])[C:5]([H:16])([H:17])[C@:6]1([O:7][H:19])[H:18])([H:13])[H:14])([H:11])[H:12])([H:8])([H:9])[H:10]>>[C:1]([C:2]([C:3]([C@@:4]([C:5]([H:16])([H:17])[H:18])([C:6][O:7][H:19])[H:15])([H:13])[H:14])([H:11])[H:12])([H:8])([H:9])[H:10]"
C       -2.76564800       0.11643708      -0.25064844
C       -1.40390013       0.56614525       0.26040157
C       -0.34633331      -0.52865494       0.15734164
C        1.00119081      -0.08249728       0.68383135
C        2.21217849      -0.91134130       0.37987965
C        1.86190710       0.83291429      -0.14900603
O        1.48479107       0.81395103      -1.46502271
H       -2.71515268      -0.16427573      -1.30564080
H       -3.12899555      -0.75208205       0.30483867
H       -3.51055368       0.90821215      -0.15236327
H       -1.49090565       0.88803526       1.30368067
H       -1.06711775       1.44068225      -0.30368667
H       -0.25123970      -0.84617568      -0.88415075
H       -0.67156121      -1.40706640       0.72489976
H        0.95780379       0.24195836       1.72188625
H        2.14350836      -1.57899814      -0.47162704
H        2.77970408      -1.28613892       1.22457372
H        2.99899931       0.18728670       0.10748465
H        1.91132464       1.56160808      -1.88667222
19
Frame=5 idx=011039 GeodesicLength=0.22886916009379182 rxn_smarts="[C:1]([C:2]([C:3]([C@@:4]1([H:15])[C:5]([H:16])([H:17])[C@:6]1([O:7][H:19])[H:18])([H:13])[H:14])([H:11])[H:12])([H:8])([H:9])[H:10]>>[C:1]([C:2]([C:3]([C@@:4]([C:5]([H:16])([H:17])[H:18])([C:6][O:7][H:19])[H:15])([H:13])[H:14])([H:11])[H:12])([H:8])([H:9])[H:10]"
C       -2.76393296       0.11550370      -0.25090551
C       -1.40193087       0.56657983       0.25827106
C       -0.34391916      -0.52804716       0.15693375
C        1.00392808      -0.07947306       0.68017553
C        2.21385553      -0.91467758       0.38089668
C        1.86829324       0.82464381      -0.15938940
O        1.48777057       0.81317035      -1.47282366
H       -2.71415831      -0.16695315      -1.30546919
H       -3.12638811      -0.75221699       0.30638398
H       -3.50904526       0.90717862      -0.15331231
H       -1.48853825       0.89068351       1.30090591
H       -1.06605940       1.44032626      -0.30777993
H       -0.25047720      -0.84859720      -0.88388220
H       -0.66729515      -1.40505794       0.72769278
H        0.96300402       0.25376418       1.71560036
H        2.14242545      -1.58563028      -0.46815114
H        2.76016657      -1.30449599       1.23270632
H        3.01731123       0.18403940       0.12333654
H        1.87499000       1.58925970      -1.88118956
19
Frame=6 idx=011039 GeodesicLength=0.2746024203687666 rxn_smarts="[C:1]([C:2]([C:3]([C@@:4]1([H:15])[C:5]([H:16])([H:17])[C@:6]1([O:7][H:19])[H:18])([H:13])[H:14])([H:11])[H:12])([H:8])([H:9])[H:10]>>[C:1]([C:2]([C:3]([C@@:4]([C:5]([H:16])([H:17])[H:18])([C:6][O:7][H:19])[H:15])([H:13])[H:14])([H:11])[H:12])([H:8])([H:9])[H:10]"
C       -2.76214105       0.11462074      -0.25117745
C       -1.39989490       0.56705211       0.25617461
C       -0.34139839      -0.52735147       0.15638265
C        1.00676965      -0.07635160       0.67636149
C        2.21567218      -0.91789657       0.38188560
C        1.87481464       0.81633270      -0.16992981
O        1.49074731       0.81276097      -1.48071487
H       -2.71309230      -0.16943024      -1.30536509
H       -3.12366196      -0.75240474       0.30780156
H       -3.50748906       0.90615950      -0.15414976
H       -1.48610368       0.89320962       1.29822672
H       -1.06498842       1.44012936      -0.31170164
H       -0.24962098      -0.85083194      -0.88379280
H       -0.66286237      -1.40303435       0.73026876
H        0.96834312       0.26567695       1.70908269
H        2.14147145      -1.59205546      -0.46477857
H        2.74024557      -1.32262061       1.24037174
H        3.03545554       0.18106199       0.14000539
H        1.83773364       1.61497304      -1.87495123
19
Frame=7 idx=011039 GeodesicLength=0.3203068367651107 rxn_smarts="[C:1]([C:2]([C:3]([C@@:4]1([H:15])[C:5]([H:16])([H:17])[C@:6]1([O:7][H:19])[H:18])([H:13])[H:14])([H:11])[H:12])([H:8])([H:9])[H:10]>>[C:1]([C:2]([C:3]([C@@:4]([C:5]([H:16])([H:17])[H:18])([C:6][O:7][H:19])[H:15])([H:13])[H:14])([H:11])[H:12])([H:8])([H:9])[H:10]"
C       -2.76029791       0.11377886      -0.25143054
C       -1.39781638       0.56754523       0.25410068
C       -0.33878483      -0.52654923       0.15567613
C        1.00969533      -0.07313691       0.67236235
C        2.21761879      -0.92096528       0.38281816
C        1.88143452       0.80795970      -0.18060725
O        1.49368755       0.81275151      -1.48862305
H       -2.71199099      -0.17174628      -1.30525013
H       -3.12083345      -0.75260450       0.30914228
H       -3.50591198       0.90512922      -0.15486377
H       -1.48361602       0.89560075       1.29559292
H       -1.06394546       1.44003850      -0.31545944
H       -0.24867705      -0.85283941      -0.88386118
H       -0.65826777      -1.40094976       0.73259073
H        0.97379530       0.27766520       1.70227365
H        2.14064487      -1.59820658      -0.46151840
H        2.71997989      -1.34044234       1.24747404
H        3.05337577       0.17836223       0.15747799
H        1.79990983       1.63860911      -1.86789517
19
Frame=8 idx=011039 GeodesicLength=0.36607697460769817 rxn_smarts="[C:1]([C:2]([C:3]([C@@:4]1([H:15])[C:5]([H:16])([H:17])[C@:6]1([O:7][H:19])[H:18])([H:13])[H:14])([H:11])[H:12])([H:8])([H:9])[H:10]>>[C:1]([C:2]([C:3]([C@@:4]([C:5]([H:16])([H:17])[H:18])([C:6][O:7][H:19])[H:15])([H:13])[H:14])([H:11])[H:12])([H:8])([H:9])[H:10]"
C       -2.75839824       0.11297409      -0.25167342
C       -1.39568702       0.56806992       0.25206006
C       -0.33607989      -0.52565733       0.15482500
C        1.01271141      -0.06982790       0.66819640
C        2.21968830      -0.92391383       0.38371720
C        1.88816479       0.79953510      -0.19143765
O        1.49658782       0.81315203      -1.49658784
H       -2.71085206      -0.17389266      -1.30516586
H       -3.11789555      -0.75285437       0.31039671
H       -3.50430756       0.90409516      -0.15544811
H       -1.48106130       0.89787755       1.29304358
H       -1.06291917       1.44008815      -0.31905861
H       -0.24765764      -0.85465335      -0.88410472
H       -0.65351465      -1.39884198       0.73469282
H        0.97937487       0.28975501       1.69521449
H        2.13992588      -1.60414288      -0.45836417
H        2.69935093      -1.35798637       1.25405570
H        3.07104750       0.17593482       0.17574708
H        1.76152159       1.66028883      -1.86010864
19
Frame=9 idx=011039 GeodesicLength=0.41196132206500446 rxn_smarts="[C:1]([C:2]([C:3]([C@@:4]1([H:15])[C:5]([H:16])([H:17])[C@:6]1([O:7][H:19])[H:18])([H:13])[H:14])([H:11])[H:12])([H:8])([H:9])[H:10]>>[C:1]([C:2]([C:3]([C@@:4]([C:5]([H:16])([H:17])[H:18])([C:6][O:7][H:19])[H:15])([H:13])[H:14])([H:11])[H:12])([H:8])([H:9])[H:10]"
C       -2.75646601       0.11218439      -0.25187239
C       -1.39352145       0.56863414       0.25004291
C       -0.33329507      -0.52468473       0.15381704
C        1.01580164      -0.06642679       0.66386636
C        2.22186653      -0.92675773       0.38458026
C        1.89499686       0.79107632      -0.20241563
O        1.49944255       0.81403043      -1.50461183
H       -2.70971979      -0.17594740      -1.30508240
H       -3.11486287      -0.75316312       0.31165810
H       -3.50269806       0.90305374      -0.15588815
H       -1.47843583       0.90008527       1.29057754
H       -1.06193664       1.44028446      -0.32255206
H       -0.24656325      -0.85627751      -0.88455561
H       -0.64861337      -1.39673858       0.73656826
H        0.98505473       0.30194785       1.68792334
H        2.13931200      -1.60988072      -0.45534272
H        2.67834826      -1.37527216       1.26010556
H        3.08843009       0.17378947       0.19482008
H        1.72285967       1.68006268      -1.85163866
19
Frame=10 idx=011039 GeodesicLength=0.4578989751495247 rxn_smarts="[C:1]([C:2]([C:3]([C@@:4]1([H:15])[C:5]([H:16])([H:17])[C@:6]1([O:7][H:19])[H:18])([H:13])[H:14])([H:11])[H:12])([H:8])([H:9])[H:10]>>[C:1]([C:2]([C:3]([C@@:4]([C:5]([H:16])([H:17])[H:18])([C:6][O:7][H:19])[H:15])([H:13])[H:14])([H:11])[H:12])([H:8])([H:9])[H:10]"
C       -2.75449297       0.11142391      -0.25202911
C       -1.39131943       0.56920700       0.24805160
C       -0.33042544      -0.52359706       0.15265175
C        1.01897385      -0.06292739       0.65933053
C        2.22415905      -0.92945371       0.38540400
C        1.90193113       0.78251488      -0.21354285
O        1.50224067       0.81529823      -1.51259819
H       -2.70857657      -0.17782152      -1.30495426
H       -3.11172110      -0.75349671       0.31284165
H       -3.50108351       0.90196503      -0.15615756
H       -1.47574854       0.90214508       1.28814238
H       -1.06099736       1.44055822      -0.32587587
H       -0.24539913      -0.85766212      -0.88514966
H       -0.64354786      -1.39455265       0.73818067
H        0.99084815       0.31423922       1.68028941
H        2.13880545      -1.61535139      -0.45239234
H        2.65695634      -1.39220637       1.26557167
H        3.10549862       0.17188731       0.21466877
H        1.68389865       1.69783003      -1.84243259
19
Frame=11 idx=011039 GeodesicLength=0.5039530190716098 rxn_smarts="[C:1]([C:2]([C:3]([C@@:4]1([H:15])[C:5]([H:16])([H:17])[C@:6]1([O:7][H:19])[H:18])([H:13])[H:14])([H:11])[H:12])([H:8])([H:9])[H:10]>>[C:1]([C:2]([C:3]([C@@:4]([C:5]([H:16])([H:17])[H:18])([C:6][O:7][H:19])[H:15])([H:13])[H:14])([H:11])[H:12])([H:8])([H:9])[H:10]"
C       -2.75251606       0.11065773      -0.25211852
C       -1.38911117       0.56980622       0.24609971
C       -0.32750429      -0.52243681       0.15134700
C        1.02219507      -0.05933977       0.65463390
C        2.22653163      -0.93204128       0.38618632
C        1.90891867       0.77391780      -0.22481465
O        1.50492077       0.81709752      -1.52060509
H       -2.70747249      -0.17962764      -1.30480059
H       -3.10850548      -0.75390795       0.31405790
H       -3.49949510       0.90084262      -0.15625829
H       -1.47301385       0.90412790       1.28580334
H       -1.06014004       1.44096153      -0.32908364
H       -0.24419394      -0.85886769      -0.88593217
H       -0.63835427      -1.39237494       0.73958995
H        0.99672444       0.32662613       1.67242303
H        2.13837064      -1.62061880      -0.44958095
H        2.63524143      -1.40881474       1.27045286
H        3.12218929       0.17026806       0.23525764
H        1.64521476       1.71372409      -1.83265778
19
Frame=12 idx=011039 GeodesicLength=0.5501326605154783 rxn_smarts="[C:1]([C:2]([C:3]([C@@:4]1([H:15])[C:5]([H:16])([H:17])[C@:6]1([O:7][H:19])[H:18])([H:13])[H:14])([H:11])[H:12])([H:8])([H:9])[H:10]>>[C:1]([C:2]([C:3]([C@@:4]([C:5]([H:16])([H:17])[H:18])([C:6][O:7][H:19])[H:15])([H:13])[H:14])([H:11])[H:12])([H:8])([H:9])[H:10]"
C       -2.75052541       0.10989949      -0.25215232
C       -1.38689067       0.57042201       0.24419005
C       -0.32452786      -0.52119842       0.14990957
C        1.02547285      -0.05566917       0.64976586
C        2.22898985      -0.93451862       0.38693958
C        1.91595992       0.76524535      -0.23624103
O        1.50750461       0.81936060      -1.52860748
H       -2.70638626      -0.18132056      -1.30462006
H       -3.10521062      -0.75438125       0.31525876
H       -3.49792400       0.89968504      -0.15619118
H       -1.47023518       0.90600442       1.28354700
H       -1.05935158       1.44147514      -0.33214536
H       -0.24294835      -0.85989337      -0.88687320
H       -0.63303091      -1.39017778       0.74079755
H        1.00269243       0.33911404       1.66428515
H        2.13800573      -1.62569022      -0.44686175
H        2.61321831      -1.42505292       1.27474585
H        3.13848531       0.16890014       0.25655137
H        1.60670183       1.72779609      -1.82229836
19
Frame=13 idx=011039 GeodesicLength=0.5964494605699001 rxn_smarts="[C:1]([C:2]([C:3]([C@@:4]1([H:15])[C:5]([H:16])([H:17])[C@:6]1([O:7][H:19])[H:18])([H:13])[H:14])([H:11])[H:12])([H:8])([H:9])[H:10]>>[C:1]([C:2]([C:3]([C@@:4]([C:5]([H:16])([H:17])[H:18])([C:6][O:7][H:19])[H:15])([H:13])[H:14])([H:11])[H:12])([H:8])([H:9])[H:10]"
C       -2.74853494       0.10913982      -0.25211957
C       -1.38467007       0.57105262       0.24232862
C       -0.32150924      -0.51989305       0.14834513
C        1.02879463      -0.05192165       0.64473409
C        2.23152077      -0.93689514       0.38766944
C        1.92303178       0.75650064      -0.24782279
O        1.50997797       0.82210527      -1.53660408
H       -2.70533679      -0.18291763      -1.30440926
H       -3.10184755      -0.75493039       0.31646612
H       -3.49638350       0.89848919      -0.15594424
H       -1.46741955       0.90778147       1.28138695
H       -1.05864585       1.44210073      -0.33506708
H       -0.24167604      -0.86075294      -0.88797662
H       -0.62759000      -1.38797941       0.74181534
H        1.00873923       0.35170028       1.65589027
H        2.13769859      -1.63058541      -0.44423380
H        2.59091869      -1.44089983       1.27845178
H        3.15435152       0.16778119       0.27851833
H        1.56858037       1.74012427      -1.81142866
19
Frame=14 idx=011039 GeodesicLength=0.6428502309285928 rxn_smarts="[C:1]([C:2]([C:3]([C@@:4]1([H:15])[C:5]([H:16])([H:17])[C@:6]1([O:7][H:19])[H:18])([H:13])[H:14])([H:11])[H:12])([H:8])([H:9])[H:10]>>[C:1]([C:2]([C:3]([C@@:4]([C:5]([H:16])([H:17])[H:18])([C:6][O:7][H:19])[H:15])([H:13])[H:14])([H:11])[H:12])([H:8])([H:9])[H:10]"
C       -2.74656557       0.10836539      -0.25199771
C       -1.38246462       0.57168013       0.24050296
C       -0.31846671      -0.51851590       0.14665560
C        1.03214400      -0.04810838       0.63952644
C        2.23410559      -0.93915749       0.38836587
C        1.93010489       0.74765231      -0.25954806
O        1.51231126       0.82533562      -1.54453253
H       -2.70435669      -0.18445757      -1.30411008
H       -3.09843456      -0.75552765       0.31771681
H       -3.49489080       0.89722815      -0.15551542
H       -1.46456993       0.90945567       1.27927737
H       -1.05804277       1.44278377      -0.33786851
H       -0.24039598      -0.86143652      -0.88921268
H       -0.62205005      -1.38574687       0.74263607
H        1.01485094       0.36436366       1.64719780
H        2.13743019      -1.63527275      -0.44168676
H        2.56839210      -1.45629776       1.28152064
H        3.16975133       0.16689116       0.30111864
H        1.53114739       1.75076504      -1.80004647
19
Frame=15 idx=011039 GeodesicLength=0.6893495603073162 rxn_smarts="[C:1]([C:2]([C:3]([C@@:4]1([H:15])[C:5]([H:16])([H:17])[C@:6]1([O:7][H:19])[H:18])([H:13])[H:14])([H:11])[H:12])([H:8])([H:9])[H:10]>>[C:1]([C:2]([C:3]([C@@:4]([C:5]([H:16])([H:17])[H:18])([C:6][O:7][H:19])[H:15])([H:13])[H:14])([H:11])[H:12])([H:8])([H:9])[H:10]"
C       -2.74462530       0.10757960      -0.25179282
C       -1.38028804       0.57230508       0.23874701
C       -0.31541454      -0.51709389       0.14485990
C        1.03550697      -0.04423686       0.63416822
C        2.23673826      -0.94132033       0.38904535
C        1.93714307       0.73872923      -0.27142184
O        1.51450201       0.82903390      -1.55242536
H       -2.70344208      -0.18589335      -1.30377000
H       -3.09498356      -0.75622029       0.31897584
H       -3.49345618       0.89591843      -0.15487575
H       -1.46171241       0.91100853       1.27728824
H       -1.05754462       1.44356000      -0.34050839
H       -0.23912539      -0.86197856      -0.89059167
H       -0.61642520      -1.38353544       0.74328853
H        1.02100955       0.37709506       1.63826333
H        2.13719743      -1.63980234      -0.43921280
H        2.54569221      -1.47121546       1.28400120
H        3.18465659       0.16624297       0.32430077
H        1.49457124       1.75982370      -1.78833975
19
Frame=16 idx=011039 GeodesicLength=0.7358936653588793 rxn_smarts="[C:1]([C:2]([C:3]([C@@:4]1([H:15])[C:5]([H:16])([H:17])[C@:6]1([O:7][H:19])[H:18])([H:13])[H:14])([H:11])[H:12])([H:8])([H:9])[H:10]>>[C:1]([C:2]([C:3]([C@@:4]([C:5]([H:16])([H:17])[H:18])([C:6][O:7][H:19])[H:15])([H:13])[H:14])([H:11])[H:12])([H:8])([H:9])[H:10]"
C       -2.74273429       0.10677274      -0.25149241
C       -1.37815799       0.57291302       0.23706295
C       -0.31237440      -0.51563743       0.14297233
C        1.03886439      -0.04032154       0.62866367
C        2.23940177      -0.94337974       0.38970287
C        1.94410510       0.72972022      -0.28343428
O        1.51651870       0.83319357      -1.56024700
H       -2.70261678      -0.18724389      -1.30336402
H       -3.09151755      -0.75700239       0.32026001
H       -3.49209625       0.89454779      -0.15402207
H       -1.45886064       0.91243397       1.27540899
H       -1.05716574       1.44439751      -0.34299139
H       -0.23788857      -0.86239323      -0.89208811
H       -0.61073866      -1.38134182       0.74378813
H        1.02719780       0.38986873       1.62908359
H        2.13698265      -1.64416922      -0.43680534
H        2.52289065      -1.48560264       1.28587882
H        3.19903875       0.16582478       0.34800794
H        1.45915106       1.76741955      -1.77638468
