16
Frame=0 idx=005041 GeodesicLength=0.0 rxn_smarts="[C:1]1([H:7])([H:8])[C:2]([H:9])([H:10])[C:3]12[C:4]([H:11])([H:12])[C:5]([H:13])([H:14])[C:6]2([H:15])[H:16]>>[C:1]1([H:7])([H:8])[C:2]([H:9])([H:10])[C:3]1=[C:4]([H:11])[H:12].[C:5](=[C:6]([H:15])[H:16])([H:13])[H:14]"
C       -1.41929910       0.27993698       0.70153777
C       -1.40366807      -0.10118446      -0.76998297
C       -0.20389116      -0.29429881       0.07766615
C        0.42028159      -1.52046557       0.40046909
C        1.57891272       0.15904643      -0.04104867
C        0.89530709       1.36805020      -0.33510424
H       -1.92811496      -0.37589714       1.39784631
H       -1.46911649       1.33454877       0.92580464
H       -1.44280812       0.71242605      -1.47818268
H       -1.90167541      -1.01432163      -1.07312905
H        0.66066154      -2.23415172      -0.37421881
H        0.65210266      -1.76386323       1.42732151
H        2.07091157      -0.35912081      -0.85207157
H        2.09087982       0.07931627       0.90734213
H        0.69208275       1.64084933      -1.35782236
H        0.70743357       2.08912934       0.44357277
16
Frame=1 idx=005041 GeodesicLength=0.08494746025657765 rxn_smarts="[C:1]1([H:7])([H:8])[C:2]([H:9])([H:10])[C:3]12[C:4]([H:11])([H:12])[C:5]([H:13])([H:14])[C:6]2([H:15])[H:16]>>[C:1]1([H:7])([H:8])[C:2]([H:9])([H:10])[C:3]1=[C:4]([H:11])[H:12].[C:5](=[C:6]([H:15])[H:16])([H:13])[H:14]"
C       -1.42984734       0.27401998       0.70462104
C       -1.41936588      -0.10566596      -0.76713094
C       -0.21649309      -0.29813395       0.07552208
C        0.42460728      -1.51627309       0.39557628
C        1.59670528       0.16357865      -0.03892545
C        0.90274003       1.36598687      -0.33798977
H       -1.94119585      -0.38033256       1.40046960
H       -1.47619408       1.32834933       0.93211553
H       -1.45748604       0.70754616      -1.47621954
H       -1.92324224      -1.01597285      -1.06908520
H        0.65608411      -2.23353926      -0.37908154
H        0.64136541      -1.77069139       1.42341849
H        2.10178685      -0.34881309      -0.84606875
H        2.10498083       0.09253791       0.91261970
H        0.71339765       1.64026845      -1.36363229
H        0.72215710       2.09713482       0.43379077
16
Frame=2 idx=005041 GeodesicLength=0.16998208578741067 rxn_smarts="[C:1]1([H:7])([H:8])[C:2]([H:9])([H:10])[C:3]12[C:4]([H:11])([H:12])[C:5]([H:13])([H:14])[C:6]2([H:15])[H:16]>>[C:1]1([H:7])([H:8])[C:2]([H:9])([H:10])[C:3]1=[C:4]([H:11])[H:12].[C:5](=[C:6]([H:15])[H:16])([H:13])[H:14]"
C       -1.44065425       0.26800158       0.70785695
C       -1.43558691      -0.11020687      -0.76412124
C       -0.22949427      -0.30203371       0.07330084
C        0.42892803      -1.51175065       0.39032938
C        1.61508135       0.16824179      -0.03646237
C        0.91031620       1.36355446      -0.34108472
H       -1.95439388      -0.38485794       1.40334879
H       -1.48340962       1.32203193       0.93858887
H       -1.47277178       0.70262549      -1.47407319
H       -1.94536048      -1.01764940      -1.06479244
H        0.65149743      -2.23247671      -0.38431650
H        0.63046674      -1.77783348       1.41871344
H        2.13364722      -0.33819767      -0.83929740
H        2.11916774       0.10623975       0.91841948
H        0.73538186       1.63912963      -1.36960881
H        0.73718461       2.10518179       0.42319894
16
Frame=3 idx=005041 GeodesicLength=0.2551050656593799 rxn_smarts="[C:1]1([H:7])([H:8])[C:2]([H:9])([H:10])[C:3]12[C:4]([H:11])([H:12])[C:5]([H:13])([H:14])[C:6]2([H:15])[H:16]>>[C:1]1([H:7])([H:8])[C:2]([H:9])([H:10])[C:3]1=[C:4]([H:11])[H:12].[C:5](=[C:6]([H:15])[H:16])([H:13])[H:14]"
C       -1.45173159       0.26188169       0.71125298
C       -1.45235395      -0.11480422      -0.76094426
C       -0.24291820      -0.30600519       0.07100319
C        0.43323149      -1.50687580       0.38471266
C        1.63406392       0.17304030      -0.03363284
C        0.91805432       1.36071948      -0.34439783
H       -1.96771814      -0.38947266       1.40649549
H       -1.49076372       1.31559571       0.94523182
H       -1.48868680       0.69766899      -1.47173238
H       -1.96805474      -1.01934700      -1.06023834
H        0.64692121      -2.23091966      -0.38995634
H        0.61943358      -1.78528648       1.41315089
H        2.16651900      -0.32726139      -0.83170471
H        2.13343250       0.12044308       0.92476721
H        0.75805192       1.63737869      -1.37574578
H        0.75251920       2.11324445       0.41173824
16
Frame=4 idx=005041 GeodesicLength=0.3403173715075421 rxn_smarts="[C:1]1([H:7])([H:8])[C:2]([H:9])([H:10])[C:3]12[C:4]([H:11])([H:12])[C:5]([H:13])([H:14])[C:6]2([H:15])[H:16]>>[C:1]1([H:7])([H:8])[C:2]([H:9])([H:10])[C:3]1=[C:4]([H:11])[H:12].[C:5](=[C:6]([H:15])[H:16])([H:13])[H:14]"
C       -1.46309082       0.25566077       0.71481773
C       -1.46969188      -0.11945393      -0.75758885
C       -0.25678989      -0.31005622       0.06863007
C        0.43750461      -1.50162454       0.37870890
C        1.65367641       0.17798023      -0.03040479
C        0.92597652       1.35744490      -0.34793837
H       -1.98117615      -0.39417521       1.40992328
H       -1.49825549       1.30904010       0.95205246
H       -1.50525435       0.69268289      -1.46918360
H       -1.99135263      -1.02105977      -1.05540794
H        0.64237856      -2.22881561      -0.39603962
H        0.60829566      -1.79304911       1.40666468
H        2.20043144      -0.31598904      -0.82322860
H        2.14776240       0.13517220       0.93169309
H        0.78142402       1.63494942      -1.38203919
H        0.76816160       2.12129289       0.39934076
16
Frame=5 idx=005041 GeodesicLength=0.4256196061614802 rxn_smarts="[C:1]1([H:7])([H:8])[C:2]([H:9])([H:10])[C:3]12[C:4]([H:11])([H:12])[C:5]([H:13])([H:14])[C:6]2([H:15])[H:16]>>[C:1]1([H:7])([H:8])[C:2]([H:9])([H:10])[C:3]1=[C:4]([H:11])[H:12].[C:5](=[C:6]([H:15])[H:16])([H:13])[H:14]"
C       -1.47474391       0.24933869       0.71855820
C       -1.48762258      -0.12415213      -0.75404552
C       -0.27113523      -0.31419636       0.06618366
C        0.44173210      -1.49597096       0.37230530
C        1.67394206       0.18306782      -0.02674841
C        0.93410747       1.35369190      -0.35171271
H       -1.99478022      -0.39896384       1.41364217
H       -1.50588442       1.30236378       0.95905712
H       -1.52249334       0.68767394      -1.46641504
H       -2.01527905      -1.02278124      -1.05029016
H        0.63789489      -2.22611086      -0.40260302
H        0.59708735      -1.80110903       1.39919898
H        2.23540204      -0.30436661      -0.81381505
H        2.16215290       0.15044681       0.93921621
H        0.80550998       1.63177757      -1.38848093
H        0.78410995       2.12929053       0.38594920
16
Frame=6 idx=005041 GeodesicLength=0.5110089766279612 rxn_smarts="[C:1]1([H:7])([H:8])[C:2]([H:9])([H:10])[C:3]12[C:4]([H:11])([H:12])[C:5]([H:13])([H:14])[C:6]2([H:15])[H:16]>>[C:1]1([H:7])([H:8])[C:2]([H:9])([H:10])[C:3]1=[C:4]([H:11])[H:12].[C:5](=[C:6]([H:15])[H:16])([H:13])[H:14]"
C       -1.48670500       0.24291567       0.72248017
C       -1.50616846      -0.12889400      -0.75030560
C       -0.28598022      -0.31843462       0.06366606
C        0.44589681      -1.48988538       0.36548862
C        1.69488408       0.18830699      -0.02263501
C        0.94247568       1.34942098      -0.35572263
H       -2.00854283      -0.40383738       1.41766109
H       -1.51365334       1.29556553       0.96625056
H       -1.54042164       0.68264907      -1.46341566
H       -2.03985903      -1.02450411      -1.04487414
H        0.63349608      -2.22274741      -0.40968310
H        0.58585119      -1.80944616       1.39069826
H        2.27144425      -0.29237725      -0.80341105
H        2.17659994       0.16628650       0.94735418
H        0.83031688       1.62779175      -1.39505867
H        0.80036561       2.13718982       0.37150689
16
Frame=7 idx=005041 GeodesicLength=0.5964752955583617 rxn_smarts="[C:1]1([H:7])([H:8])[C:2]([H:9])([H:10])[C:3]12[C:4]([H:11])([H:12])[C:5]([H:13])([H:14])[C:6]2([H:15])[H:16]>>[C:1]1([H:7])([H:8])[C:2]([H:9])([H:10])[C:3]1=[C:4]([H:11])[H:12].[C:5](=[C:6]([H:15])[H:16])([H:13])[H:14]"
C       -1.49898878       0.23639136       0.72658559
C       -1.52534591      -0.13367583      -0.74636424
C       -0.30134929      -0.32277990       0.06108085
C        0.44997985      -1.48333937       0.35825538
C        1.71652228       0.19369941      -0.01804387
C        0.95111198       1.34459435      -0.35996389
H       -2.02248074      -0.40879483       1.42198255
H       -1.52156844       1.28864368       0.97363313
H       -1.55904961       0.67761468      -1.46017840
H       -2.06511006      -1.02622230      -1.03915555
H        0.62920916      -2.21867140      -0.41730590
H        0.57463119      -1.81802581       1.38112387
H        2.30855106      -0.28000565      -0.79198075
H        2.19111333       0.18270380       0.95610376
H        0.85584352       1.62293184      -1.40175059
H        0.81693043       2.14493596       0.35597806
16
Frame=8 idx=005041 GeodesicLength=0.6820115072908673 rxn_smarts="[C:1]1([H:7])([H:8])[C:2]([H:9])([H:10])[C:3]12[C:4]([H:11])([H:12])[C:5]([H:13])([H:14])[C:6]2([H:15])[H:16]>>[C:1]1([H:7])([H:8])[C:2]([H:9])([H:10])[C:3]1=[C:4]([H:11])[H:12].[C:5](=[C:6]([H:15])[H:16])([H:13])[H:14]"
C       -1.51161100       0.22976545       0.73087602
C       -1.54517206      -0.13849349      -0.74221611
C       -0.31726735      -0.32724237       0.05843229
C        0.45396100      -1.47629978       0.35060074
C        1.73887661       0.19924708      -0.01295245
C        0.96005126       1.33917279      -0.36442857
H       -2.03661233      -0.41383465       1.42660842
H       -1.52963632       1.28159586       0.98120433
H       -1.57838705       0.67257730      -1.45669556
H       -2.09105208      -1.02792782      -1.03312883
H        0.62505968      -2.21382140      -0.42550256
H        0.56347910      -1.82680822       1.37043490
H        2.34671853      -0.26723691      -0.77948773
H        2.20570333       0.19971413       0.96546427
H        0.88208436       1.61712748      -1.40853591
H        0.83380432       2.15246455       0.33932674
16
Frame=9 idx=005041 GeodesicLength=0.7676084713727115 rxn_smarts="[C:1]1([H:7])([H:8])[C:2]([H:9])([H:10])[C:3]12[C:4]([H:11])([H:12])[C:5]([H:13])([H:14])[C:6]2([H:15])[H:16]>>[C:1]1([H:7])([H:8])[C:2]([H:9])([H:10])[C:3]1=[C:4]([H:11])[H:12].[C:5](=[C:6]([H:15])[H:16])([H:13])[H:14]"
C       -1.52458855       0.22303756       0.73535033
C       -1.56565750      -0.14334416      -0.73785848
C       -0.33375857      -0.33183501       0.05572991
C        0.45781711      -1.46873036       0.34252976
C        1.76196444       0.20495698      -0.00733755
C        0.96933096       1.33311837      -0.36910128
H       -2.05096347      -0.41895275       1.43153558
H       -1.53786701       1.27442016       0.98895919
H       -1.59843285       0.66754076      -1.45296260
H       -2.11769764      -1.02961362      -1.02679422
H        0.62108057      -2.20813390      -0.43429421
H        0.55244698      -1.83574510       1.35860064
H        2.38592018      -0.25405904      -0.76591660
H        2.22039636       0.21731629       0.97541337
H        0.90902689       1.61031465      -1.41538501
H        0.85098212       2.15970915       0.32153118
16
Frame=10 idx=005041 GeodesicLength=0.8532533715048891 rxn_smarts="[C:1]1([H:7])([H:8])[C:2]([H:9])([H:10])[C:3]12[C:4]([H:11])([H:12])[C:5]([H:13])([H:14])[C:6]2([H:15])[H:16]>>[C:1]1([H:7])([H:8])[C:2]([H:9])([H:10])[C:3]1=[C:4]([H:11])[H:12].[C:5](=[C:6]([H:15])[H:16])([H:13])[H:14]"
C       -1.53794364       0.21620529       0.73999697
C       -1.58680583      -0.14822817      -0.73329953
C       -0.35084328      -0.33656475       0.05297870
C        0.46152443      -1.46059619       0.33406418
C        1.78580336       0.21081661      -0.00121085
C        0.97899078       1.32640132      -0.37394994
H       -2.06556374      -0.42415149       1.43674725
H       -1.54628478       1.26711261       0.99688244
H       -1.61918110       0.66250660      -1.44898781
H       -2.14504865      -1.03127816      -1.02016365
H        0.61728715      -2.20156216      -0.44367088
H        0.54159241      -1.84475515       1.34562751
H        2.42610916      -0.24045864      -0.75129259
H        2.23524328       0.23551381       0.98590232
H        0.93664043       1.60245818      -1.42224809
H        0.86848000       2.16658028       0.30262396
16
Frame=11 idx=005041 GeodesicLength=0.9389351823893379 rxn_smarts="[C:1]1([H:7])([H:8])[C:2]([H:9])([H:10])[C:3]12[C:4]([H:11])([H:12])[C:5]([H:13])([H:14])[C:6]2([H:15])[H:16]>>[C:1]1([H:7])([H:8])[C:2]([H:9])([H:10])[C:3]1=[C:4]([H:11])[H:12].[C:5](=[C:6]([H:15])[H:16])([H:13])[H:14]"
C       -1.55170504       0.20926631       0.74479699
C       -1.60861206      -0.15315009      -0.72855450
C       -0.36854028      -0.34143972       0.05019066
C        0.46505685      -1.45185845       0.32524237
C        1.81041056       0.21681324       0.00540527
C        0.98907253       1.31899670      -0.37892620
H       -2.08045736      -0.42943101       1.44221541
H       -1.55492671       1.25967016       1.00494767
H       -1.64061045       0.65746888      -1.44478829
H       -2.17309445      -1.03292466      -1.01326050
H        0.61369565      -2.19406558      -0.45359835
H        0.53097398      -1.85373484       1.33155171
H        2.46721033      -0.22642823      -0.73568935
H        2.25032919       0.25428828       0.99684441
H        0.96488209       1.59354818      -1.42905540
H        0.88631518       2.17298085       0.28267810
16
Frame=12 idx=005041 GeodesicLength=1.024642430474987 rxn_smarts="[C:1]1([H:7])([H:8])[C:2]([H:9])([H:10])[C:3]12[C:4]([H:11])([H:12])[C:5]([H:13])([H:14])[C:6]2([H:15])[H:16]>>[C:1]1([H:7])([H:8])[C:2]([H:9])([H:10])[C:3]1=[C:4]([H:11])[H:12].[C:5](=[C:6]([H:15])[H:16])([H:13])[H:14]"
C       -1.56590167       0.20221805       0.74972932
C       -1.63106699      -0.15811625      -0.72364075
C       -0.38686538      -0.34646868       0.04737978
C        0.46838580      -1.44247572       0.31610909
C        1.83580044       0.22293351       0.01248253
C        0.99961852       1.31088696      -0.38397154
H       -2.09569207      -0.43479055       1.44790852
H       -1.56383349       1.25208932       1.01312571
H       -1.66269478       0.65241975      -1.44038409
H       -2.20182184      -1.03455725      -1.00611072
H        0.61031899      -2.18560365      -0.46403408
H        0.52064883      -1.86258095       1.31641378
H        2.50915040      -0.21196271      -0.71919181
H        2.26575203       0.27361506       1.00814439
H        0.99369801       1.58357890      -1.43573626
H        0.90450320       2.17881422       0.26177614
16
Frame=13 idx=005041 GeodesicLength=1.110363435883096 rxn_smarts="[C:1]1([H:7])([H:8])[C:2]([H:9])([H:10])[C:3]12[C:4]([H:11])([H:12])[C:5]([H:13])([H:14])[C:6]2([H:15])[H:16]>>[C:1]1([H:7])([H:8])[C:2]([H:9])([H:10])[C:3]1=[C:4]([H:11])[H:12].[C:5](=[C:6]([H:15])[H:16])([H:13])[H:14]"
C       -1.58057636       0.19505706       0.75475516
C       -1.65414484      -0.16314291      -0.71859394
C       -0.40583067      -0.35165827       0.04456668
C        0.47147986      -1.43240333       0.30674599
C        1.86199044       0.22915092       0.01994951
C        1.01067085       1.30206837      -0.38899539
H       -2.11133951      -0.44022891       1.45377036
H       -1.57307437       1.24436828       1.02136400
H       -1.68538579       0.64733728      -1.43581909
H       -2.23119157      -1.03619440      -0.99876470
H        0.60716020      -2.17616247      -0.47487136
H        0.51067407      -1.87114263       1.30032119
H        2.55180408      -0.19706272      -0.70198571
H        2.28167505       0.29343107       1.01963755
H        1.02300956       1.57261381      -1.44217430
H        0.92307898       2.18396886       0.24009405
16
Frame=14 idx=005041 GeodesicLength=1.1960962448656192 rxn_smarts="[C:1]1([H:7])([H:8])[C:2]([H:9])([H:10])[C:3]12[C:4]([H:11])([H:12])[C:5]([H:13])([H:14])[C:6]2([H:15])[H:16]>>[C:1]1([H:7])([H:8])[C:2]([H:9])([H:10])[C:3]1=[C:4]([H:11])[H:12].[C:5](=[C:6]([H:15])[H:16])([H:13])[H:14]"
C       -1.59577799       0.18778000       0.75982926
C       -1.67781614      -0.16825152      -0.71345603
C       -0.42544378      -0.35701326       0.04177285
C        0.47430492      -1.42159619       0.29724677
C        1.88900299       0.23542717       0.02771345
C        1.02227086       1.29254810      -0.39388945
H       -2.12747983      -0.44574416       1.45973593
H       -1.58273109       1.23650597       1.02960128
H       -1.70862831       0.64219070      -1.43114618
H       -2.26116134      -1.03785976      -0.99127991
H        0.60421066      -2.16573964      -0.48598129
H        0.50110024      -1.87926008       1.28340358
H        2.59505555      -0.18173352      -0.68429711
H        2.29829259       0.31366764       1.03114866
H        1.05271754       1.56074364      -1.44824635
H        0.94208313       2.18833491       0.21784452
16
Frame=15 idx=005041 GeodesicLength=1.281835907518326 rxn_smarts="[C:1]1([H:7])([H:8])[C:2]([H:9])([H:10])[C:3]12[C:4]([H:11])([H:12])[C:5]([H:13])([H:14])[C:6]2([H:15])[H:16]>>[C:1]1([H:7])([H:8])[C:2]([H:9])([H:10])[C:3]1=[C:4]([H:11])[H:12].[C:5](=[C:6]([H:15])[H:16])([H:13])[H:14]"
C       -1.61157299       0.18038365       0.76488487
C       -1.70203158      -0.17347749      -0.70829176
C       -0.44570669      -0.36253450       0.03902923
C        0.47682283      -1.41000503       0.28775039
C        1.91686577       0.24170758       0.03562798
C        1.03445505       1.28235700      -0.39850531
H       -2.14422455      -0.45133150       1.46571147
H       -1.59292319       1.22850518       1.03774692
H       -1.73234244       0.63692982      -1.42644884
H       -2.29165749      -1.03959709      -0.98374338
H        0.60144865      -2.15436992      -0.49715288
H        0.49197311      -1.88672377       1.26587056
H        2.63874148      -0.16599307      -0.66647679
H        2.31588550       0.33420047       1.04242038
H        1.08269100       1.54815328      -1.45377851
H        0.96157553       2.19179539       0.19535567
16
Frame=16 idx=005041 GeodesicLength=1.3675913878751673 rxn_smarts="[C:1]1([H:7])([H:8])[C:2]([H:9])([H:10])[C:3]12[C:4]([H:11])([H:12])[C:5]([H:13])([H:14])[C:6]2([H:15])[H:16]>>[C:1]1([H:7])([H:8])[C:2]([H:9])([H:10])[C:3]1=[C:4]([H:11])[H:12].[C:5](=[C:6]([H:15])[H:16])([H:13])[H:14]"
C       -1.62803850       0.17286553       0.76984516
C       -1.72673650      -0.17886543      -0.70317765
C       -0.46661770      -0.36822045       0.03637003
C        0.47899174      -1.39757925       0.27841570
C        1.94561769       0.24792333       0.04351603
C        1.04725573       1.27154367      -0.40267084
H       -2.16170112      -0.45698387       1.47159033
H       -1.60379269       1.22037187       1.04569622
H       -1.75644143       0.63149090      -1.42182716
H       -2.32259733      -1.04146202      -0.97625572
H        0.59884115      -2.14210824      -0.50813489
H        0.48332743      -1.89330913       1.24797223
H        2.68271066      -0.14987051      -0.64894327
H        2.33478515       0.35487634       1.05317115
H        1.11277407       1.53507991      -1.45858213
H        0.98162163       2.19424735       0.17301482
