16
Frame=0 idx=006605 GeodesicLength=0.0 rxn_smarts="[C:1]([C@@:2]([O:3][H:12])([C:4]([N:5]([C:6](=[O:7])[H:16])[H:15])([H:13])[H:14])[H:11])([H:8])([H:9])[H:10]>>[C-:2](=[O+:3][H:12])[C:4]([N:5]([C:6](=[O:7])[H:16])[H:15])([H:13])[H:14].[C:1]([H:8])([H:9])([H:10])[H:11]"
C       -1.38849733      -1.25690082      -0.62950331
C       -0.66431316       0.78811654      -0.50518834
O       -1.80765577       1.43854860      -0.21284532
C        0.16955562       0.64635497       0.73628883
N        1.28764511      -0.24846273       0.57781830
C        2.54803785       0.18499957       0.33571416
O        2.88612733       1.34147879       0.25836000
H       -0.70914562      -2.07617720      -0.86473687
H       -2.27427639      -1.27986265      -1.26275678
H       -1.66642616      -1.24135973       0.41988853
H       -0.73569995      -0.18651168      -1.21682680
H       -2.19041523       1.77743765      -1.02535665
H        0.57648700       1.64115382       0.93258441
H       -0.42374183       0.36133431       1.61452405
H        1.13081907      -1.23930343       0.62071245
H        3.26149941      -0.65084607       0.22132337
16
Frame=1 idx=006605 GeodesicLength=0.0842925716522145 rxn_smarts="[C:1]([C@@:2]([O:3][H:12])([C:4]([N:5]([C:6](=[O:7])[H:16])[H:15])([H:13])[H:14])[H:11])([H:8])([H:9])[H:10]>>[C-:2](=[O+:3][H:12])[C:4]([N:5]([C:6](=[O:7])[H:16])[H:15])([H:13])[H:14].[C:1]([H:8])([H:9])([H:10])[H:11]"
C       -1.40552891      -1.27282602      -0.63122566
C       -0.66618747       0.76816102      -0.49325365
O       -1.79038636       1.45741374      -0.21844748
C        0.16853332       0.64067520       0.74881035
N        1.29527424      -0.24294342       0.58581157
C        2.55079297       0.20095716       0.34111629
O        2.87049240       1.36053392       0.23160100
H       -0.72695538      -2.09579664      -0.85633447
H       -2.28556847      -1.29776836      -1.27248818
H       -1.69954538      -1.26593521       0.41433114
H       -0.73638034      -0.21202396      -1.22649199
H       -2.13031828       1.83546077      -1.03330930
H        0.55954737       1.64074963       0.95160913
H       -0.41666681       0.34663421       1.62902231
H        1.14398401      -1.23504762       0.61962959
H        3.26891309      -0.62824443       0.20961935
16
Frame=2 idx=006605 GeodesicLength=0.1681991705027529 rxn_smarts="[C:1]([C@@:2]([O:3][H:12])([C:4]([N:5]([C:6](=[O:7])[H:16])[H:15])([H:13])[H:14])[H:11])([H:8])([H:9])[H:10]>>[C-:2](=[O+:3][H:12])[C:4]([N:5]([C:6](=[O:7])[H:16])[H:15])([H:13])[H:14].[C:1]([H:8])([H:9])([H:10])[H:11]"
C       -1.42333981      -1.28852609      -0.63317490
C       -0.66940893       0.74827570      -0.48041469
O       -1.77235246       1.47683509      -0.22378422
C        0.16767536       0.63505078       0.76112802
N        1.30289561      -0.23709230       0.59221268
C        2.55301679       0.21752599       0.34319138
O        2.85402706       1.37937651       0.20366838
H       -0.74545856      -2.11497331      -0.84821657
H       -2.29735864      -1.31574434      -1.28266913
H       -1.73380457      -1.29075738       0.40811280
H       -0.73794798      -0.23736866      -1.23605551
H       -2.06716537       1.89079741      -1.03935052
H        0.54282496       1.64008698       0.97029477
H       -0.40842507       0.33168951       1.64370630
H        1.15736924      -1.23037058       0.61728323
H        3.27745237      -0.60480529       0.20406798
16
Frame=3 idx=006605 GeodesicLength=0.2517530112291743 rxn_smarts="[C:1]([C@@:2]([O:3][H:12])([C:4]([N:5]([C:6](=[O:7])[H:16])[H:15])([H:13])[H:14])[H:11])([H:8])([H:9])[H:10]>>[C-:2](=[O+:3][H:12])[C:4]([N:5]([C:6](=[O:7])[H:16])[H:15])([H:13])[H:14].[C:1]([H:8])([H:9])([H:10])[H:11]"
C       -1.44172443      -1.30401350      -0.63522651
C       -0.67377572       0.72845418      -0.46655479
O       -1.75323674       1.49687197      -0.22935737
C        0.16683978       0.62961213       0.77359711
N        1.31035682      -0.23084745       0.59781855
C        2.55461814       0.23466488       0.34309349
O        2.83687943       1.39809899       0.17606284
H       -0.76440353      -2.13377920      -0.83989622
H       -2.30919301      -1.33388052      -1.29348079
H       -1.76936154      -1.31567830       0.40121254
H       -0.73993879      -0.26266710      -1.24530510
H       -2.00065643       1.94293281      -1.04434191
H        0.52616886       1.63930111       0.98903438
H       -0.39940973       0.31679225       1.65878712
H        1.17076864      -1.22520576       0.61459711
H        3.28606823      -0.58065650       0.19995954
16
Frame=4 idx=006605 GeodesicLength=0.33509469089341454 rxn_smarts="[C:1]([C@@:2]([O:3][H:12])([C:4]([N:5]([C:6](=[O:7])[H:16])[H:15])([H:13])[H:14])[H:11])([H:8])([H:9])[H:10]>>[C-:2](=[O+:3][H:12])[C:4]([N:5]([C:6](=[O:7])[H:16])[H:15])([H:13])[H:14].[C:1]([H:8])([H:9])([H:10])[H:11]"
C       -1.46060949      -1.31927288      -0.63731807
C       -0.67925194       0.70875731      -0.45156553
O       -1.73279975       1.51761755      -0.23541899
C        0.16598255       0.62444183       0.78640589
N        1.31761091      -0.22418236       0.60293930
C        2.55555980       0.25231315       0.34122897
O        2.81923957       1.41685363       0.14980931
H       -0.78370421      -2.15225398      -0.83115530
H       -2.32087102      -1.35218609      -1.30500547
H       -1.80629241      -1.34061252       0.39362228
H       -0.74215497      -0.28794514      -1.25413235
H       -1.93085365       1.99134895      -1.04888292
H        0.50952473       1.63848478       1.00807633
H       -0.38972334       0.30208387       1.67442836
H        1.18410617      -1.21954588       0.61195484
H        3.29423706      -0.55590221       0.19501335
16
Frame=5 idx=006605 GeodesicLength=0.41799607230191865 rxn_smarts="[C:1]([C@@:2]([O:3][H:12])([C:4]([N:5]([C:6](=[O:7])[H:16])[H:15])([H:13])[H:14])[H:11])([H:8])([H:9])[H:10]>>[C-:2](=[O+:3][H:12])[C:4]([N:5]([C:6](=[O:7])[H:16])[H:15])([H:13])[H:14].[C:1]([H:8])([H:9])([H:10])[H:11]"
C       -1.48002691      -1.33421439      -0.63956334
C       -0.68591299       0.68913967      -0.43520618
O       -1.71086274       1.53884865      -0.24175818
C        0.16509698       0.61934486       0.79961546
N        1.32458373      -0.21714087       0.60743423
C        2.55575650       0.27053329       0.33772559
O        2.80035294       1.43559431       0.12246709
H       -0.80339816      -2.17016586      -0.82217381
H       -2.33235244      -1.37055641      -1.31732885
H       -1.84464032      -1.36566032       0.38505881
H       -0.74462562      -0.31304239      -1.26239136
H       -1.85734694       2.03628164      -1.05253971
H        0.49297640       1.63735781       1.02759710
H       -0.37930796       0.28727019       1.69059681
H        1.19733287      -1.21339939       0.60911977
H        3.30237467      -0.53019080       0.19134659
16
Frame=6 idx=006605 GeodesicLength=0.5007822397460048 rxn_smarts="[C:1]([C@@:2]([O:3][H:12])([C:4]([N:5]([C:6](=[O:7])[H:16])[H:15])([H:13])[H:14])[H:11])([H:8])([H:9])[H:10]>>[C-:2](=[O+:3][H:12])[C:4]([N:5]([C:6](=[O:7])[H:16])[H:15])([H:13])[H:14].[C:1]([H:8])([H:9])([H:10])[H:11]"
C       -1.49993137      -1.34880635      -0.64186712
C       -0.69376888       0.66976377      -0.41738934
O       -1.68714178       1.56077728      -0.24866120
C        0.16419048       0.61449651       0.81339005
N        1.33128396      -0.20968123       0.61153332
C        2.55520480       0.28922719       0.33270501
O        2.78079170       1.45453146       0.09626819
H       -0.82344801      -2.18760630      -0.81275620
H       -2.34350572      -1.38895545      -1.33046751
H       -1.88443305      -1.39068534       0.37560766
H       -0.74719287      -0.33796753      -1.27001934
H       -1.78067301       2.07673183      -1.05627285
H        0.47649924       1.63614245       1.04780314
H       -0.36815165       0.27259813       1.70751557
H        1.21041938      -1.20677478       0.60642601
H        3.30985678      -0.50379164       0.18618462
16
Frame=7 idx=006605 GeodesicLength=0.583468732125839 rxn_smarts="[C:1]([C@@:2]([O:3][H:12])([C:4]([N:5]([C:6](=[O:7])[H:16])[H:15])([H:13])[H:14])[H:11])([H:8])([H:9])[H:10]>>[C-:2](=[O+:3][H:12])[C:4]([N:5]([C:6](=[O:7])[H:16])[H:15])([H:13])[H:14].[C:1]([H:8])([H:9])([H:10])[H:11]"
C       -1.52032522      -1.36296614      -0.64425107
C       -0.70289009       0.65068637      -0.39788791
O       -1.66135141       1.58332047      -0.25612111
C        0.16325247       0.60983557       0.82785718
N        1.33766944      -0.20180737       0.61524417
C        2.55382392       0.30842928       0.32622779
O        2.76028539       1.47372750       0.07062751
H       -0.84386393      -2.20446204      -0.80290888
H       -2.35422309      -1.40728281      -1.34448438
H       -1.92573053      -1.41567930       0.36512108
H       -0.74979824      -0.36260525      -1.27687649
H       -1.70075727       2.11238722      -1.06026161
H        0.46011465       1.63473980       1.06891638
H       -0.35621090       0.25794943       1.72527355
H        1.22333172      -1.19966895       0.60381570
H        3.31667308      -0.47660378       0.17970809
16
Frame=8 idx=006605 GeodesicLength=0.6662729261644229 rxn_smarts="[C:1]([C@@:2]([O:3][H:12])([C:4]([N:5]([C:6](=[O:7])[H:16])[H:15])([H:13])[H:14])[H:11])([H:8])([H:9])[H:10]>>[C-:2](=[O+:3][H:12])[C:4]([N:5]([C:6](=[O:7])[H:16])[H:15])([H:13])[H:14].[C:1]([H:8])([H:9])([H:10])[H:11]"
C       -1.54121672      -1.37665129      -0.64671984
C       -0.71340230       0.63200402      -0.37650974
O       -1.63323417       1.60643154      -0.26419344
C        0.16227034       0.60534310       0.84313894
N        1.34371152      -0.19353197       0.61854327
C        2.55152525       0.32815579       0.31824932
O        2.73867893       1.49327908       0.04540985
H       -0.86464886      -2.22070825      -0.79264143
H       -2.36443202      -1.42548051      -1.35942054
H       -1.96854615      -1.44064861       0.35352614
H       -0.75243379      -0.38686594      -1.28288230
H       -1.61754499       2.14296191      -1.06476002
H        0.44381789       1.63312987       1.09114522
H       -0.34340308       0.24326131       1.74401238
H        1.23606767      -1.19211794       0.60122457
H        3.32279048      -0.44856209       0.17187762
16
Frame=9 idx=006605 GeodesicLength=0.7489589024015073 rxn_smarts="[C:1]([C@@:2]([O:3][H:12])([C:4]([N:5]([C:6](=[O:7])[H:16])[H:15])([H:13])[H:14])[H:11])([H:8])([H:9])[H:10]>>[C-:2](=[O+:3][H:12])[C:4]([N:5]([C:6](=[O:7])[H:16])[H:15])([H:13])[H:14].[C:1]([H:8])([H:9])([H:10])[H:11]"
C       -1.56266672      -1.38975049      -0.64928767
C       -0.72540429       0.61365507      -0.35304082
O       -1.60243290       1.62975005      -0.27286593
C        0.16123137       0.60085711       0.85926251
N        1.34931171      -0.18482780       0.62133163
C        2.54813768       0.34852197       0.30872751
O        2.71544554       1.51322370       0.01959049
H       -0.88589267      -2.23609310      -0.78193058
H       -2.37407932      -1.44345740      -1.37525363
H       -2.01294140      -1.46559184       0.34055503
H       -0.75510405      -0.41064393      -1.28779103
H       -1.53048693       2.16830353      -1.06955734
H        0.42766659       1.63107692       1.11458740
H       -0.32966127       0.22832554       1.76364453
H        1.24854968      -1.18405300       0.59847785
H        3.32832698      -0.41929635       0.16355005
16
Frame=10 idx=006605 GeodesicLength=0.8320212172365226 rxn_smarts="[C:1]([C@@:2]([O:3][H:12])([C:4]([N:5]([C:6](=[O:7])[H:16])[H:15])([H:13])[H:14])[H:11])([H:8])([H:9])[H:10]>>[C-:2](=[O+:3][H:12])[C:4]([N:5]([C:6](=[O:7])[H:16])[H:15])([H:13])[H:14].[C:1]([H:8])([H:9])([H:10])[H:11]"
C       -1.58462600      -1.40219072      -0.65193635
C       -0.73900424       0.59589218      -0.32730147
O       -1.56862281       1.65323969      -0.28229647
C        0.16012151       0.59646187       0.87639912
N        1.35444280      -0.17570225       0.62367492
C        2.54356141       0.36949336       0.29762261
O        2.69067755       1.53369891      -0.00601825
H       -0.90754040      -2.25064870      -0.77073355
H       -2.38299914      -1.46111971      -1.39205255
H       -2.05889193      -1.49042090       0.32620172
H       -0.75772847      -0.43382511      -1.29156947
H       -1.43982761       2.18766960      -1.07517692
H        0.41162057       1.62869981       1.13948665
H       -0.31490696       0.21321279       1.78440264
H        1.26075909      -1.17552553       0.59563095
H        3.33296463      -0.38893531       0.15366640
16
Frame=11 idx=006605 GeodesicLength=0.915644296569485 rxn_smarts="[C:1]([C@@:2]([O:3][H:12])([C:4]([N:5]([C:6](=[O:7])[H:16])[H:15])([H:13])[H:14])[H:11])([H:8])([H:9])[H:10]>>[C-:2](=[O+:3][H:12])[C:4]([N:5]([C:6](=[O:7])[H:16])[H:15])([H:13])[H:14].[C:1]([H:8])([H:9])([H:10])[H:11]"
C       -1.60709185      -1.41382500      -0.65466153
C       -0.75426940       0.57884915      -0.29910927
O       -1.53140562       1.67654722      -0.29256339
C        0.15891319       0.59208388       0.89464876
N        1.35902959      -0.16614386       0.62558658
C        2.53762513       0.39114067       0.28491248
O        2.66402705       1.55477794      -0.03172561
H       -0.92960938      -2.26421323      -0.75892460
H       -2.39100169      -1.47834095      -1.40986923
H       -2.10646634      -1.51500147       0.31026902
H       -0.76020816      -0.45628439      -1.29404975
H       -1.34532012       2.20052249      -1.08162151
H        0.39566705       1.62589862       1.16601556
H       -0.29910796       0.19780678       1.80632011
H        1.27263594      -1.16651507       0.59259777
H        3.33658255      -0.35730279       0.14217462
16
Frame=12 idx=006605 GeodesicLength=1.000344550765019 rxn_smarts="[C:1]([C@@:2]([O:3][H:12])([C:4]([N:5]([C:6](=[O:7])[H:16])[H:15])([H:13])[H:14])[H:11])([H:8])([H:9])[H:10]>>[C-:2](=[O+:3][H:12])[C:4]([N:5]([C:6](=[O:7])[H:16])[H:15])([H:13])[H:14].[C:1]([H:8])([H:9])([H:10])[H:11]"
C       -1.63003169      -1.42450994      -0.65746430
C       -0.77121817       0.56278332      -0.26838261
O       -1.49045409       1.69930527      -0.30374588
C        0.15760255       0.58771763       0.91410545
N        1.36301417      -0.15616906       0.62708116
C        2.53016886       0.41348250       0.27057871
O        2.63527595       1.57655817      -0.05749622
H       -0.95211155      -2.27671527      -0.74638543
H       -2.39788367      -1.49501314      -1.42876827
H       -2.15564772      -1.53914353       0.29263526
H       -0.76244685      -0.47792475      -1.29519257
H       -1.24700153       2.20627256      -1.08891423
H        0.37979195       1.62269744       1.19433243
H       -0.28219918       0.18207753       1.82948374
H        1.28413168      -1.15707053       0.58929480
H        3.33900929      -0.32434820       0.12883795
16
Frame=13 idx=006605 GeodesicLength=1.085886633464989 rxn_smarts="[C:1]([C@@:2]([O:3][H:12])([C:4]([N:5]([C:6](=[O:7])[H:16])[H:15])([H:13])[H:14])[H:11])([H:8])([H:9])[H:10]>>[C-:2](=[O+:3][H:12])[C:4]([N:5]([C:6](=[O:7])[H:16])[H:15])([H:13])[H:14].[C:1]([H:8])([H:9])([H:10])[H:11]"
C       -1.65350669      -1.43390638      -0.66028100
C       -0.78974549       0.54773350      -0.23528081
O       -1.44553383       1.72049709      -0.31588004
C        0.15618991       0.58315731       0.93452751
N        1.36633973      -0.14568452       0.62805907
C        2.52105501       0.43666039       0.25465583
O        2.60411060       1.59901420      -0.08364129
H       -0.97519003      -2.28762888      -0.73272901
H       -2.40351826      -1.51095655      -1.44856422
H       -2.20650019      -1.56240268       0.27294649
H       -0.76435868      -0.49870885      -1.29474589
H       -1.14458134       2.20426708      -1.09627936
H        0.36402294       1.61874283       1.22419451
H       -0.26422306       0.16583870       1.85337371
H        1.29516455      -1.14696175       0.58549264
H        3.34027482      -0.28966148       0.11415186
16
Frame=14 idx=006605 GeodesicLength=1.1732803903785272 rxn_smarts="[C:1]([C@@:2]([O:3][H:12])([C:4]([N:5]([C:6](=[O:7])[H:16])[H:15])([H:13])[H:14])[H:11])([H:8])([H:9])[H:10]>>[C-:2](=[O+:3][H:12])[C:4]([N:5]([C:6](=[O:7])[H:16])[H:15])([H:13])[H:14].[C:1]([H:8])([H:9])([H:10])[H:11]"
C       -1.67735741      -1.44182903      -0.66316719
C       -0.80952963       0.53423451      -0.20013058
O       -1.39682741       1.73963099      -0.32875002
C        0.15478930       0.57857182       0.95586514
N        1.36903756      -0.13478611       0.62858768
C        2.51032051       0.46047689       0.23733626
O        2.57075428       1.62206358      -0.10972506
H       -0.99881859      -2.29700680      -0.71782207
H       -2.40759054      -1.52611129      -1.46935231
H       -2.25881984      -1.58436121       0.25116521
H       -0.76572577      -0.51863136      -1.29303236
H       -1.03946963       2.19404918      -1.10352195
H        0.34845428       1.61434121       1.25549147
H       -0.24512749       0.14934607       1.87800106
H        1.30569158      -1.13637375       0.58121032
H        3.34021880      -0.25361469       0.09784440
16
Frame=15 idx=006605 GeodesicLength=1.262896427242791 rxn_smarts="[C:1]([C@@:2]([O:3][H:12])([C:4]([N:5]([C:6](=[O:7])[H:16])[H:15])([H:13])[H:14])[H:11])([H:8])([H:9])[H:10]>>[C-:2](=[O+:3][H:12])[C:4]([N:5]([C:6](=[O:7])[H:16])[H:15])([H:13])[H:14].[C:1]([H:8])([H:9])([H:10])[H:11]"
C       -1.70148514      -1.44798210      -0.66614285
C       -0.83005925       0.52257657      -0.16354797
O       -1.34485361       1.75583290      -0.34199276
C        0.15352552       0.57396428       0.97778570
N        1.37120869      -0.12351465       0.62870579
C        2.49813361       0.48479774       0.21892928
O        2.53540951       1.64544700      -0.13579471
H       -1.02308783      -2.30460985      -0.70128340
H       -2.40983434      -1.54043190      -1.49102764
H       -2.31247312      -1.60438640       0.22708378
H       -0.76628785      -0.53784432      -1.29028660
H       -0.93304613       2.17556794      -1.10978236
H        0.33320087       1.60951059       1.28774779
H       -0.22502053       0.13273043       1.90288705
H        1.31570708      -1.12530934       0.57639377
H        3.33896252      -0.21634887       0.08032511
16
Frame=16 idx=006605 GeodesicLength=1.355138622357529 rxn_smarts="[C:1]([C@@:2]([O:3][H:12])([C:4]([N:5]([C:6](=[O:7])[H:16])[H:15])([H:13])[H:14])[H:11])([H:8])([H:9])[H:10]>>[C-:2](=[O+:3][H:12])[C:4]([N:5]([C:6](=[O:7])[H:16])[H:15])([H:13])[H:14].[C:1]([H:8])([H:9])([H:10])[H:11]"
C       -1.72572817      -1.45217442      -0.66927090
C       -0.85070707       0.51300858      -0.12632332
O       -1.29056520       1.76846395      -0.35513328
C        0.15254505       0.56941235       0.99992583
N        1.37303483      -0.11196123       0.62854319
C        2.48482898       0.50938008       0.19987351
O        2.49850152       1.66879474      -0.16184513
H       -1.04806547      -2.31035393      -0.68282513
H       -2.41001848      -1.55399818      -1.51344276
H       -2.36716460      -1.62190724       0.20058720
H       -0.76575363      -0.55665184      -1.28693850
H       -0.82714665       2.14943070      -1.11417794
H        0.31837578       1.60440567       1.32037688
H       -0.20408757       0.11625607       1.92759250
H        1.32526823      -1.11385824       0.57115195
H        3.33668245      -0.17824706       0.06190591
