11
Frame=0 idx=001097 GeodesicLength=0.0 rxn_smarts="[C:1]([c:2]1[c:3]([H:10])[c:4]([H:11])[n:5][o:6]1)([H:7])([H:8])[H:9]>>[C:1]([C:2]([C@@:3]1([H:10])[C:4]([H:11])=[N:5]1)=[O:6])([H:7])([H:8])[H:9]"
C       -1.72821932       0.06288661       0.17252139
C       -0.34129186      -0.51610832      -0.05757886
C        0.70401312       0.44267244      -0.23460986
C        2.08164729       0.08362742       0.05920203
N        2.26713320      -1.12127776      -0.12592721
O       -0.15881294      -1.71989908       0.00647735
H       -1.98796452      -0.08401300       1.22185962
H       -1.79645597       1.12465317      -0.05969048
H       -2.44406308      -0.49303129      -0.43148635
H        0.53844795       1.38476373      -0.74378721
H        2.86556609       0.83572611       0.19301962
11
Frame=1 idx=001097 GeodesicLength=0.0688786257591248 rxn_smarts="[C:1]([c:2]1[c:3]([H:10])[c:4]([H:11])[n:5][o:6]1)([H:7])([H:8])[H:9]>>[C:1]([C:2]([C@@:3]1([H:10])[C:4]([H:11])=[N:5]1)=[O:6])([H:7])([H:8])[H:9]"
C       -1.73015924       0.06056434       0.17295104
C       -0.33578380      -0.50417865      -0.02940828
C        0.70841053       0.44732548      -0.24278056
C        2.07955959       0.08365565       0.06685344
N        2.23568337      -1.11703901      -0.17646011
O       -0.13308836      -1.70695839       0.05026871
H       -2.01273237      -0.09756655       1.21470152
H       -1.80148935       1.12385151      -0.05167239
H       -2.42789976      -0.49336112      -0.45399004
H        0.54023473       1.38536477      -0.75767360
H        2.87726465       0.81834198       0.20721026
11
Frame=2 idx=001097 GeodesicLength=0.13787217640575838 rxn_smarts="[C:1]([c:2]1[c:3]([H:10])[c:4]([H:11])[n:5][o:6]1)([H:7])([H:8])[H:9]>>[C:1]([C:2]([C@@:3]1([H:10])[C:4]([H:11])=[N:5]1)=[O:6])([H:7])([H:8])[H:9]"
C       -1.73182697       0.05805257       0.17378873
C       -0.33017345      -0.49124832      -0.00126833
C        0.71259684       0.45194504      -0.25136406
C        2.07774864       0.08352063       0.07127232
N        2.20344726      -1.11231157      -0.21902200
O       -0.10795660      -1.69283789       0.09124747
H       -2.03728633      -0.11398850       1.20682250
H       -1.80664877       1.12324530      -0.04087392
H       -2.41050434      -0.49230355      -0.47709667
H        0.54150897       1.38568175      -0.77223807
H        2.88909475       0.80024454       0.21873203
11
Frame=3 idx=001097 GeodesicLength=0.20694935862696015 rxn_smarts="[C:1]([c:2]1[c:3]([H:10])[c:4]([H:11])[n:5][o:6]1)([H:7])([H:8])[H:9]>>[C:1]([C:2]([C@@:3]1([H:10])[C:4]([H:11])=[N:5]1)=[O:6])([H:7])([H:8])[H:9]"
C       -1.73328924       0.05535126       0.17482441
C       -0.32446123      -0.47722608       0.02726215
C        0.71653956       0.45660363      -0.25981635
C        2.07615291       0.08327947       0.07342664
N        2.17069448      -1.10726788      -0.25613325
O       -0.08340187      -1.67751456       0.13060799
H       -2.06181865      -0.13271869       1.19790937
H       -1.81212576       1.12259117      -0.02811331
H       -2.39173317      -0.49013844      -0.50076998
H        0.54231432       1.38572982      -0.78705206
H        2.90112866       0.78131029       0.22785440
11
Frame=4 idx=001097 GeodesicLength=0.2761745483686376 rxn_smarts="[C:1]([c:2]1[c:3]([H:10])[c:4]([H:11])[n:5][o:6]1)([H:7])([H:8])[H:9]>>[C:1]([C:2]([C@@:3]1([H:10])[C:4]([H:11])=[N:5]1)=[O:6])([H:7])([H:8])[H:9]"
C       -1.73449790       0.05247714       0.17598124
C       -0.31870027      -0.46211952       0.05603166
C        0.72021396       0.46126816      -0.26815134
C        2.07465769       0.08300356       0.07387485
N        2.13748324      -1.10215840      -0.28858887
O       -0.05947927      -1.66107037       0.16865017
H       -2.08600226      -0.15355668       1.18789013
H       -1.81802482       1.12185614      -0.01367771
H       -2.37158980      -0.48690687      -0.52478854
H        0.54268862       1.38552340      -0.80207145
H        2.91325080       0.76168344       0.23484985
11
Frame=5 idx=001097 GeodesicLength=0.34543681074772253 rxn_smarts="[C:1]([c:2]1[c:3]([H:10])[c:4]([H:11])[n:5][o:6]1)([H:7])([H:8])[H:9]>>[C:1]([C:2]([C@@:3]1([H:10])[C:4]([H:11])=[N:5]1)=[O:6])([H:7])([H:8])[H:9]"
C       -1.73546610       0.04943213       0.17715704
C       -0.31290281      -0.44592163       0.08491616
C        0.72359555       0.46597664      -0.27620747
C        2.07321221       0.08268836       0.07302204
N        2.10396039      -1.09696592      -0.31749050
O       -0.03613859      -1.64353846       0.20583031
H       -2.10963981      -0.17606236       1.17672718
H       -1.82453258       1.12086460       0.00187587
H       -2.35020284      -0.48282396      -0.54886803
H        0.54268749       1.38516243      -0.81703220
H        2.92542710       0.74118816       0.24006960
11
Frame=6 idx=001097 GeodesicLength=0.41488102365062085 rxn_smarts="[C:1]([c:2]1[c:3]([H:10])[c:4]([H:11])[n:5][o:6]1)([H:7])([H:8])[H:9]>>[C:1]([C:2]([C@@:3]1([H:10])[C:4]([H:11])=[N:5]1)=[O:6])([H:7])([H:8])[H:9]"
C       -1.73608904       0.04623131       0.17833354
C       -0.30715724      -0.42874094       0.11336735
C        0.72667780       0.47067331      -0.28422579
C        2.07167266       0.08236613       0.07113487
N        2.07010373      -1.09180319      -0.34298924
O       -0.01342667      -1.62500287       0.24205021
H       -2.13202212      -0.20002198       1.16451891
H       -1.83165436       1.11957393       0.01837047
H       -2.32781605      -0.47790089      -0.57257619
H        0.54237643       1.38466070      -0.83205337
H        2.93733486       0.71996449       0.24406926
11
Frame=7 idx=001097 GeodesicLength=0.4844427836031562 rxn_smarts="[C:1]([c:2]1[c:3]([H:10])[c:4]([H:11])[n:5][o:6]1)([H:7])([H:8])[H:9]>>[C:1]([C:2]([C@@:3]1([H:10])[C:4]([H:11])=[N:5]1)=[O:6])([H:7])([H:8])[H:9]"
C       -1.73636930       0.04288686       0.17948138
C       -0.30151216      -0.41070448       0.14088009
C        0.72944823       0.47534855      -0.29229699
C        2.06997329       0.08205589       0.06848466
N        2.03606269      -1.08661713      -0.36555365
O        0.00869071      -1.60553422       0.27729492
H       -2.15264093      -0.22502556       1.15147645
H       -1.83945807       1.11787059       0.03542768
H       -2.30481776      -0.47228694      -0.59549036
H        0.54182602       1.38406498      -0.84714702
H        2.94879727       0.69794146       0.24744283
11
Frame=8 idx=001097 GeodesicLength=0.5542518286561673 rxn_smarts="[C:1]([c:2]1[c:3]([H:10])[c:4]([H:11])[n:5][o:6]1)([H:7])([H:8])[H:9]>>[C:1]([C:2]([C@@:3]1([H:10])[C:4]([H:11])=[N:5]1)=[O:6])([H:7])([H:8])[H:9]"
C       -1.73623695       0.03942209       0.18062350
C       -0.29605232      -0.39195976       0.16687538
C        0.73192152       0.47995693      -0.30064949
C        2.06801511       0.08179842       0.06531741
N        2.00194983      -1.08138847      -0.38527959
O        0.03021186      -1.58524502       0.31130975
H       -2.17096727      -0.25080314       1.13783438
H       -1.84787337       1.11570692       0.05289725
H       -2.28163091      -0.46603074      -0.61718587
H        0.54112123       1.38335620      -0.86252812
H        2.95954128       0.67518657       0.25078539
11
Frame=9 idx=001097 GeodesicLength=0.6242805979945844 rxn_smarts="[C:1]([c:2]1[c:3]([H:10])[c:4]([H:11])[n:5][o:6]1)([H:7])([H:8])[H:9]>>[C:1]([C:2]([C@@:3]1([H:10])[C:4]([H:11])=[N:5]1)=[O:6])([H:7])([H:8])[H:9]"
C       -1.73589577       0.03590032       0.18182443
C       -0.29062782      -0.37269745       0.19170542
C        0.73417034       0.48450547      -0.30915555
C        2.06607482       0.08164174       0.06147612
N        1.96779122      -1.07617594      -0.40259509
O        0.05134974      -1.56425229       0.34430963
H       -2.18789485      -0.27737219       1.12363641
H       -1.85679199       1.11312567       0.07087535
H       -2.25837435      -0.45895936      -0.63793739
H        0.54021619       1.38232892      -0.87833610
H        2.96998247       0.65195510       0.25419677
11
Frame=10 idx=001097 GeodesicLength=0.6944656465311481 rxn_smarts="[C:1]([c:2]1[c:3]([H:10])[c:4]([H:11])[n:5][o:6]1)([H:7])([H:8])[H:9]>>[C:1]([C:2]([C@@:3]1([H:10])[C:4]([H:11])=[N:5]1)=[O:6])([H:7])([H:8])[H:9]"
C       -1.73519965       0.03231348       0.18305991
C       -0.28543260      -0.35300708       0.21456131
C        0.73618157       0.48894696      -0.31807667
C        2.06385727       0.08162177       0.05745821
N        1.93389988      -1.07087788      -0.41757429
O        0.07195513      -1.54265828       0.37585395
H       -2.20221737      -0.30426999       1.10924321
H       -1.86620616       1.11004834       0.08903466
H       -2.23557553      -0.45129560      -0.65717456
H        0.53924401       1.38106960      -0.89468283
H        2.97949347       0.62810869       0.25829711
11
Frame=11 idx=001097 GeodesicLength=0.7646888188175867 rxn_smarts="[C:1]([c:2]1[c:3]([H:10])[c:4]([H:11])[n:5][o:6]1)([H:7])([H:8])[H:9]>>[C:1]([C:2]([C@@:3]1([H:10])[C:4]([H:11])=[N:5]1)=[O:6])([H:7])([H:8])[H:9]"
C       -1.73419160       0.02869008       0.18434618
C       -0.28042586      -0.33301852       0.23550407
C        0.73799465       0.49326992      -0.32739440
C        2.06141694       0.08176852       0.05327538
N        1.90044513      -1.06544419      -0.43049139
O        0.09208723      -1.52055365       0.40596925
H       -2.21407711      -0.33137319       1.09481334
H       -1.87602862       1.10649705       0.10733211
H       -2.21341869      -0.44301200      -0.67498677
H        0.53821536       1.37949170      -0.91163399
H        2.98798255       0.60368427       0.26326622
11
Frame=12 idx=001097 GeodesicLength=0.8350373983292239 rxn_smarts="[C:1]([c:2]1[c:3]([H:10])[c:4]([H:11])[n:5][o:6]1)([H:7])([H:8])[H:9]>>[C:1]([C:2]([C@@:3]1([H:10])[C:4]([H:11])=[N:5]1)=[O:6])([H:7])([H:8])[H:9]"
C       -1.73287484       0.02505246       0.18570083
C       -0.27562262      -0.31281787       0.25446460
C        0.73963234       0.49743336      -0.33720093
C        2.05874541       0.08210561       0.04898026
N        1.86752232      -1.05986980      -0.44146783
O        0.11175820      -1.49804130       0.43452496
H       -2.22335672      -0.35855218       1.08047487
H       -1.88616388       1.10248269       0.12580920
H       -2.19209791      -0.43408295      -0.69134584
H        0.53715059       1.37750157      -0.92934516
H        2.99530712       0.57878842       0.26940504
11
Frame=13 idx=001097 GeodesicLength=0.9053676063811387 rxn_smarts="[C:1]([c:2]1[c:3]([H:10])[c:4]([H:11])[n:5][o:6]1)([H:7])([H:8])[H:9]>>[C:1]([C:2]([C@@:3]1([H:10])[C:4]([H:11])=[N:5]1)=[O:6])([H:7])([H:8])[H:9]"
C       -1.73129309       0.02144186       0.18715345
C       -0.27097909      -0.29252182       0.27155436
C        0.74112346       0.50139928      -0.34749878
C        2.05592627       0.08268253       0.04457302
N        1.83528483      -1.05413200      -0.45073540
O        0.13103009      -1.47520603       0.46156290
H       -2.23039447      -0.38575894       1.06632089
H       -1.89648988       1.09804453       0.14453607
H       -2.17174333      -0.42444280      -0.70638637
H        0.53602688       1.37497181      -0.94790921
H        3.00150833       0.55352156       0.27682907
11
Frame=14 idx=001097 GeodesicLength=0.9758254994161997 rxn_smarts="[C:1]([c:2]1[c:3]([H:10])[c:4]([H:11])[n:5][o:6]1)([H:7])([H:8])[H:9]>>[C:1]([C:2]([C@@:3]1([H:10])[C:4]([H:11])=[N:5]1)=[O:6])([H:7])([H:8])[H:9]"
C       -1.72944043       0.01787356       0.18872666
C       -0.26647375      -0.27213441       0.28688548
C        0.74250271       0.50514985      -0.35833432
C        2.05298002       0.08350498       0.04001021
N        1.80373889      -1.04825515      -0.45848187
O        0.14994062      -1.45211255       0.48704032
H       -2.23517840      -0.41290376       1.05239727
H       -1.90694565       1.09318472       0.16353306
H       -2.15239909      -0.41409392      -0.72014528
H        0.53483676       1.37184227      -0.96739934
H        3.00643833       0.52794439       0.28576780
11
Frame=15 idx=001097 GeodesicLength=1.0463384086407035 rxn_smarts="[C:1]([c:2]1[c:3]([H:10])[c:4]([H:11])[n:5][o:6]1)([H:7])([H:8])[H:9]>>[C:1]([C:2]([C@@:3]1([H:10])[C:4]([H:11])=[N:5]1)=[O:6])([H:7])([H:8])[H:9]"
C       -1.72735341       0.01437938       0.19044352
C       -0.26205678      -0.25171128       0.30060200
C        0.74379305       0.50865307      -0.36971640
C        2.04998629       0.08460059       0.03523872
N        1.77295063      -1.04225351      -0.46491144
O        0.16854671      -1.42882067       0.51101010
H       -2.23800158      -0.43997121       1.03872708
H       -1.91742534       1.08793641       0.18288124
H       -2.13410506      -0.40298365      -0.73273245
H        0.53355103       1.36800752      -0.98787620
H        3.01011445       0.50216335       0.29633382
11
Frame=16 idx=001097 GeodesicLength=1.1169189638685542 rxn_smarts="[C:1]([c:2]1[c:3]([H:10])[c:4]([H:11])[n:5][o:6]1)([H:7])([H:8])[H:9]>>[C:1]([C:2]([C@@:3]1([H:10])[C:4]([H:11])=[N:5]1)=[O:6])([H:7])([H:8])[H:9]"
C       -1.72504123       0.01098679       0.19232833
C       -0.25769068      -0.23128568       0.31280014
C        0.74502025       0.51186983      -0.38169161
C        2.04698655       0.08598275       0.03021120
N        1.74295877      -1.03615237      -0.47019948
O        0.18688993      -1.40538510       0.53346143
H       -2.23900426      -0.46691406       1.02531766
H       -1.92783245       1.08232074       0.20264708
H       -2.11690683      -0.39108715      -0.74418352
H        0.53214426       1.36338233      -1.00939838
H        3.01247568       0.47628192       0.30870715
