12
Frame=0 idx=007074 GeodesicLength=0.0 rxn_smarts="[O:1]=[C:2]1[N:3]([H:8])[C:4]([H:9])([H:10])[C@@:5]2([H:11])[O:6][C@@:7]12[H:12]>>[O:1]=[C:2]([N+:3](=[C-:4][H:9])[H:8])[C@@:7]1([H:12])[C:5]([H:10])([H:11])[O:6]1"
O        0.93968574       2.22039361       0.64365464
C        0.60392193       1.08970277       0.42072885
N        1.44134487       0.08971160      -0.05268957
C        0.98680123      -1.19507635      -0.34621888
C       -1.07589387      -0.57801634      -0.36085448
O       -1.25719558      -0.54059061       1.01890007
C       -0.84996837       0.66093229       0.35247788
H        2.19296035       0.45222461      -0.62168864
H        0.65193025      -1.69584715       0.56221959
H       -0.12197551      -1.17124709      -1.00144016
H       -1.94311415      -0.80423646      -0.97743119
H       -1.56849685       1.47204912       0.36234185
12
Frame=1 idx=007074 GeodesicLength=0.04794204810260386 rxn_smarts="[O:1]=[C:2]1[N:3]([H:8])[C:4]([H:9])([H:10])[C@@:5]2([H:11])[O:6][C@@:7]12[H:12]>>[O:1]=[C:2]([N+:3](=[C-:4][H:9])[H:8])[C@@:7]1([H:12])[C:5]([H:10])([H:11])[O:6]1"
O        0.93729031       2.22388120       0.63192276
C        0.60164894       1.09121928       0.41836518
N        1.44182671       0.08968493      -0.04835389
C        0.98582134      -1.19225425      -0.34735639
C       -1.07657453      -0.57960309      -0.35925029
O       -1.25337007      -0.53808008       1.02240007
C       -0.85149739       0.66180872       0.35207114
H        2.20618134       0.44994620      -0.60157752
H        0.65736335      -1.70258302       0.55807376
H       -0.12667467      -1.17170513      -1.02326796
H       -1.95099799      -0.80428771      -0.96599784
H       -1.57101732       1.47197295       0.36297097
12
Frame=2 idx=007074 GeodesicLength=0.09587764723500362 rxn_smarts="[O:1]=[C:2]1[N:3]([H:8])[C:4]([H:9])([H:10])[C@@:5]2([H:11])[O:6][C@@:7]12[H:12]>>[O:1]=[C:2]([N+:3](=[C-:4][H:9])[H:8])[C@@:7]1([H:12])[C:5]([H:10])([H:11])[O:6]1"
O        0.93492121       2.22732083       0.61987415
C        0.59939939       1.09270561       0.41603191
N        1.44228602       0.08963661      -0.04400718
C        0.98479092      -1.18942922      -0.34851130
C       -1.07721049      -0.58120006      -0.35762080
O       -1.24954933      -0.53557676       1.02590269
C       -0.85302054       0.66267303       0.35172766
H        2.21910446       0.44754101      -0.58115194
H        0.66298098      -1.70930292       0.55386059
H       -0.13154749      -1.17188655      -1.04516831
H       -1.95863686      -0.80437394      -0.95457604
H       -1.57351827       1.47189236       0.36363857
12
Frame=3 idx=007074 GeodesicLength=0.14378779535319697 rxn_smarts="[O:1]=[C:2]1[N:3]([H:8])[C:4]([H:9])([H:10])[C@@:5]2([H:11])[O:6][C@@:7]12[H:12]>>[O:1]=[C:2]([N+:3](=[C-:4][H:9])[H:8])[C@@:7]1([H:12])[C:5]([H:10])([H:11])[O:6]1"
O        0.93258394       2.23068451       0.60756126
C        0.59717329       1.09415267       0.41374609
N        1.44272238       0.08956781      -0.03965985
C        0.98372451      -1.18660585      -0.34965713
C       -1.07779100      -0.58280378      -0.35596853
O       -1.24574033      -0.53306971       1.02939921
C       -0.85453416       0.66352725       0.35144072
H        2.23167031       0.44501957      -0.56048388
H        0.66878370      -1.71598990       0.54960212
H       -0.13658794      -1.17180678      -1.06712617
H       -1.96601401      -0.80448924      -0.94317933
H       -1.57599068       1.47181343       0.36432549
12
Frame=4 idx=007074 GeodesicLength=0.19170299753496806 rxn_smarts="[O:1]=[C:2]1[N:3]([H:8])[C:4]([H:9])([H:10])[C@@:5]2([H:11])[O:6][C@@:7]12[H:12]>>[O:1]=[C:2]([N+:3](=[C-:4][H:9])[H:8])[C@@:7]1([H:12])[C:5]([H:10])([H:11])[O:6]1"
O        0.93026722       2.23400427       0.59486713
C        0.59497081       1.09557812       0.41148279
N        1.44313875       0.08948026      -0.03529263
C        0.98262238      -1.18377457      -0.35082631
C       -1.07833292      -0.58441837      -0.35428699
O       -1.24192412      -0.53057625       1.03290670
C       -0.85604110       0.66436763       0.35121985
H        2.24397675       0.44236638      -0.53942541
H        0.67476986      -1.72267084       0.54524750
H       -0.14182624      -1.17143304      -1.08918019
H       -1.97317322      -0.80464811      -0.93177699
H       -1.57844816       1.47172451       0.36506456
12
Frame=5 idx=007074 GeodesicLength=0.2396155811324273 rxn_smarts="[O:1]=[C:2]1[N:3]([H:8])[C:4]([H:9])([H:10])[C@@:5]2([H:11])[O:6][C@@:7]12[H:12]>>[O:1]=[C:2]([N+:3](=[C-:4][H:9])[H:8])[C@@:7]1([H:12])[C:5]([H:10])([H:11])[O:6]1"
O        0.92793494       2.23729914       0.58164885
C        0.59278087       1.09699070       0.40922234
N        1.44352611       0.08936781      -0.03088641
C        0.98148401      -1.18092316      -0.35205378
C       -1.07883651      -0.58604021      -0.35256596
O       -1.23807265      -0.52810050       1.03643517
C       -0.85754065       0.66519101       0.35107889
H        2.25609815       0.43954277      -0.51781435
H        0.68093586      -1.72936009       0.54072753
H       -0.14728456      -1.17072430      -1.11136181
H       -1.98012690      -0.80485496      -0.92033134
H       -1.58089868       1.47161179       0.36590088
12
Frame=6 idx=007074 GeodesicLength=0.287546416202683 rxn_smarts="[O:1]=[C:2]1[N:3]([H:8])[C:4]([H:9])([H:10])[C@@:5]2([H:11])[O:6][C@@:7]12[H:12]>>[O:1]=[C:2]([N+:3](=[C-:4][H:9])[H:8])[C@@:7]1([H:12])[C:5]([H:10])([H:11])[O:6]1"
O        0.92560706       2.24055485       0.56793279
C        0.59061488       1.09839014       0.40698035
N        1.44389656       0.08923797      -0.02644531
C        0.98032500      -1.17805569      -0.35331858
C       -1.07930402      -0.58767212      -0.35081064
O       -1.23419568      -0.52564786       1.03998428
C       -0.85903131       0.66599826       0.35101266
H        2.26799748       0.43657083      -0.49569127
H        0.68728574      -1.73605677       0.53606515
H       -0.15297248      -1.16968840      -1.13366998
H       -1.98688425      -0.80511246      -0.90885822
H       -1.58333899       1.47148126       0.36681878
12
Frame=7 idx=007074 GeodesicLength=0.33545125772234397 rxn_smarts="[O:1]=[C:2]1[N:3]([H:8])[C:4]([H:9])([H:10])[C@@:5]2([H:11])[O:6][C@@:7]12[H:12]>>[O:1]=[C:2]([N+:3](=[C-:4][H:9])[H:8])[C@@:7]1([H:12])[C:5]([H:10])([H:11])[O:6]1"
O        0.92328175       2.24374469       0.55374186
C        0.58846852       1.09976563       0.40477379
N        1.44424352       0.08908615      -0.02197278
C        0.97915573      -1.17517489      -0.35460114
C       -1.07971902      -0.58930909      -0.34902213
O       -1.23029356      -0.52320478       1.04354297
C       -0.86050772       0.66679065       0.35101770
H        2.27960475       0.43344730      -0.47310447
H        0.69381900      -1.74274454       0.53127037
H       -0.15887589      -1.16832293      -1.15609318
H       -1.99341823      -0.80541371      -0.89736182
H       -1.58575886       1.47133550       0.36780883
12
Frame=8 idx=007074 GeodesicLength=0.38338695754091384 rxn_smarts="[O:1]=[C:2]1[N:3]([H:8])[C:4]([H:9])([H:10])[C@@:5]2([H:11])[O:6][C@@:7]12[H:12]>>[O:1]=[C:2]([N+:3](=[C-:4][H:9])[H:8])[C@@:7]1([H:12])[C:5]([H:10])([H:11])[O:6]1"
O        0.92093869       2.24690376       0.53888275
C        0.58634169       1.10114220       0.40256364
N        1.44457097       0.08891915      -0.01745062
C        0.97797578      -1.17226205      -0.35595572
C       -1.08010353      -0.59095785      -0.34718612
O       -1.22633459      -0.52079803       1.04713989
C       -0.86197405       0.66756117       0.35111351
H        2.29104984       0.43014120      -0.44980233
H        0.70054221      -1.74945716       0.52626159
H       -0.16504915      -1.16657640      -1.17868671
H       -1.99978150      -0.80577272      -0.88579871
H       -1.58817635       1.47115673       0.36891881
12
Frame=9 idx=007074 GeodesicLength=0.4313394307317513 rxn_smarts="[O:1]=[C:2]1[N:3]([H:8])[C:4]([H:9])([H:10])[C@@:5]2([H:11])[O:6][C@@:7]12[H:12]>>[O:1]=[C:2]([N+:3](=[C-:4][H:9])[H:8])[C@@:7]1([H:12])[C:5]([H:10])([H:11])[O:6]1"
O        0.91853670       2.25003528       0.52319597
C        0.58422512       1.10253390       0.40031934
N        1.44487184       0.08873101      -0.01285655
C        0.97678894      -1.16930122      -0.35742004
C       -1.08045441      -0.59261578      -0.34529086
O       -1.22228370      -0.51843147       1.05078639
C       -0.86342659       0.66830767       0.35131471
H        2.30238836       0.42660980      -0.42559337
H        0.70745582      -1.75620973       0.52095479
H       -0.17152340      -1.16439645      -1.20147536
H       -2.00598253      -0.80619618      -0.87412629
H       -1.59059616       1.47093318       0.37019127
12
Frame=10 idx=007074 GeodesicLength=0.47932247407098844 rxn_smarts="[O:1]=[C:2]1[N:3]([H:8])[C:4]([H:9])([H:10])[C@@:5]2([H:11])[O:6][C@@:7]12[H:12]>>[O:1]=[C:2]([N+:3](=[C-:4][H:9])[H:8])[C@@:7]1([H:12])[C:5]([H:10])([H:11])[O:6]1"
O        0.91609606       2.25312431       0.50666307
C        0.58212847       1.10394186       0.39805015
N        1.44515699       0.08852949      -0.00819574
C        0.97560949      -1.16628981      -0.35898606
C       -1.08077434      -0.59428613      -0.34333841
O       -1.21814506      -0.51611255       1.05448657
C       -0.86486485       0.66902804       0.35162147
H        2.31358431       0.42286062      -0.40046403
H        0.71456646      -1.76300097       0.51535739
H       -0.17831073      -1.16176970      -1.22446604
H       -2.01202931      -0.80669023      -0.86235138
H       -1.59301750       1.47066509       0.37162300
12
Frame=11 idx=007074 GeodesicLength=0.5273163208049108 rxn_smarts="[O:1]=[C:2]1[N:3]([H:8])[C:4]([H:9])([H:10])[C@@:5]2([H:11])[O:6][C@@:7]12[H:12]>>[O:1]=[C:2]([N+:3](=[C-:4][H:9])[H:8])[C@@:7]1([H:12])[C:5]([H:10])([H:11])[O:6]1"
O        0.91363326       2.25613850       0.48929548
C        0.58004729       1.10536028       0.39576855
N        1.44541669       0.08831666      -0.00348135
C        0.97444380      -1.16322884      -0.36064129
C       -1.08104752      -0.59596774      -0.34132621
O       -1.21391098      -0.51382935       1.05822956
C       -0.86628161       0.66972474       0.35202970
H        2.32453100       0.41888946      -0.37442504
H        0.72188248      -1.76981603       0.50947987
H       -0.18539787      -1.15868994      -1.24766381
H       -2.01789246      -0.80725657      -0.85046924
H       -1.59542407       1.47035883       0.37320378
12
Frame=12 idx=007074 GeodesicLength=0.5753298213326962 rxn_smarts="[O:1]=[C:2]1[N:3]([H:8])[C:4]([H:9])([H:10])[C@@:5]2([H:11])[O:6][C@@:7]12[H:12]>>[O:1]=[C:2]([N+:3](=[C-:4][H:9])[H:8])[C@@:7]1([H:12])[C:5]([H:10])([H:11])[O:6]1"
O        0.91110352       2.25906424       0.47094141
C        0.57798718       1.10680839       0.39344571
N        1.44566254       0.08809189       0.00132183
C        0.97330796      -1.16010434      -0.36240952
C       -1.08127362      -0.59766205      -0.33925100
O       -1.20955648      -0.51159747       1.06203113
C       -0.86767170       0.67039386       0.35255148
H        2.33530976       0.41468273      -0.34731291
H        0.72940037      -1.77667397       0.50324692
H       -0.19284922      -1.15510565      -1.27107755
H       -2.02359836      -0.80789981      -0.83845577
H       -1.59782196       1.47000218       0.37496827
12
Frame=13 idx=007074 GeodesicLength=0.6233702754853921 rxn_smarts="[O:1]=[C:2]1[N:3]([H:8])[C:4]([H:9])([H:10])[C@@:5]2([H:11])[O:6][C@@:7]12[H:12]>>[O:1]=[C:2]([N+:3](=[C-:4][H:9])[H:8])[C@@:7]1([H:12])[C:5]([H:10])([H:11])[O:6]1"
O        0.90855270       2.26185551       0.45172155
C        0.57595249       1.10828078       0.39108700
N        1.44589777       0.08787315       0.00615467
C        0.97221312      -1.15692274      -0.36426421
C       -1.08144695      -0.59937365      -0.33711395
O       -1.20509059      -0.50940108       1.06588463
C       -0.86903238       0.67103951       0.35316902
H        2.34580430       0.41025906      -0.31920310
H        0.73713913      -1.78353834       0.49671419
H       -0.20066552      -1.15105549      -1.29469828
H       -2.02912567      -0.80862441      -0.82633113
H       -1.60019840       1.46960771       0.37687961
12
Frame=14 idx=007074 GeodesicLength=0.671424771278356 rxn_smarts="[O:1]=[C:2]1[N:3]([H:8])[C:4]([H:9])([H:10])[C@@:5]2([H:11])[O:6][C@@:7]12[H:12]>>[O:1]=[C:2]([N+:3](=[C-:4][H:9])[H:8])[C@@:7]1([H:12])[C:5]([H:10])([H:11])[O:6]1"
O        0.90601717       2.26444501       0.43185107
C        0.57395214       1.10976434       0.38871877
N        1.44613343       0.08766860       0.01098835
C        0.97117752      -1.15370579      -0.36613622
C       -1.08154742      -0.60110419      -0.33492804
O       -1.20054052      -0.50721777       1.06976943
C       -0.87035551       0.67166879       0.35385524
H        2.35587415       0.40567987      -0.29033791
H        0.74510073      -1.79037399       0.48997492
H       -0.20884066      -1.14660012      -1.31848666
H       -2.03444019      -0.80942102      -0.81414238
H       -1.60253084       1.46919626       0.37887343
12
Frame=15 idx=007074 GeodesicLength=0.7194865142937251 rxn_smarts="[O:1]=[C:2]1[N:3]([H:8])[C:4]([H:9])([H:10])[C@@:5]2([H:11])[O:6][C@@:7]12[H:12]>>[O:1]=[C:2]([N+:3](=[C-:4][H:9])[H:8])[C@@:7]1([H:12])[C:5]([H:10])([H:11])[O:6]1"
O        0.90353090       2.26678139       0.41152707
C        0.57199366       1.11124880       0.38635962
N        1.44638134       0.08748520       0.01579999
C        0.97021618      -1.15047402      -0.36796402
C       -1.08156049      -0.60285700      -0.33270443
O       -1.19593168      -0.50502857       1.07366912
C       -0.87163560       0.67228675       0.35458499
H        2.36541231       0.40099869      -0.26093641
H        0.75328591      -1.79715123       0.48311549
H       -0.21737207      -1.14178959      -1.34241422
H       -2.03951753      -0.81028414      -0.80192974
H       -1.60480291       1.46878372       0.38089253
12
Frame=16 idx=007074 GeodesicLength=0.7675485677722397 rxn_smarts="[O:1]=[C:2]1[N:3]([H:8])[C:4]([H:9])([H:10])[C@@:5]2([H:11])[O:6][C@@:7]12[H:12]>>[O:1]=[C:2]([N+:3](=[C-:4][H:9])[H:8])[C@@:7]1([H:12])[C:5]([H:10])([H:11])[O:6]1"
O        0.90112247       2.26882739       0.39092387
C        0.57008350       1.11272461       0.38402646
N        1.44665334       0.08732629       0.02057741
C        0.96934134      -1.14724773      -0.36969040
C       -1.08147388      -0.60463520      -0.33045363
O       -1.19128858      -0.50281850       1.07756910
C       -0.87286829       0.67289682       0.35533677
H        2.37433560       0.39626430      -0.23120384
H        0.76169250      -1.80384740       0.47621564
H       -0.22625821      -1.13666378      -1.36645942
H       -2.04433798      -0.81120903      -0.78973047
H       -1.60700182       1.46838222       0.38288852
