10
Frame=0 idx=005279 GeodesicLength=0.0 rxn_smarts="[c:1]1([H:7])[c:2]([H:8])[n:3][n:4][c:5]([H:9])[c:6]1[H:10]>>[C:1]1([H:7])=[C:6]([H:10])[C@:5]2([H:9])[C@@:2]1([H:8])[N:3]=[N:4]2"
C        0.81391603       0.96690557       0.12994069
C        1.00615784      -0.40216837      -0.28239371
N        0.89911269      -1.33483724       0.71463700
N       -0.37077158      -1.54776333       0.59755543
C       -0.95301018      -0.49468217      -0.13372943
C       -0.53488447       0.89715943       0.04310857
H        1.48093530       1.67038482       0.60089722
H        0.85259276      -0.73652091      -1.30988945
H       -1.93891015      -0.71740330      -0.52735818
H       -1.25513824       1.69892550       0.16723186
10
Frame=1 idx=005279 GeodesicLength=0.04591615117834142 rxn_smarts="[c:1]1([H:7])[c:2]([H:8])[n:3][n:4][c:5]([H:9])[c:6]1[H:10]>>[C:1]1([H:7])=[C:6]([H:10])[C@:5]2([H:9])[C@@:2]1([H:8])[N:3]=[N:4]2"
C        0.80756604       0.96301636       0.13264840
C        1.00547946      -0.40504531      -0.27876687
N        0.88828482      -1.34692791       0.71178891
N       -0.38348746      -1.54771478       0.60398056
C       -0.95386620      -0.49269149      -0.13467001
C       -0.54193433       0.89744344       0.05872902
H        1.48354459       1.68148288       0.56660136
H        0.89115843      -0.73607999      -1.31170129
H       -1.93692917      -0.71361139      -0.53672195
H       -1.25981618       1.70012819       0.18811187
10
Frame=2 idx=005279 GeodesicLength=0.09178269948948653 rxn_smarts="[c:1]1([H:7])[c:2]([H:8])[n:3][n:4][c:5]([H:9])[c:6]1[H:10]>>[C:1]1([H:7])=[C:6]([H:10])[C@:5]2([H:9])[C@@:2]1([H:8])[N:3]=[N:4]2"
C        0.80117886       0.95891199       0.13595234
C        1.00462779      -0.40799600      -0.27518290
N        0.87712825      -1.35957729       0.70822145
N       -0.39645523      -1.54783969       0.61009343
C       -0.95489462      -0.49052457      -0.13526600
C       -0.54894075       0.89759556       0.07506399
H        1.48518743       1.69235402       0.53038425
H        0.93154993      -0.73499805      -1.31241639
H       -1.93507036      -0.70932981      -0.54581557
H       -1.26431130       1.70140384       0.20896540
10
Frame=3 idx=005279 GeodesicLength=0.1375677411008414 rxn_smarts="[c:1]1([H:7])[c:2]([H:8])[n:3][n:4][c:5]([H:9])[c:6]1[H:10]>>[C:1]1([H:7])=[C:6]([H:10])[C@:5]2([H:9])[C@@:2]1([H:8])[N:3]=[N:4]2"
C        0.79479146       0.95459578       0.13984853
C        1.00357636      -0.41100650      -0.27175513
N        0.86570198      -1.37279661       0.70378019
N       -0.40960847      -1.54813776       0.61591195
C       -0.95611235      -0.48816366      -0.13542235
C       -0.55587121       0.89761632       0.09214690
H        1.48566610       1.70279163       0.49239135
H        0.97380834      -0.73319678      -1.31194065
H       -1.93337741      -0.70453513      -0.55447345
H       -1.26857480       1.70283271       0.22951266
10
Frame=4 idx=005279 GeodesicLength=0.18323653904887016 rxn_smarts="[c:1]1([H:7])[c:2]([H:8])[n:3][n:4][c:5]([H:9])[c:6]1[H:10]>>[C:1]1([H:7])=[C:6]([H:10])[C@:5]2([H:9])[C@@:2]1([H:8])[N:3]=[N:4]2"
C        0.78844353       0.95007953       0.14426786
C        1.00229004      -0.41406161      -0.26863881
N        0.85407995      -1.38657215       0.69829448
N       -0.42286106      -1.54859063       0.62148054
C       -0.95754125      -0.48559320      -0.13503175
C       -0.56269085       0.89750938       0.10999412
H        1.48478217       1.71255428       0.45289496
H        1.01795451      -0.73061121      -1.31018877
H       -1.93190350      -0.69922038      -0.56250588
H       -1.27255356       1.70450598       0.24943324
10
Frame=5 idx=005279 GeodesicLength=0.2287566621553092 rxn_smarts="[c:1]1([H:7])[c:2]([H:8])[n:3][n:4][c:5]([H:9])[c:6]1[H:10]>>[C:1]1([H:7])=[C:6]([H:10])[C@:5]2([H:9])[C@@:2]1([H:8])[N:3]=[N:4]2"
C        0.78217073       0.94537954       0.14905686
C        1.00072538      -0.41715090      -0.26602276
N        0.84232959      -1.40085051       0.69160308
N       -0.43612387      -1.54915367       0.62686464
C       -0.95921023      -0.48279974      -0.13399751
C       -0.56936623       0.89728283       0.12857332
H        1.48236359       1.72139941       0.41225397
H        1.06401472      -0.72720982      -1.30706720
H       -1.93070800      -0.69339543      -0.56973324
H       -1.27619569       1.70649830       0.26846885
10
Frame=6 idx=005279 GeodesicLength=0.27409654205708905 rxn_smarts="[c:1]1([H:7])[c:2]([H:8])[n:3][n:4][c:5]([H:9])[c:6]1[H:10]>>[C:1]1([H:7])=[C:6]([H:10])[C@:5]2([H:9])[C@@:2]1([H:8])[N:3]=[N:4]2"
C        0.77598787       0.94058846       0.15376390
C        0.99881599      -0.42024986      -0.26424514
N        0.83058289      -1.41547889       0.68352799
N       -0.44923155      -1.54971134       0.63223201
C       -0.96115423      -0.47978401      -0.13221317
C       -0.57587220       0.89698632       0.14770095
H        1.47828744       1.72896204       0.37139024
H        1.11193759      -0.72307070      -1.30257287
H       -1.92990145      -0.68714987      -0.57584563
H       -1.27945237       1.70890786       0.28626173
10
Frame=7 idx=005279 GeodesicLength=0.31926812033664315 rxn_smarts="[c:1]1([H:7])[c:2]([H:8])[n:3][n:4][c:5]([H:9])[c:6]1[H:10]>>[C:1]1([H:7])=[C:6]([H:10])[C@:5]2([H:9])[C@@:2]1([H:8])[N:3]=[N:4]2"
C        0.76990144       0.93568886       0.15816603
C        0.99649382      -0.42337594      -0.26355827
N        0.81889444      -1.43040963       0.67390453
N       -0.46208884      -1.55023633       0.63766899
C       -0.96343201      -0.47655648      -0.12958166
C       -0.58219504       0.89662700       0.16732292
H        1.47254746       1.73515221       0.33079552
H        1.16176334      -0.71817067      -1.29660732
H       -1.92959192      -0.68052954      -0.58064433
H       -1.28229270       1.71181052       0.30253358
10
Frame=8 idx=005279 GeodesicLength=0.36415051809448257 rxn_smarts="[c:1]1([H:7])[c:2]([H:8])[n:3][n:4][c:5]([H:9])[c:6]1[H:10]>>[C:1]1([H:7])=[C:6]([H:10])[C@:5]2([H:9])[C@@:2]1([H:8])[N:3]=[N:4]2"
C        0.76383927       0.93085115       0.16136907
C        0.99364043      -0.42649122      -0.26441267
N        0.80731995      -1.44523591       0.66269277
N       -0.47455170      -1.55045065       0.64339673
C       -0.96610277      -0.47314295      -0.12614594
C       -0.58834160       0.89629909       0.18685812
H        1.46533759       1.73965325       0.29170467
H        1.21349547      -0.71281552      -1.28907640
H       -1.92992972      -0.67375863      -0.58390842
H       -1.28470692       1.71509139       0.31752205
10
Frame=9 idx=005279 GeodesicLength=0.40882578034446343 rxn_smarts="[c:1]1([H:7])[c:2]([H:8])[n:3][n:4][c:5]([H:9])[c:6]1[H:10]>>[C:1]1([H:7])=[C:6]([H:10])[C@:5]2([H:9])[C@@:2]1([H:8])[N:3]=[N:4]2"
C        0.75774222       0.92603870       0.16314740
C        0.99017005      -0.42965253      -0.26706231
N        0.79581913      -1.45993348       0.64982525
N       -0.48658889      -1.55036541       0.64945490
C       -0.96924877      -0.46957109      -0.12191943
C       -0.59433846       0.89604091       0.20614723
H        1.45688018       1.74261835       0.25429913
H        1.26734475      -0.70703305      -1.27971274
H       -1.93104975      -0.66689389      -0.58557159
H       -1.28673048       1.71875149       0.33139217
10
Frame=10 idx=005279 GeodesicLength=0.4532492961219112 rxn_smarts="[c:1]1([H:7])[c:2]([H:8])[n:3][n:4][c:5]([H:9])[c:6]1[H:10]>>[C:1]1([H:7])=[C:6]([H:10])[C@:5]2([H:9])[C@@:2]1([H:8])[N:3]=[N:4]2"
C        0.75156707       0.92117543       0.16334984
C        0.98596145      -0.43290877      -0.27174642
N        0.78429144      -1.47445264       0.63520750
N       -0.49820346      -1.54997729       0.65580671
C       -0.97295007      -0.46587100      -0.11694862
C       -0.60017513       0.89585284       0.22503643
H        1.44737515       1.74423658       0.21848486
H        1.32356276      -0.70078282      -1.26803592
H       -1.93308671      -0.65998111      -0.58560301
H       -1.28834250       1.72270878       0.34444863
10
Frame=11 idx=005279 GeodesicLength=0.4974458349305879 rxn_smarts="[c:1]1([H:7])[c:2]([H:8])[n:3][n:4][c:5]([H:9])[c:6]1[H:10]>>[C:1]1([H:7])=[C:6]([H:10])[C@:5]2([H:9])[C@@:2]1([H:8])[N:3]=[N:4]2"
C        0.74524680       0.91620746       0.16178050
C        0.98089057      -0.43629894      -0.27879648
N        0.77266392      -1.48873947       0.61871999
N       -0.50937510      -1.54930671       0.66238908
C       -0.97730212      -0.46206813      -0.11128957
C       -0.60587251       0.89575158       0.24336649
H        1.43707579       1.74462488       0.18414762
H        1.38247160      -0.69401747      -1.25342388
H       -1.93622976      -0.65305518      -0.58391088
H       -1.28956919       1.72690198       0.35701713
10
Frame=12 idx=005279 GeodesicLength=0.5417949305676436 rxn_smarts="[c:1]1([H:7])[c:2]([H:8])[n:3][n:4][c:5]([H:9])[c:6]1[H:10]>>[C:1]1([H:7])=[C:6]([H:10])[C@:5]2([H:9])[C@@:2]1([H:8])[N:3]=[N:4]2"
C        0.73863978       0.91125245       0.15806110
C        0.97481592      -0.43991110      -0.28874365
N        0.76083781      -1.50282665       0.60031681
N       -0.52007702      -1.54852381       0.66919409
C       -0.98237244      -0.45822646      -0.10503777
C       -0.61148744       0.89590848       0.26095464
H        1.42623852       1.74397696       0.15127393
H        1.44448839      -0.68690405      -1.23523375
H       -1.94059532      -0.64623456      -0.58044215
H       -1.29048821       1.73148873       0.36965675
10
Frame=13 idx=005279 GeodesicLength=0.5853637059669979 rxn_smarts="[c:1]1([H:7])[c:2]([H:8])[n:3][n:4][c:5]([H:9])[c:6]1[H:10]>>[C:1]1([H:7])=[C:6]([H:10])[C@:5]2([H:9])[C@@:2]1([H:8])[N:3]=[N:4]2"
C        0.73197267       0.90548471       0.15340031
C        0.96742621      -0.44372115      -0.30162557
N        0.74865736      -1.51675986       0.57919643
N       -0.53027770      -1.54757102       0.67558030
C       -0.98824441      -0.45424160      -0.09799369
C       -0.61672031       0.89572175       0.27859990
H        1.41447351       1.74220218       0.11785354
H        1.50969789      -0.67803998      -1.21163272
H       -1.94644652      -0.63903842      -0.57487316
H       -1.29053870       1.73596339       0.38149467
10
Frame=14 idx=005279 GeodesicLength=0.6292727210024088 rxn_smarts="[c:1]1([H:7])[c:2]([H:8])[n:3][n:4][c:5]([H:9])[c:6]1[H:10]>>[C:1]1([H:7])=[C:6]([H:10])[C@:5]2([H:9])[C@@:2]1([H:8])[N:3]=[N:4]2"
C        0.72487396       0.89976442       0.14521561
C        0.95880004      -0.44782413      -0.31872243
N        0.73616569      -1.52976040       0.55632109
N       -0.54000513      -1.54647359       0.68140897
C       -0.99500076      -0.45011554      -0.09112732
C       -0.62188973       0.89592663       0.29446587
H        1.40230526       1.73961320       0.08419514
H        1.57917822      -0.66969917      -1.18097402
H       -1.95394823      -0.63171711      -0.56793090
H       -1.29047932       1.74028569       0.39714798
10
Frame=15 idx=005279 GeodesicLength=0.6724457743850097 rxn_smarts="[c:1]1([H:7])[c:2]([H:8])[n:3][n:4][c:5]([H:9])[c:6]1[H:10]>>[C:1]1([H:7])=[C:6]([H:10])[C@:5]2([H:9])[C@@:2]1([H:8])[N:3]=[N:4]2"
C        0.71782140       0.89313245       0.13566596
C        0.94864766      -0.45221199      -0.34042314
N        0.72360294      -1.54255596       0.52992502
N       -0.54860941      -1.54554422       0.68688107
C       -1.00252170      -0.44621815      -0.08322338
C       -0.62641771       0.89580808       0.31019178
H        1.39006819       1.73577988       0.05179402
H        1.64982054      -0.65851545      -1.14310272
H       -1.96328566      -0.62468829      -0.55777621
H       -1.28912625       1.74501366       0.41006759
10
Frame=16 idx=005279 GeodesicLength=0.714241384522859 rxn_smarts="[c:1]1([H:7])[c:2]([H:8])[n:3][n:4][c:5]([H:9])[c:6]1[H:10]>>[C:1]1([H:7])=[C:6]([H:10])[C@:5]2([H:9])[C@@:2]1([H:8])[N:3]=[N:4]2"
C        0.71060194       0.88604576       0.12354344
C        0.93777829      -0.45657198      -0.36632625
N        0.71143502      -1.55382227       0.50175443
N       -0.55545254      -1.54413762       0.69173397
C       -1.00992394      -0.44238137      -0.07546431
C       -0.63017466       0.89554284       0.32428406
H        1.37805002       1.73076790       0.02147044
H        1.71775472      -0.64661283      -1.09811144
H       -1.97321944      -0.61796831      -0.54601760
H       -1.28684940       1.74913787       0.42313326
