15
Frame=0 idx=009293 GeodesicLength=0.0 rxn_smarts="[C:1]([C:2]([C:3]([H:12])([H:13])[H:14])([C:4](=[O:5])[C:6]#[C:7][H:15])[H:11])([H:8])([H:9])[H:10]>>[C:1]([C@:2]1([H:11])[C@@:4]([C:3]([H:12])([H:13])[H:14])([C:6]#[C:7][H:15])[O:5]1)([H:8])([H:9])[H:10]"
C       -1.27179066       0.40846303      -1.64725466
C       -0.10007732      -0.07823676      -0.95310300
C       -0.56910758      -0.76943638       1.28505997
C        0.16747389       0.34767620       0.42662484
O       -0.31658278       1.56280819       0.61073978
C        1.62762961       0.20732518       0.69478669
C        2.79854958       0.10692212       0.92403878
H       -2.00888880       0.78078202      -0.93183075
H       -1.64194062      -0.29655917      -2.39290718
H       -0.93870648       1.30717473      -2.19038331
H        0.63238945      -0.66817639      -1.50703590
H       -0.43737211      -0.40947844       2.30650389
H       -1.63266795      -0.76516328       1.04720685
H       -0.14701392      -1.77050895       1.18603499
H        3.83810572       0.03640794       1.14151895
15
Frame=1 idx=009293 GeodesicLength=0.0887820566900737 rxn_smarts="[C:1]([C:2]([C:3]([H:12])([H:13])[H:14])([C:4](=[O:5])[C:6]#[C:7][H:15])[H:11])([H:8])([H:9])[H:10]>>[C:1]([C@:2]1([H:11])[C@@:4]([C:3]([H:12])([H:13])[H:14])([C:6]#[C:7][H:15])[O:5]1)([H:8])([H:9])[H:10]"
C       -1.28449773       0.40377514      -1.63483220
C       -0.10250873      -0.06420210      -0.93872249
C       -0.57469349      -0.77008437       1.26374968
C        0.19084174       0.36623394       0.43264684
O       -0.28924861       1.58548318       0.57404584
C        1.64548335       0.21305885       0.70424796
C        2.81467209       0.09673070       0.93444334
H       -2.02347034       0.77614845      -0.92179072
H       -1.65479433      -0.31928418      -2.36294756
H       -0.96667110       1.29528854      -2.19717688
H        0.63713643      -0.63622407      -1.50193912
H       -0.46968831      -0.41264847       2.28950828
H       -1.63719076      -0.78378672       1.02285921
H       -0.13682059      -1.76520219       1.17474023
H        3.85145037       0.01471331       1.16116759
15
Frame=2 idx=009293 GeodesicLength=0.1775137579581518 rxn_smarts="[C:1]([C:2]([C:3]([H:12])([H:13])[H:14])([C:4](=[O:5])[C:6]#[C:7][H:15])[H:11])([H:8])([H:9])[H:10]>>[C:1]([C@:2]1([H:11])[C@@:4]([C:3]([H:12])([H:13])[H:14])([C:6]#[C:7][H:15])[O:5]1)([H:8])([H:9])[H:10]"
C       -1.29700461       0.39973309      -1.62222455
C       -0.10535418      -0.05060360      -0.92432020
C       -0.58004871      -0.77083355       1.24244598
C        0.21358841       0.38434434       0.43851034
O       -0.26059161       1.60728140       0.53630539
C        1.66293343       0.21841202       0.71292501
C        2.83021767       0.08606655       0.94385251
H       -2.03748152       0.77268787      -0.91145225
H       -1.66759784      -0.34059548      -2.33263941
H       -0.99360378       1.28325082      -2.20344620
H        0.64036670      -0.60536899      -1.49683346
H       -0.50173247      -0.41524185       2.27155660
H       -1.64113978      -0.80451099       0.99849750
H       -0.12622608      -1.75965125       1.16465511
H        3.86367437      -0.00497040       1.18216762
15
Frame=3 idx=009293 GeodesicLength=0.2662086779142678 rxn_smarts="[C:1]([C:2]([C:3]([H:12])([H:13])[H:14])([C:4](=[O:5])[C:6]#[C:7][H:15])[H:11])([H:8])([H:9])[H:10]>>[C:1]([C@:2]1([H:11])[C@@:4]([C:3]([H:12])([H:13])[H:14])([C:6]#[C:7][H:15])[O:5]1)([H:8])([H:9])[H:10]"
C       -1.30900224       0.39621665      -1.60949967
C       -0.10832789      -0.03727545      -0.90964061
C       -0.58543238      -0.77167434       1.22128777
C        0.23545654       0.40228935       0.44455964
O       -0.23123416       1.62822026       0.49778962
C        1.67966562       0.22398600       0.72165520
C        2.84482251       0.07583931       0.95350916
H       -2.05093451       0.76998441      -0.90106355
H       -1.67966254      -0.36066489      -2.30224134
H       -1.01930969       1.27112012      -2.20911140
H        0.64271055      -0.57533049      -1.49121286
H       -0.53419861      -0.41721191       2.25280922
H       -1.64455542      -0.82756320       0.97386213
H       -0.11526225      -1.75368769       1.15604682
H        3.87526448      -0.02424814       1.20124986
15
Frame=4 idx=009293 GeodesicLength=0.3548824038881342 rxn_smarts="[C:1]([C:2]([C:3]([H:12])([H:13])[H:14])([C:4](=[O:5])[C:6]#[C:7][H:15])[H:11])([H:8])([H:9])[H:10]>>[C:1]([C@:2]1([H:11])[C@@:4]([C:3]([H:12])([H:13])[H:14])([C:6]#[C:7][H:15])[O:5]1)([H:8])([H:9])[H:10]"
C       -1.32060269       0.39325062      -1.59664653
C       -0.11144891      -0.02424689      -0.89478208
C       -0.59078573      -0.77262041       1.20025449
C        0.25652825       0.42009198       0.45067518
O       -0.20104995       1.64820603       0.45846180
C        1.69576019       0.22969291       0.73027553
C        2.85857528       0.06591599       0.96321870
H       -2.06388340       0.76800648      -0.89051984
H       -1.69121071      -0.37943248      -2.27177996
H       -1.04396108       1.25899442      -2.21415616
H        0.64411186      -0.54625773      -1.48519870
H       -0.56698712      -0.41855135       2.23321678
H       -1.64724305      -0.85284460       0.94894335
H       -0.10397098      -1.74729557       1.14888467
H        3.88616803      -0.04290941       1.21915275
15
Frame=5 idx=009293 GeodesicLength=0.44355723774904865 rxn_smarts="[C:1]([C:2]([C:3]([H:12])([H:13])[H:14])([C:4](=[O:5])[C:6]#[C:7][H:15])[H:11])([H:8])([H:9])[H:10]>>[C:1]([C@:2]1([H:11])[C@@:4]([C:3]([H:12])([H:13])[H:14])([C:6]#[C:7][H:15])[O:5]1)([H:8])([H:9])[H:10]"
C       -1.33181553       0.39084218      -1.58365137
C       -0.11469016      -0.01154301      -0.87975552
C       -0.59614630      -0.77369366       1.17934236
C        0.27683323       0.43777314       0.45682816
O       -0.17002139       1.66710774       0.41836246
C        1.71121961       0.23548947       0.73882093
C        2.87145540       0.05624195       0.97311352
H       -2.07634092       0.76667159      -0.87977837
H       -1.70228171      -0.39684820      -2.24132906
H       -1.06758664       1.24695995      -2.21851406
H        0.64461378      -0.51826708      -1.47876341
H       -0.60016927      -0.41925284       2.21272970
H       -1.64908230      -0.88024234       0.92368085
H       -0.09248667      -1.74044969       1.14318718
H        3.89649889      -0.06078921       1.23572663
15
Frame=6 idx=009293 GeodesicLength=0.5322565693541871 rxn_smarts="[C:1]([C:2]([C:3]([H:12])([H:13])[H:14])([C:4](=[O:5])[C:6]#[C:7][H:15])[H:11])([H:8])([H:9])[H:10]>>[C:1]([C@:2]1([H:11])[C@@:4]([C:3]([H:12])([H:13])[H:14])([C:6]#[C:7][H:15])[O:5]1)([H:8])([H:9])[H:10]"
C       -1.34295779       0.38897344      -1.57047522
C       -0.11811674       0.00090410      -0.86481212
C       -0.60117562      -0.77487178       1.15845587
C        0.29655022       0.45546951       0.46269814
O       -0.13808590       1.68491178       0.37729649
C        1.72627253       0.24151927       0.74675815
C        2.88371633       0.04700675       0.98264309
H       -2.08849557       0.76587900      -0.86859593
H       -1.71333068      -0.41298724      -2.21078143
H       -1.09077190       1.23508313      -2.22221911
H        0.64409467      -0.49132200      -1.47231272
H       -0.63329297      -0.41926445       2.19123006
H       -1.64962828      -0.90964223       0.89815185
H       -0.08049883      -1.73306914       1.13876810
H        3.90572052      -0.07859015       1.25319479
15
Frame=7 idx=009293 GeodesicLength=0.6209980009096051 rxn_smarts="[C:1]([C:2]([C:3]([H:12])([H:13])[H:14])([C:4](=[O:5])[C:6]#[C:7][H:15])[H:11])([H:8])([H:9])[H:10]>>[C:1]([C@:2]1([H:11])[C@@:4]([C:3]([H:12])([H:13])[H:14])([C:6]#[C:7][H:15])[O:5]1)([H:8])([H:9])[H:10]"
C       -1.35385091       0.38765457      -1.55712356
C       -0.12163510       0.01303946      -0.84982908
C       -0.60611147      -0.77621292       1.13764334
C        0.31562693       0.47314180       0.46841702
O       -0.10531683       1.70141621       0.33543261
C        1.74079422       0.24766376       0.75445594
C        2.89521671       0.03811954       0.99226060
H       -2.10025923       0.76555296      -0.85705360
H       -1.72412725      -0.42776927      -2.18030389
H       -1.11325181       1.22345802      -2.22515571
H        0.64269760      -0.46563265      -1.46558142
H       -0.66667173      -0.41869593       2.16872961
H       -1.64896521      -0.94079623       0.87229389
H       -0.06839274      -1.72517689       1.13569197
H        3.91424683      -0.09576242       1.27012229
15
Frame=8 idx=009293 GeodesicLength=0.7097641383942794 rxn_smarts="[C:1]([C:2]([C:3]([H:12])([H:13])[H:14])([C:4](=[O:5])[C:6]#[C:7][H:15])[H:11])([H:8])([H:9])[H:10]>>[C:1]([C@:2]1([H:11])[C@@:4]([C:3]([H:12])([H:13])[H:14])([C:6]#[C:7][H:15])[O:5]1)([H:8])([H:9])[H:10]"
C       -1.36453419       0.38688700      -1.54361223
C       -0.12522212       0.02486311      -0.83485000
C       -0.61093351      -0.77775653       1.11691680
C        0.33410740       0.49082435       0.47393958
O       -0.07179246       1.71651161       0.29281596
C        1.75481234       0.25392258       0.76192501
C        2.90597677       0.02959461       1.00207422
H       -2.11168298       0.76562161      -0.84511900
H       -1.73471487      -0.44120018      -2.14999118
H       -1.13513130       1.21217911      -2.22732067
H        0.64047352      -0.44128718      -1.45861437
H       -0.70027815      -0.41759733       2.14522158
H       -1.64697106      -0.97346235       0.84613950
H       -0.05624655      -1.71679284       1.13393278
H        3.92213716      -0.11230757       1.28654203
15
Frame=9 idx=009293 GeodesicLength=0.7985739647311981 rxn_smarts="[C:1]([C:2]([C:3]([H:12])([H:13])[H:14])([C:4](=[O:5])[C:6]#[C:7][H:15])[H:11])([H:8])([H:9])[H:10]>>[C:1]([C@:2]1([H:11])[C@@:4]([C:3]([H:12])([H:13])[H:14])([C:6]#[C:7][H:15])[O:5]1)([H:8])([H:9])[H:10]"
C       -1.37503500       0.38666435      -1.52992940
C       -0.12885396       0.03638099      -0.81990567
C       -0.61562573      -0.77953652       1.09625919
C        0.35204423       0.50854058       0.47920978
O       -0.03756751       1.73006717       0.24948627
C        1.76835356       0.26028937       0.76916307
C        2.91602038       0.02146170       1.01214440
H       -2.12279497       0.76601442      -0.83274793
H       -1.74514411      -0.45329668      -2.11987951
H       -1.15649499       1.20131505      -2.22868119
H        0.63745782      -0.41836942      -1.45143536
H       -0.73408127      -0.41603917       2.12065594
H       -1.64355437      -1.00737169       0.81970729
H       -0.04415619      -1.70792071       1.13342264
H        3.92943213      -0.12819945       1.30253047
15
Frame=10 idx=009293 GeodesicLength=0.887462962584385 rxn_smarts="[C:1]([C:2]([C:3]([H:12])([H:13])[H:14])([C:4](=[O:5])[C:6]#[C:7][H:15])[H:11])([H:8])([H:9])[H:10]>>[C:1]([C@:2]1([H:11])[C@@:4]([C:3]([H:12])([H:13])[H:14])([C:6]#[C:7][H:15])[O:5]1)([H:8])([H:9])[H:10]"
C       -1.38536306       0.38697618      -1.51605956
C       -0.13250260       0.04760094      -0.80500963
C       -0.62018512      -0.78158256       1.07565176
C        0.36948451       0.52630917       0.48418399
O       -0.00270590       1.74194552       0.20549540
C        1.78143369       0.26676221       0.77619798
C        2.92536508       0.01375857       1.02254145
H       -2.13361409       0.76665779      -0.81990946
H       -1.75543811      -0.46407913      -2.09000050
H       -1.17739918       1.19092606      -2.22919432
H        0.63369291      -0.39696508      -1.44403644
H       -0.76806619      -0.41410681       2.09497732
H       -1.63866430      -1.04224329       0.79300778
H       -0.03223005      -1.69855793       1.13408953
H        3.93619243      -0.14340164       1.31806468
15
Frame=11 idx=009293 GeodesicLength=0.9764090242001279 rxn_smarts="[C:1]([C:2]([C:3]([H:12])([H:13])[H:14])([C:4](=[O:5])[C:6]#[C:7][H:15])[H:11])([H:8])([H:9])[H:10]>>[C:1]([C@:2]1([H:11])[C@@:4]([C:3]([H:12])([H:13])[H:14])([C:6]#[C:7][H:15])[O:5]1)([H:8])([H:9])[H:10]"
C       -1.39558023       0.38780958      -1.50200907
C       -0.13615839       0.05854448      -0.79022652
C       -0.62452812      -0.78392601       1.05509528
C        0.38649820       0.54418238       0.48876978
O        0.03267022       1.75206574       0.16086220
C        1.79411217       0.27339426       0.78294904
C        2.93407712       0.00659338       1.03324377
H       -2.14420384       0.76747667      -0.80655284
H       -1.76565290      -0.47359843      -2.06040880
H       -1.19799721       1.18109028      -2.22886810
H        0.62919746      -0.37712812      -1.43651365
H       -0.80206011      -0.41190189       2.06819464
H       -1.63222649      -1.07776851       0.76613761
H       -0.02048953      -1.68873981       1.13581388
H        3.94234162      -0.15809402       1.33351277
15
Frame=12 idx=009293 GeodesicLength=1.0655088992317534 rxn_smarts="[C:1]([C:2]([C:3]([H:12])([H:13])[H:14])([C:4](=[O:5])[C:6]#[C:7][H:15])[H:11])([H:8])([H:9])[H:10]>>[C:1]([C@:2]1([H:11])[C@@:4]([C:3]([H:12])([H:13])[H:14])([C:6]#[C:7][H:15])[O:5]1)([H:8])([H:9])[H:10]"
C       -1.40585684       0.38914897      -1.48768720
C       -0.13984816       0.06925688      -0.77567887
C       -0.62844466      -0.78656052       1.03446652
C        0.40325319       0.56219994       0.49272313
O        0.06854021       1.76030583       0.11549950
C        1.80656158       0.28023650       0.78907158
C        2.94232854       0.00014017       1.04403898
H       -2.15463488       0.76840042      -0.79249449
H       -1.77605786      -0.48189542      -2.03095515
H       -1.21861761       1.17182084      -2.22761960
H        0.62386650      -0.35884958      -1.42906583
H       -0.83578624      -0.40943597       2.04012083
H       -1.62404180      -1.11374228       0.73907920
H       -0.00879622      -1.67839172       1.13841088
H        3.94753424      -0.17263407       1.35009053
15
Frame=13 idx=009293 GeodesicLength=1.154704945362841 rxn_smarts="[C:1]([C:2]([C:3]([H:12])([H:13])[H:14])([C:4](=[O:5])[C:6]#[C:7][H:15])[H:11])([H:8])([H:9])[H:10]>>[C:1]([C@:2]1([H:11])[C@@:4]([C:3]([H:12])([H:13])[H:14])([C:6]#[C:7][H:15])[O:5]1)([H:8])([H:9])[H:10]"
C       -1.41605836       0.39099895      -1.47315786
C       -0.14350466       0.07970499      -0.76129193
C       -0.63210461      -0.78954164       1.01385945
C        0.41972130       0.58033606       0.49615458
O        0.10476059       1.76655664       0.06958284
C        1.81869275       0.28720071       0.79487962
C        2.95003954      -0.00571633       1.05522057
H       -2.16486867       0.76941925      -0.77785196
H       -1.78645255      -0.48898861      -2.00181884
H       -1.23905508       1.16321666      -2.22548313
H        0.61784416      -0.34229247      -1.42154121
H       -0.86935555      -0.40691000       2.01090290
H       -1.61435597      -1.14980179       0.71191472
H        0.00253008      -1.66764136       1.14185010
H        3.95216702      -0.18654105       1.36678014
15
Frame=14 idx=009293 GeodesicLength=1.2440311590230972 rxn_smarts="[C:1]([C:2]([C:3]([H:12])([H:13])[H:14])([C:4](=[O:5])[C:6]#[C:7][H:15])[H:11])([H:8])([H:9])[H:10]>>[C:1]([C@:2]1([H:11])[C@@:4]([C:3]([H:12])([H:13])[H:14])([C:6]#[C:7][H:15])[O:5]1)([H:8])([H:9])[H:10]"
C       -1.42623197       0.39335174      -1.45838720
C       -0.14712265       0.08989613      -0.74710590
C       -0.63545159      -0.79287641       0.99323355
C        0.43600538       0.59858559       0.49894971
O        0.14125277       1.77069578       0.02313651
C        1.83058393       0.29426346       0.80026254
C        2.95728589      -0.01093117       1.06676316
H       -2.17492545       0.77049520      -0.76256451
H       -1.79691888      -0.49490483      -1.97297261
H       -1.25940918       1.15531397      -2.22241920
H        0.61111131      -0.32749742      -1.41400216
H       -0.90259776      -0.40441321       1.98050383
H       -1.60321202      -1.18567996       0.68467374
H        0.01343725      -1.65650658       1.14597569
H        3.95619296      -0.19979232       1.38395286
15
Frame=15 idx=009293 GeodesicLength=1.3335043532666868 rxn_smarts="[C:1]([C:2]([C:3]([H:12])([H:13])[H:14])([C:4](=[O:5])[C:6]#[C:7][H:15])[H:11])([H:8])([H:9])[H:10]>>[C:1]([C@:2]1([H:11])[C@@:4]([C:3]([H:12])([H:13])[H:14])([C:6]#[C:7][H:15])[O:5]1)([H:8])([H:9])[H:10]"
C       -1.43640122       0.39620409      -1.44335771
C       -0.15068680       0.09983854      -0.73314828
C       -0.63845825      -0.79657134       0.97257340
C        0.45219096       0.61695164       0.50102373
O        0.17793182       1.77263427      -0.02381207
C        1.84229365       0.30140672       0.80516799
C        2.96412662      -0.01547546       1.07867444
H       -2.18481581       0.77160749      -0.74659373
H       -1.80750025      -0.49968016      -1.94440680
H       -1.27974799       1.14816041      -2.21841316
H        0.60367145      -0.31450373      -1.40649120
H       -0.93539496      -0.40204424       1.94893652
H       -1.59068860      -1.22116239       0.65737704
H        0.02387115      -1.64501707       1.15066420
H        3.95960823      -0.21234876       1.40180562
15
Frame=16 idx=009293 GeodesicLength=1.4231420808474324 rxn_smarts="[C:1]([C:2]([C:3]([H:12])([H:13])[H:14])([C:4](=[O:5])[C:6]#[C:7][H:15])[H:11])([H:8])([H:9])[H:10]>>[C:1]([C@:2]1([H:11])[C@@:4]([C:3]([H:12])([H:13])[H:14])([C:6]#[C:7][H:15])[O:5]1)([H:8])([H:9])[H:10]"
C       -1.44659586       0.39955507      -1.42804367
C       -0.15418490       0.10953693      -0.71945360
C       -0.64109298      -0.80062603       0.95185810
C        0.46837752       0.63542894       0.50226942
O        0.21471613       1.77228434      -0.07125431
C        1.85389650       0.30860069       0.80949768
C        2.97063058      -0.01932390       1.09093867
H       -2.19454640       0.77274382      -0.72988784
H       -1.81825206      -0.50334540      -1.91609526
H       -1.30014669       1.14180174      -2.21344314
H        0.59551196      -0.30333904      -1.39906834
H       -0.96759305      -0.39990288       1.91623183
H       -1.57688535      -1.25604909       0.63004980
H        0.03378894      -1.63320941       1.15576125
H        3.96237565      -0.22415577       1.42063943
