11
Frame=0 idx=000619 GeodesicLength=0.0 rxn_smarts="[O:1]([C:2]([C:3]([C:4](=[O:5])[H:11])([H:9])[H:10])([H:7])[H:8])[H:6]>>[O:1]([C:2]([O:5][C:4](=[C:3]([H:9])[H:10])[H:11])([H:7])[H:8])[H:6]"
O       -2.45131516       0.51600133       0.14563641
C       -1.16997856       0.30969096       0.18783287
C        1.12513388      -0.96896868      -0.52319460
C        1.39927031       0.07946642       0.32713368
O        0.82668428       0.28568849       1.43748025
H       -2.66688133       1.36409540      -0.25904854
H       -0.85559210      -0.60186303       0.65231884
H       -0.50563409       1.03305607      -0.24733965
H        1.62417889      -1.03175460      -1.48189555
H        0.60564228      -1.85360274      -0.17445871
H        2.06849159       0.86819035      -0.06446497
11
Frame=1 idx=000619 GeodesicLength=0.11703816555942809 rxn_smarts="[O:1]([C:2]([C:3]([C:4](=[O:5])[H:11])([H:9])[H:10])([H:7])[H:8])[H:6]>>[O:1]([C:2]([O:5][C:4](=[C:3]([H:9])[H:10])[H:11])([H:7])[H:8])[H:6]"
O       -2.44137509       0.59963885       0.21835271
C       -1.17726135       0.27396732       0.14550289
C        1.16498935      -0.98292135      -0.50232845
C        1.38291755       0.09007101       0.33705531
O        0.76735372       0.27670371       1.42876496
H       -2.64217858       1.48369457      -0.10943597
H       -0.88191173      -0.66848349       0.56713793
H       -0.55797836       0.94099660      -0.43273845
H        1.70399558      -1.04413998      -1.44193574
H        0.67764324      -1.88345968      -0.14594565
H        2.00380567       0.91393244      -0.06442953
11
Frame=2 idx=000619 GeodesicLength=0.23265854525606283 rxn_smarts="[O:1]([C:2]([C:3]([C:4](=[O:5])[H:11])([H:9])[H:10])([H:7])[H:8])[H:6]>>[O:1]([C:2]([O:5][C:4](=[C:3]([H:9])[H:10])[H:11])([H:7])[H:8])[H:6]"
O       -2.41452296       0.68071771       0.27778934
C       -1.18515553       0.23937456       0.11718512
C        1.19483241      -0.98848800      -0.48501981
C        1.36048161       0.10481000       0.34378191
O        0.71504200       0.26037287       1.42421530
H       -2.58134820       1.59380925       0.01771479
H       -0.90962148      -0.73222619       0.49291026
H       -0.62550542       0.83101493      -0.59603394
H        1.77450421      -1.04629563      -1.40314072
H        0.74285635      -1.90451688      -0.11953744
H        1.92843703       0.96142739      -0.06986480
11
Frame=3 idx=000619 GeodesicLength=0.3481444410762619 rxn_smarts="[O:1]([C:2]([C:3]([C:4](=[O:5])[H:11])([H:9])[H:10])([H:7])[H:8])[H:6]>>[O:1]([C:2]([O:5][C:4](=[C:3]([H:9])[H:10])[H:11])([H:7])[H:8])[H:6]"
O       -2.37479410       0.75942743       0.32389400
C       -1.19154183       0.20693296       0.10225500
C        1.21560882      -0.98665248      -0.47278475
C        1.33584605       0.12071852       0.34918041
O        0.67239112       0.23685932       1.42502671
H       -2.49730085       1.69255266       0.11524975
H       -0.93743709      -0.79128475       0.43158809
H       -0.70692099       0.70957490      -0.73095589
H        1.83482869      -1.03758629      -1.36811154
H        0.80196950      -1.91789593      -0.09816669
H        1.84735069       1.00735366      -0.07717509
11
Frame=4 idx=000619 GeodesicLength=0.4638486666393061 rxn_smarts="[O:1]([C:2]([C:3]([C:4](=[O:5])[H:11])([H:9])[H:10])([H:7])[H:8])[H:6]>>[O:1]([C:2]([O:5][C:4](=[C:3]([H:9])[H:10])[H:11])([H:7])[H:8])[H:6]"
O       -2.32451857       0.83565836       0.35718609
C       -1.19569125       0.17601891       0.09675813
C        1.22891349      -0.97885282      -0.46550630
C        1.31143008       0.13610385       0.35518726
O        0.63837990       0.20808094       1.43044726
H       -2.39890433       1.78117140       0.18456038
H       -0.96485022      -0.84566517       0.38183074
H       -0.80075901       0.58133785      -0.83702671
H        1.88449353      -1.01842664      -1.33829296
H        0.85697618      -1.92511396      -0.08250533
H        1.76453019       1.04968727      -0.08263855
11
Frame=5 idx=000619 GeodesicLength=0.5799517119542168 rxn_smarts="[O:1]([C:2]([C:3]([C:4](=[O:5])[H:11])([H:9])[H:10])([H:7])[H:8])[H:6]>>[O:1]([C:2]([O:5][C:4](=[C:3]([H:9])[H:10])[H:11])([H:7])[H:8])[H:6]"
O       -2.26514823       0.90913574       0.37743087
C       -1.19772169       0.14555384       0.09775476
C        1.23645045      -0.96623729      -0.46213323
C        1.28881616       0.15013458       0.36370626
O        0.61118022       0.17567818       1.43989190
H       -2.29137296       1.86103116       0.22687130
H       -0.99174528      -0.89631432       0.34316615
H       -0.90489214       0.44899200      -0.91500647
H        1.92078196      -0.98802397      -1.31651428
H        0.90961268      -1.92741892      -0.07264870
H        1.68403882       1.08746901      -0.08251855
11
Frame=6 idx=000619 GeodesicLength=0.6958240256200918 rxn_smarts="[O:1]([C:2]([C:3]([C:4](=[O:5])[H:11])([H:9])[H:10])([H:7])[H:8])[H:6]>>[O:1]([C:2]([O:5][C:4](=[C:3]([H:9])[H:10])[H:11])([H:7])[H:8])[H:6]"
O       -2.19793074       0.97860764       0.38171077
C       -1.19765842       0.11460870       0.10292802
C        1.23960458      -0.94973144      -0.46052801
C        1.26896888       0.16244612       0.37668515
O        0.58867430       0.14099349       1.45299870
H       -2.17673584       1.93274262       0.24474663
H       -1.01800104      -0.94428236       0.31539857
H       -1.01550340       0.31460474      -0.96587166
H        1.93839767      -0.94482270      -1.30665430
H        0.96120783      -1.92571295      -0.06776389
H        1.60897618       1.12054615      -0.07364998
11
Frame=7 idx=000619 GeodesicLength=0.8120971384600376 rxn_smarts="[O:1]([C:2]([C:3]([C:4](=[O:5])[H:11])([H:9])[H:10])([H:7])[H:8])[H:6]>>[O:1]([C:2]([O:5][C:4](=[C:3]([H:9])[H:10])[H:11])([H:7])[H:8])[H:6]"
O       -2.12455012       1.04222440       0.37236208
C       -1.19630007       0.08361856       0.10913495
C        1.23847039      -0.93041575      -0.46095030
C        1.25157432       0.17326941       0.39257822
O        0.56907269       0.10565164       1.46741249
H       -2.05938058       1.99584570       0.24559388
H       -1.04406763      -0.98990356       0.29456786
H       -1.13224785       0.18585579      -0.99250090
H        1.94474073      -0.89513573      -1.30344906
H        1.01202125      -1.92031986      -0.06703295
H        1.54066688       1.14930940      -0.05771625
11
Frame=8 idx=000619 GeodesicLength=0.9288796246167915 rxn_smarts="[O:1]([C:2]([C:3]([C:4](=[O:5])[H:11])([H:9])[H:10])([H:7])[H:8])[H:6]>>[O:1]([C:2]([O:5][C:4](=[C:3]([H:9])[H:10])[H:11])([H:7])[H:8])[H:6]"
O       -2.04647097       1.09868772       0.35005226
C       -1.19374681       0.05299163       0.11478883
C        1.23393298      -0.90934622      -0.46252920
C        1.23664261       0.18265825       0.41079042
O        0.55128213       0.07054075       1.48194774
H       -1.94217320       2.05030308       0.23443336
H       -1.07004848      -1.03330962       0.27821268
H       -1.25377093       0.06647013      -0.99766538
H        1.94232709      -0.84152930      -1.30459774
H        1.06221773      -1.91163162      -0.06956002
H        1.47980785       1.17416520      -0.03587293
11
Frame=9 idx=000619 GeodesicLength=1.0469755963342073 rxn_smarts="[O:1]([C:2]([C:3]([C:4](=[O:5])[H:11])([H:9])[H:10])([H:7])[H:8])[H:6]>>[O:1]([C:2]([O:5][C:4](=[C:3]([H:9])[H:10])[H:11])([H:7])[H:8])[H:6]"
O       -1.96456691       1.14753511       0.31488102
C       -1.19009342       0.02288631       0.11853814
C        1.22704374      -0.88723126      -0.46469451
C        1.22391004       0.19078896       0.43074260
O        0.53432527       0.03624661       1.49582887
H       -1.82653741       2.09677603       0.21586471
H       -1.09606123      -1.07472750       0.26451516
H       -1.38040179      -0.04251074      -0.98356519
H        1.93403942      -0.78559746      -1.30795113
H        1.11179548      -1.89992644      -0.07490846
H        1.42654680       1.19576037      -0.00925121
11
Frame=10 idx=000619 GeodesicLength=1.1658415931015673 rxn_smarts="[O:1]([C:2]([C:3]([C:4](=[O:5])[H:11])([H:9])[H:10])([H:7])[H:8])[H:6]>>[O:1]([C:2]([O:5][C:4](=[C:3]([H:9])[H:10])[H:11])([H:7])[H:8])[H:6]"
O       -1.88015348       1.18810757       0.26475393
C       -1.18499996      -0.00620439       0.11842817
C        1.21930655      -0.86525810      -0.46620736
C        1.21342220       0.19773567       0.45190727
O        0.51713098       0.00399548       1.50814836
H       -1.71499558       2.13582750       0.19688299
H       -1.12198600      -1.11373013       0.25147719
H       -1.51063755      -0.13991914      -0.95170488
H        1.92063407      -0.72894157      -1.31270856
H        1.16126424      -1.88581487      -0.08131701
H        1.38101454       1.21420197       0.02033989
11
Frame=11 idx=000619 GeodesicLength=1.2854606225744252 rxn_smarts="[O:1]([C:2]([C:3]([C:4](=[O:5])[H:11])([H:9])[H:10])([H:7])[H:8])[H:6]>>[O:1]([C:2]([O:5][C:4](=[C:3]([H:9])[H:10])[H:11])([H:7])[H:8])[H:6]"
O       -1.79301703       1.22036073       0.20448033
C       -1.17748284      -0.03373095       0.11272946
C        1.21238293      -0.84500281      -0.46670231
C        1.20565306       0.20327769       0.47316514
O        0.49986955      -0.02600147       1.51794460
H       -1.61511692       2.16790760       0.17839717
H       -1.14726068      -1.15021984       0.23453536
H       -1.64643117      -0.22044288      -0.90155180
H        1.90695756      -0.67514392      -1.31612337
H        1.21139985      -1.87038721      -0.08715275
H        1.34304571       1.22938306       0.05027816
11
Frame=12 idx=000619 GeodesicLength=1.4045799131387389 rxn_smarts="[O:1]([C:2]([C:3]([C:4](=[O:5])[H:11])([H:9])[H:10])([H:7])[H:8])[H:6]>>[O:1]([C:2]([O:5][C:4](=[C:3]([H:9])[H:10])[H:11])([H:7])[H:8])[H:6]"
O       -1.70231558       1.24527867       0.12769050
C       -1.16742808      -0.05977382       0.09973036
C        1.20772856      -0.82737938      -0.46525794
C        1.20039927       0.20744397       0.49433443
O        0.48110445      -0.05274722       1.52465895
H       -1.53003167       2.19351674       0.16828997
H       -1.17195944      -1.18409697       0.21261326
H       -1.78466071      -0.28459324      -0.83135337
H        1.89220719      -0.62456750      -1.31904717
H        1.26244869      -1.85439818      -0.09101405
H        1.31250731       1.24131693       0.07935506
11
Frame=13 idx=000619 GeodesicLength=1.5226243881455386 rxn_smarts="[O:1]([C:2]([C:3]([C:4](=[O:5])[H:11])([H:9])[H:10])([H:7])[H:8])[H:6]>>[O:1]([C:2]([O:5][C:4](=[C:3]([H:9])[H:10])[H:11])([H:7])[H:8])[H:6]"
O       -1.60596020       1.26246954       0.04311341
C       -1.15468902      -0.08513763       0.08149339
C        1.20613656      -0.81169572      -0.46301276
C        1.19768280       0.20880639       0.51673674
O        0.46154528      -0.08101054       1.52926696
H       -1.46423831       2.21115428       0.14810339
H       -1.19577707      -1.21657873       0.17952660
H       -1.92785821      -0.32446146      -0.72984284
H        1.87948285      -0.57533531      -1.32040328
H        1.31521224      -1.83812237      -0.09590222
H        1.28846308       1.24991155       0.11092060
11
Frame=14 idx=000619 GeodesicLength=1.638902874749909 rxn_smarts="[O:1]([C:2]([C:3]([C:4](=[O:5])[H:11])([H:9])[H:10])([H:7])[H:8])[H:6]>>[O:1]([C:2]([O:5][C:4](=[C:3]([H:9])[H:10])[H:11])([H:7])[H:8])[H:6]"
O       -1.50487292       1.27078409      -0.05266133
C       -1.13998560      -0.11059955       0.05898267
C        1.20763134      -0.79655880      -0.46048010
C        1.19617227       0.20664360       0.54184104
O        0.43974577      -0.11365242       1.53224564
H       -1.41491723       2.21840852       0.10959464
H       -1.21991400      -1.24859441       0.12835851
H       -2.07073231      -0.33704726      -0.58211962
H        1.86851747      -0.52377095      -1.32010300
H        1.36896146      -1.82114450      -0.10434220
H        1.26939376       1.25553169       0.14868375
11
Frame=15 idx=000619 GeodesicLength=1.7504880295930618 rxn_smarts="[O:1]([C:2]([C:3]([C:4](=[O:5])[H:11])([H:9])[H:10])([H:7])[H:8])[H:6]>>[O:1]([C:2]([O:5][C:4](=[C:3]([H:9])[H:10])[H:11])([H:7])[H:8])[H:6]"
O       -1.40703882       1.26708960      -0.15270207
C       -1.12388961      -0.13646260       0.03672980
C        1.21125549      -0.78135107      -0.45761099
C        1.19392195       0.20065025       0.57010724
O        0.41615331      -0.15368400       1.53440890
H       -1.37947761       2.21380546       0.04048291
H       -1.25009862      -1.27835773       0.04633447
H       -2.19113700      -0.31808387      -0.37698508
H        1.85827982      -0.46849910      -1.31742482
H        1.42198786      -1.80338990      -0.11719298
H        1.25004323       1.25828295       0.19385261
11
Frame=16 idx=000619 GeodesicLength=1.858072842693484 rxn_smarts="[O:1]([C:2]([C:3]([C:4](=[O:5])[H:11])([H:9])[H:10])([H:7])[H:8])[H:6]>>[O:1]([C:2]([O:5][C:4](=[C:3]([H:9])[H:10])[H:11])([H:7])[H:8])[H:6]"
O       -1.32757302       1.25282866      -0.24163903
C       -1.10517909      -0.16149204       0.01539011
C        1.21575537      -0.76924731      -0.45321930
C        1.18990611       0.19415453       0.59664576
O        0.39377610      -0.19539771       1.53465836
H       -1.35883666       2.19937514      -0.04187753
H       -1.29949240      -1.29611443      -0.06532193
H       -2.25331001      -0.27777170      -0.14114730
H        1.85040749      -0.41870212      -1.31102341
H        1.47070791      -1.78695673      -0.12724034
H        1.22383819       1.25932370       0.23477462
