14
Frame=0 idx=000169 GeodesicLength=0.0 rxn_smarts="[C:1]([C:2]([O:3][C:4]([C:5](=[O:6])[H:14])([H:12])[H:13])([H:10])[H:11])([H:7])([H:8])[H:9]>>[C:1]([C:2]([O:3][C:4]([O+:6]=[C-:5][H:14])([H:12])[H:13])([H:10])[H:11])([H:7])([H:8])[H:9]"
C       -2.11132538      -0.39376628      -0.50054553
C       -0.61849909      -0.26594832      -0.65583889
O       -0.17556377       0.84350684       0.15304211
C        1.08708115       1.12814748       0.16029029
C        1.94299930      -0.66375950       1.06452759
O        2.56920225       0.40475360       1.30141567
H       -2.62977780       0.50302146      -0.84172889
H       -2.37501006      -0.57557025       0.54156798
H       -2.46294610      -1.23965872      -1.09291593
H       -0.05967590      -1.13266672      -0.29074749
H       -0.32529979      -0.06872929      -1.69059911
H        1.27539009       2.03222394       0.72323025
H        1.68969246       0.88824262      -0.70468610
H        2.19373269      -1.45979683       1.83298810
14
Frame=1 idx=000169 GeodesicLength=0.04682223608903373 rxn_smarts="[C:1]([C:2]([O:3][C:4]([C:5](=[O:6])[H:14])([H:12])[H:13])([H:10])[H:11])([H:7])([H:8])[H:9]>>[C:1]([C:2]([O:3][C:4]([O+:6]=[C-:5][H:14])([H:12])[H:13])([H:10])[H:11])([H:7])([H:8])[H:9]"
C       -2.11111967      -0.39417862      -0.50058797
C       -0.61747376      -0.26801493      -0.65095187
O       -0.17442634       0.83444271       0.16468820
C        1.09451562       1.11455638       0.17082297
C        1.96141011      -0.65754932       1.04435709
O        2.57272685       0.41168282       1.30667023
H       -2.62586982       0.50618128      -0.83790737
H       -2.37807775      -0.58092501       0.53983993
H       -2.46342908      -1.23582441      -1.09860475
H       -0.06532692      -1.14183521      -0.29213565
H       -0.32200518      -0.06692056      -1.68460335
H        1.27705757       2.03289900       0.71358086
H        1.68646259       0.89150388      -0.70706890
H        2.16555579      -1.44601802       1.83190059
14
Frame=2 idx=000169 GeodesicLength=0.09368537442682243 rxn_smarts="[C:1]([C:2]([O:3][C:4]([C:5](=[O:6])[H:14])([H:12])[H:13])([H:10])[H:11])([H:7])([H:8])[H:9]>>[C:1]([C:2]([O:3][C:4]([O+:6]=[C-:5][H:14])([H:12])[H:13])([H:10])[H:11])([H:7])([H:8])[H:9]"
C       -2.11079342      -0.39448511      -0.50055200
C       -0.61632168      -0.27013835      -0.64587540
O       -0.17326385       0.82570115       0.17597471
C        1.10197849       1.10142067       0.18093913
C        1.97859714      -0.65060004       1.02627156
O        2.57494458       0.41880456       1.31327787
H       -2.62177251       0.50929837      -0.83440419
H       -2.38114645      -0.58571893       0.53821201
H       -2.46374241      -1.23208411      -1.10389373
H       -0.07092610      -1.15080113      -0.29293917
H       -0.31845095      -0.06567120      -1.67846606
H        1.27855470       2.03366804       0.70306345
H        1.68343784       0.89405522      -0.70887983
H        2.13890460      -1.43344915       1.82727164
14
Frame=3 idx=000169 GeodesicLength=0.14062537784958057 rxn_smarts="[C:1]([C:2]([O:3][C:4]([C:5](=[O:6])[H:14])([H:12])[H:13])([H:10])[H:11])([H:7])([H:8])[H:9]>>[C:1]([C:2]([O:3][C:4]([O+:6]=[C-:5][H:14])([H:12])[H:13])([H:10])[H:11])([H:7])([H:8])[H:9]"
C       -2.11036140      -0.39468932      -0.50044135
C       -0.61506668      -0.27228306      -0.64065426
O       -0.17209314       0.81725350       0.18692291
C        1.10944902       1.08872590       0.19064789
C        1.99471271      -0.64300863       1.00997050
O        2.57593913       0.42604752       1.32105775
H       -2.61753206       0.51237778      -0.83113396
H       -2.38418509      -0.59003939       0.53666585
H       -2.46390538      -1.22839418      -1.10883453
H       -0.07646927      -1.15954778      -0.29329295
H       -0.31470440      -0.06486328      -1.67221600
H        1.27987939       2.03443334       0.69176503
H        1.68059628       0.89596408      -0.71021680
H        2.11374089      -1.42197648       1.81975991
14
Frame=4 idx=000169 GeodesicLength=0.18759209584710965 rxn_smarts="[C:1]([C:2]([O:3][C:4]([C:5](=[O:6])[H:14])([H:12])[H:13])([H:10])[H:11])([H:7])([H:8])[H:9]>>[C:1]([C:2]([O:3][C:4]([O+:6]=[C-:5][H:14])([H:12])[H:13])([H:10])[H:11])([H:7])([H:8])[H:9]"
C       -2.10984169      -0.39480842      -0.50026583
C       -0.61373434      -0.27442187      -0.63534678
O       -0.17091590       0.80906286       0.19758487
C        1.11692215       1.07646416       0.19996316
C        2.00989845      -0.63491397       0.99519561
O        2.57589860       0.43331370       1.32970307
H       -2.61319078       0.51543339      -0.82801148
H       -2.38717065      -0.59400170       0.53519790
H       -2.46394604      -1.22473403      -1.11350882
H       -0.08195778      -1.16808705      -0.29335293
H       -0.31084001      -0.06435840      -1.66591722
H        1.28105461       2.03509248       0.67988235
H        1.67789174       0.89731872      -0.71121010
H        2.08993165      -1.41135987       1.81008619
14
Frame=5 idx=000169 GeodesicLength=0.23458091113508467 rxn_smarts="[C:1]([C:2]([O:3][C:4]([C:5](=[O:6])[H:14])([H:12])[H:13])([H:10])[H:11])([H:7])([H:8])[H:9]>>[C:1]([C:2]([O:3][C:4]([O+:6]=[C-:5][H:14])([H:12])[H:13])([H:10])[H:11])([H:7])([H:8])[H:9]"
C       -2.10925560      -0.39483367      -0.50004440
C       -0.61234335      -0.27656114      -0.62994869
O       -0.16974859       0.80111420       0.20799177
C        1.12437913       1.06463428       0.20890839
C        2.02427506      -0.62636914       0.98175341
O        2.57486963       0.44058824       1.33913243
H       -2.60875201       0.51849349      -0.82504680
H       -2.39013967      -0.59761668       0.53378614
H       -2.46388948      -1.22108262      -1.11796137
H       -0.08742568      -1.17644442      -0.29311348
H       -0.30686347      -0.06416063      -1.65956518
H        1.28207267       2.03562487       0.66748839
H        1.67530135       0.89818425      -0.71192156
H        2.06752000      -1.40157101       1.79854097
14
Frame=6 idx=000169 GeodesicLength=0.28159488870204963 rxn_smarts="[C:1]([C:2]([O:3][C:4]([C:5](=[O:6])[H:14])([H:12])[H:13])([H:10])[H:11])([H:7])([H:8])[H:9]>>[C:1]([C:2]([O:3][C:4]([O+:6]=[C-:5][H:14])([H:12])[H:13])([H:10])[H:11])([H:7])([H:8])[H:9]"
C       -2.10860283      -0.39477517      -0.49977655
C       -0.61089471      -0.27870862      -0.62447021
O       -0.16858326       0.79335369       0.21820308
C        1.13182094       1.05321892       0.21749359
C        2.03800256      -0.61745212       0.96942334
O        2.57297348       0.44782783       1.34916419
H       -2.60421582       0.52158905      -0.82214083
H       -2.39307928      -0.60099852       0.53241997
H       -2.46374903      -1.21738623      -1.12227642
H       -0.09286514      -1.18465294      -0.29263829
H       -0.30279124      -0.06422196      -1.65316929
H        1.28293988       2.03597912       0.65469254
H        1.67279193       0.89862750      -0.71244217
H        2.04625254      -1.39240057       1.78551705
14
Frame=7 idx=000169 GeodesicLength=0.3286822902417542 rxn_smarts="[C:1]([C:2]([O:3][C:4]([C:5](=[O:6])[H:14])([H:12])[H:13])([H:10])[H:11])([H:7])([H:8])[H:9]>>[C:1]([C:2]([O:3][C:4]([O+:6]=[C-:5][H:14])([H:12])[H:13])([H:10])[H:11])([H:7])([H:8])[H:9]"
C       -2.10790107      -0.39462044      -0.49948305
C       -0.60940160      -0.28087810      -0.61888586
O       -0.16743242       0.78576357       0.22823879
C        1.13923514       1.04220560       0.22574233
C        2.05115549      -0.60816603       0.95808312
O        2.57022179       0.45503746       1.35976020
H       -2.59957030       0.52473411      -0.81932580
H       -2.39603964      -0.60413116       0.53105983
H       -2.46354433      -1.21361827      -1.12648197
H       -0.09831490      -1.19272482      -0.29187682
H       -0.29860948      -0.06458266      -1.64669106
H        1.28365191       2.03613323       0.64154306
H        1.67034786       0.89868150      -0.71279093
H        2.02620155      -1.38383399       1.77110816
14
Frame=8 idx=000169 GeodesicLength=0.37583564856964674 rxn_smarts="[C:1]([C:2]([O:3][C:4]([C:5](=[O:6])[H:14])([H:12])[H:13])([H:10])[H:11])([H:7])([H:8])[H:9]>>[C:1]([C:2]([O:3][C:4]([O+:6]=[C-:5][H:14])([H:12])[H:13])([H:10])[H:11])([H:7])([H:8])[H:9]"
C       -2.10714923      -0.39438724      -0.49916158
C       -0.60787251      -0.28304909      -0.61323663
O       -0.16628776       0.77831934       0.23810814
C        1.14663056       1.03156758       0.23365819
C        2.06378446      -0.59857677       0.94763831
O        2.56674008       0.46215972       1.37073831
H       -2.59484538       0.52791497      -0.81652118
H       -2.39897360      -0.60710540       0.52969969
H       -2.46328348      -1.20976042      -1.13061377
H       -0.10375820      -1.20064853      -0.29093940
H       -0.29437141      -0.06515259      -1.64016470
H        1.28423179       2.03602391       0.62815997
H        1.66796087       0.89836282      -0.71301957
H        2.00719382      -1.37566829       1.75565422
14
Frame=9 idx=000169 GeodesicLength=0.4230091264616083 rxn_smarts="[C:1]([C:2]([O:3][C:4]([C:5](=[O:6])[H:14])([H:12])[H:13])([H:10])[H:11])([H:7])([H:8])[H:9]>>[C:1]([C:2]([O:3][C:4]([O+:6]=[C-:5][H:14])([H:12])[H:13])([H:10])[H:11])([H:7])([H:8])[H:9]"
C       -2.10636454      -0.39405725      -0.49883247
C       -0.60631447      -0.28525047      -0.60749297
O       -0.16517123       0.77102442       0.24784006
C        1.15398560       1.02131606       0.24126663
C        2.07596458      -0.58870563       0.93798309
O        2.56253022       0.46920057       1.38208592
H       -2.59002108       0.53117060      -0.81380644
H       -2.40195471      -0.60985576       0.52833416
H       -2.46297213      -1.20582225      -1.13468424
H       -0.10923518      -1.20847518      -0.28973917
H       -0.29003694      -0.06600654      -1.63357756
H        1.28464819       2.03568881       0.61460452
H        1.66560840       0.89773504      -0.71316579
H        1.98933328      -1.36796243       1.73918428
14
Frame=10 idx=000169 GeodesicLength=0.47022004822640584 rxn_smarts="[C:1]([C:2]([O:3][C:4]([C:5](=[O:6])[H:14])([H:12])[H:13])([H:10])[H:11])([H:7])([H:8])[H:9]>>[C:1]([C:2]([O:3][C:4]([O+:6]=[C-:5][H:14])([H:12])[H:13])([H:10])[H:11])([H:7])([H:8])[H:9]"
C       -2.10554894      -0.39363157      -0.49850026
C       -0.60472722      -0.28749772      -0.60164361
O       -0.16408126       0.76384753       0.25746795
C        1.16130046       1.01143531       0.24857970
C        2.08778121      -0.57857491       0.92901133
O        2.55763516       0.47614640       1.39373836
H       -2.58508424       0.53451780      -0.81115623
H       -2.40499783      -0.61241356       0.52694788
H       -2.46261499      -1.20177624      -1.13873099
H       -0.11475444      -1.21622940      -0.28826800
H       -0.28559818      -0.06715214      -1.62691452
H        1.28490013       2.03512007       0.60092720
H        1.66327467       0.89683237      -0.71326340
H        1.97251547      -1.36062395       1.72180458
14
Frame=11 idx=000169 GeodesicLength=0.5175475112417248 rxn_smarts="[C:1]([C:2]([O:3][C:4]([C:5](=[O:6])[H:14])([H:12])[H:13])([H:10])[H:11])([H:7])([H:8])[H:9]>>[C:1]([C:2]([O:3][C:4]([O+:6]=[C-:5][H:14])([H:12])[H:13])([H:10])[H:11])([H:7])([H:8])[H:9]"
C       -2.10470982      -0.39309691      -0.49819063
C       -0.60312155      -0.28981218      -0.59564647
O       -0.16302244       0.75676403       0.26701271
C        1.16856416       1.00190733       0.25562931
C        2.09928372      -0.56816007       0.92062461
O        2.55206349       0.48299789       1.40565833
H       -2.57999811       0.53794751      -0.80864738
H       -2.40815114      -0.61471010       0.52548819
H       -2.46221957      -1.19761326      -1.14275503
H       -0.12036507      -1.22391267      -0.28644070
H       -0.28103672      -0.06866097      -1.62010832
H        1.28498323       2.03429055       0.58719287
H        1.66092410       0.89569108      -0.71329592
H        1.95680571      -1.35363223       1.70347843
14
Frame=12 idx=000169 GeodesicLength=0.5648998718138694 rxn_smarts="[C:1]([C:2]([O:3][C:4]([C:5](=[O:6])[H:14])([H:12])[H:13])([H:10])[H:11])([H:7])([H:8])[H:9]>>[C:1]([C:2]([O:3][C:4]([O+:6]=[C-:5][H:14])([H:12])[H:13])([H:10])[H:11])([H:7])([H:8])[H:9]"
C       -2.10385136      -0.39246163      -0.49789533
C       -0.60149942      -0.29218022      -0.58953700
O       -0.16200683       0.74979687       0.27646627
C        1.17577537       0.99273277       0.26241671
C        2.11048276      -0.55752031       0.91279709
O        2.54585951       0.48971375       1.41778297
H       -2.57479613       0.54146547      -0.80626744
H       -2.41140328      -0.61676390       0.52399256
H       -2.46177744      -1.19336493      -1.14674716
H       -0.12604733      -1.23153993      -0.28431704
H       -0.27636890      -0.07048171      -1.61321862
H        1.28489659       2.03322834       0.57346115
H        1.65856997       0.89433447      -0.71330979
H        1.94216649      -1.34695905       1.68437563
14
Frame=13 idx=000169 GeodesicLength=0.6122900214344418 rxn_smarts="[C:1]([C:2]([O:3][C:4]([C:5](=[O:6])[H:14])([H:12])[H:13])([H:10])[H:11])([H:7])([H:8])[H:9]>>[C:1]([C:2]([O:3][C:4]([O+:6]=[C-:5][H:14])([H:12])[H:13])([H:10])[H:11])([H:7])([H:8])[H:9]"
C       -2.10297383      -0.39173259      -0.49761718
C       -0.59987016      -0.29458643      -0.58333450
O       -0.16103599       0.74294934       0.28581454
C        1.18293449       0.98389011       0.26895689
C        2.12136755      -0.54667328       0.90550337
O        2.53906290       0.49626741       1.43004965
H       -2.56949304       0.54504565      -0.80401961
H       -2.41473244      -0.61857303       0.52245579
H       -2.46128930      -1.18904704      -1.15069259
H       -0.13180325      -1.23909060      -0.28194018
H       -0.27162509      -0.07258011      -1.60625606
H        1.28465800       2.03191774       0.55978077
H        1.65620995       0.89276646      -0.71330192
H        1.92859021      -1.34055361       1.66460103
14
Frame=14 idx=000169 GeodesicLength=0.6596995249010045 rxn_smarts="[C:1]([C:2]([O:3][C:4]([C:5](=[O:6])[H:14])([H:12])[H:13])([H:10])[H:11])([H:7])([H:8])[H:9]>>[C:1]([C:2]([O:3][C:4]([O+:6]=[C-:5][H:14])([H:12])[H:13])([H:10])[H:11])([H:7])([H:8])[H:9]"
C       -2.10208399      -0.39090974      -0.49736272
C       -0.59824096      -0.29702734      -0.57704533
O       -0.16012029       0.73623042       0.29505207
C        1.19003613       0.97536995       0.27526586
C        2.13194634      -0.53564000       0.89870440
O        2.53169881       0.50263736       1.44241634
H       -2.56409724       0.54868042      -0.80193717
H       -2.41814937      -0.62011063       0.52087774
H       -2.46075623      -1.18468262      -1.15457589
H       -0.13764170      -1.24656473      -0.27931216
H       -0.26680970      -0.07495318      -1.59922752
H        1.28426720       2.03036813       0.54620143
H        1.65384147       0.89101166      -0.71327748
H        1.91610954      -1.33440970       1.64422045
14
Frame=15 idx=000169 GeodesicLength=0.7071176925798077 rxn_smarts="[C:1]([C:2]([O:3][C:4]([C:5](=[O:6])[H:14])([H:12])[H:13])([H:10])[H:11])([H:7])([H:8])[H:9]>>[C:1]([C:2]([O:3][C:4]([O+:6]=[C-:5][H:14])([H:12])[H:13])([H:10])[H:11])([H:7])([H:8])[H:9]"
C       -2.10118323      -0.38999788      -0.49713418
C       -0.59661699      -0.29949540      -0.57068009
O       -0.15926485       0.72964626       0.30417382
C        1.19707829       0.96715966       0.28135818
C        2.14222567      -0.52444315       0.89236346
O        2.52379996       0.50879879       1.45483733
H       -2.55861865       0.55235557      -0.80003631
H       -2.42164780      -0.62136616       0.51926133
H       -2.46017607      -1.18029356      -1.15838280
H       -0.14356381      -1.25395651      -0.27645187
H       -0.26193573      -0.07758353      -1.59214272
H        1.28373313       2.02858525       0.53276604
H        1.65146182       0.88908898      -0.71323975
H        1.90470827      -1.32849832       1.62330757
14
Frame=16 idx=000169 GeodesicLength=0.7545329090678333 rxn_smarts="[C:1]([C:2]([O:3][C:4]([C:5](=[O:6])[H:14])([H:12])[H:13])([H:10])[H:11])([H:7])([H:8])[H:9]>>[C:1]([C:2]([O:3][C:4]([O+:6]=[C-:5][H:14])([H:12])[H:13])([H:10])[H:11])([H:7])([H:8])[H:9]"
C       -2.10027315      -0.38900205      -0.49693397
C       -0.59500258      -0.30198422      -0.56424763
O       -0.15847489       0.72320171       0.31317749
C        1.20405914       0.95924736       0.28724886
C        2.15221133      -0.51310612       0.88644525
O        2.51540468       0.51472824       1.46726444
H       -2.55306620       0.55605844      -0.79833322
H       -2.42522407      -0.62233089       0.51760921
H       -2.45954664      -1.17590156      -1.16210114
H       -0.14957026      -1.26126206      -0.27337581
H       -0.25701317      -0.08045469      -1.58500969
H        1.28306304       2.02657798       0.51951470
H        1.64906823       0.88701887      -0.71319060
H        1.89436454      -1.32279103       1.60193212
