20
Frame=0 idx=009804 GeodesicLength=0.0 rxn_smarts="[C:1]([C:2]([C:3]([N:4]1[C:5]([H:15])([H:16])[C@:6]1([C:7]([H:18])([H:19])[H:20])[H:17])([H:13])[H:14])([H:11])[H:12])([H:8])([H:9])[H:10]>>[C:1]([C:2]([C:3]([N+:4]([C-:5]([H:15])[H:16])=[C:6]([C:7]([H:18])([H:19])[H:20])[H:17])([H:13])[H:14])([H:11])[H:12])([H:8])([H:9])[H:10]"
C        2.81050345      -0.56063235      -0.03405514
C        1.46857770      -0.02897269       0.44876916
C        0.51254873       0.24852147      -0.70118847
N       -0.76579407       0.76674864      -0.25469160
C       -1.57829966       1.69717918      -0.82124123
C       -1.63914018       0.27014257       0.64732156
C       -2.03736926      -1.17056023       0.64577728
H        3.30331033       0.15197600      -0.69986562
H        2.69308579      -1.49835338      -0.58275928
H        3.48404496      -0.75045761       0.80284298
H        1.00948599      -0.74620362       1.13503111
H        1.60615057       0.89389669       1.01832872
H        0.36641301      -0.65852515      -1.30295207
H        0.92363644       1.00410422      -1.37664959
H       -2.49319440       1.37872097      -1.30113900
H       -1.24410153       2.72597935      -0.94521511
H       -1.99517031       0.94187929       1.41323229
H       -2.63381770      -1.42038377       1.52265443
H       -2.62939120      -1.41725330      -0.24440055
H       -1.16147865      -1.82780628       0.63020012
20
Frame=1 idx=009804 GeodesicLength=0.0960974849696357 rxn_smarts="[C:1]([C:2]([C:3]([N:4]1[C:5]([H:15])([H:16])[C@:6]1([C:7]([H:18])([H:19])[H:20])[H:17])([H:13])[H:14])([H:11])[H:12])([H:8])([H:9])[H:10]>>[C:1]([C:2]([C:3]([N+:4]([C-:5]([H:15])[H:16])=[C:6]([C:7]([H:18])([H:19])[H:20])[H:17])([H:13])[H:14])([H:11])[H:12])([H:8])([H:9])[H:10]"
C        2.82979223      -0.54265479      -0.04590668
C        1.46333853      -0.08218814       0.44205948
C        0.52769890       0.26454560      -0.70413758
N       -0.77096920       0.73957165      -0.28152607
C       -1.59297733       1.66055046      -0.85112076
C       -1.63382832       0.28677986       0.65145495
C       -2.06065102      -1.14463807       0.69068575
H        3.32257131       0.23261115      -0.63768101
H        2.74844429      -1.43412802      -0.67282102
H        3.48708728      -0.78646909       0.78989375
H        1.00981054      -0.86613271       1.05446215
H        1.56262891       0.79389645       1.08792386
H        0.40837163      -0.60068352      -1.36953444
H        0.95440497       1.06617284      -1.31481243
H       -2.51212106       1.33661911      -1.31882206
H       -1.25557871       2.68352550      -1.00567766
H       -1.97287073       0.98178478       1.40452654
H       -2.69691354      -1.34682237       1.55189180
H       -2.61967105      -1.42467507      -0.21045144
H       -1.19856763      -1.81766563       0.73959287
20
Frame=2 idx=009804 GeodesicLength=0.19204298708961076 rxn_smarts="[C:1]([C:2]([C:3]([N:4]1[C:5]([H:15])([H:16])[C@:6]1([C:7]([H:18])([H:19])[H:20])[H:17])([H:13])[H:14])([H:11])[H:12])([H:8])([H:9])[H:10]>>[C:1]([C:2]([C:3]([N+:4]([C-:5]([H:15])[H:16])=[C:6]([C:7]([H:18])([H:19])[H:20])[H:17])([H:13])[H:14])([H:11])[H:12])([H:8])([H:9])[H:10]"
C        2.84731355      -0.52547336      -0.05516997
C        1.45573246      -0.14182820       0.42896350
C        0.54340414       0.28402895      -0.70777797
N       -0.77697176       0.70905716      -0.31195999
C       -1.60871372       1.62008972      -0.88495397
C       -1.62677242       0.30490230       0.65356884
C       -2.08053547      -1.11557315       0.74080805
H        3.33815536       0.31062636      -0.55931521
H        2.80620635      -1.35786574      -0.76225372
H        3.48642309      -0.82974931       0.77487432
H        1.00841880      -0.99058280       0.95247655
H        1.51285649       0.67435824       1.15329402
H        0.45779103      -0.52695941      -1.44267323
H        0.98297090       1.13474852      -1.23885824
H       -2.53284103       1.28969743      -1.33785827
H       -1.27028899       2.63693675      -1.07047455
H       -1.94827943       1.02519204       1.39076703
H       -2.75467325      -1.26644446       1.58371448
H       -2.60644018      -1.43642023      -0.16621041
H       -1.23375592      -1.79874081       0.85903872
20
Frame=3 idx=009804 GeodesicLength=0.2864193621935913 rxn_smarts="[C:1]([C:2]([C:3]([N:4]1[C:5]([H:15])([H:16])[C@:6]1([C:7]([H:18])([H:19])[H:20])[H:17])([H:13])[H:14])([H:11])[H:12])([H:8])([H:9])[H:10]>>[C:1]([C:2]([C:3]([N+:4]([C-:5]([H:15])[H:16])=[C:6]([C:7]([H:18])([H:19])[H:20])[H:17])([H:13])[H:14])([H:11])[H:12])([H:8])([H:9])[H:10]"
C        2.86150524      -0.51112077      -0.06164462
C        1.44528283      -0.20722142       0.40814028
C        0.55918384       0.30857015      -0.71063802
N       -0.78379492       0.67611746      -0.34510881
C       -1.62574408       1.57580331      -0.92290000
C       -1.61877667       0.32488605       0.65287119
C       -2.09426589      -1.08350070       0.79610128
H        3.34801280       0.38060840      -0.46461582
H        2.86373330      -1.27043617      -0.84784780
H        3.48090555      -0.88220560       0.75606001
H        1.00465944      -1.11512572       0.82705719
H        1.45785538       0.53444240       1.21030965
H        0.51468079      -0.43260514      -1.51894926
H        1.00697347       1.20925694      -1.14474991
H       -2.55456584       1.23702990      -1.35958294
H       -1.28853168       2.58609536      -1.14036558
H       -1.92426093       1.07193208       1.37037765
H       -2.80488949      -1.18109695       1.61680212
H       -2.58546131      -1.45404776      -0.11103953
H       -1.26250182      -1.76738182       0.98972290
20
Frame=4 idx=009804 GeodesicLength=0.37850585847695284 rxn_smarts="[C:1]([C:2]([C:3]([N:4]1[C:5]([H:15])([H:16])[C@:6]1([C:7]([H:18])([H:19])[H:20])[H:17])([H:13])[H:14])([H:11])[H:12])([H:8])([H:9])[H:10]>>[C:1]([C:2]([C:3]([N+:4]([C-:5]([H:15])[H:16])=[C:6]([C:7]([H:18])([H:19])[H:20])[H:17])([H:13])[H:14])([H:11])[H:12])([H:8])([H:9])[H:10]"
C        2.87050983      -0.50199095      -0.06557929
C        1.43148763      -0.27597087       0.37846511
C        0.57413457       0.33923308      -0.71103995
N       -0.79131629       0.64208705      -0.37986162
C       -1.64396368       1.52826751      -0.96466323
C       -1.61116743       0.34691397       0.64835397
C       -2.09861550      -1.04901321       0.85576331
H        3.35138690       0.43572168      -0.35487865
H        2.91810681      -1.17450900      -0.92594780
H        3.46846613      -0.94538129       0.73176958
H        0.99696707      -1.23216493       0.67896600
H        1.39890477       0.37728706       1.25346312
H        0.57807334      -0.31480595      -1.59226787
H        1.02372287       1.28638329      -1.03004922
H       -2.57647389       1.17882319      -1.38454940
H       -1.30981005       2.53134885      -1.21483327
H       -1.90428961       1.12119035       1.34219220
H       -2.84514839      -1.09455000       1.64883867
H       -2.55117719      -1.47882280      -0.04489806
H       -1.27979789      -1.72004703       1.13075642
20
Frame=5 idx=009804 GeodesicLength=0.4678295936994903 rxn_smarts="[C:1]([C:2]([C:3]([N:4]1[C:5]([H:15])([H:16])[C@:6]1([C:7]([H:18])([H:19])[H:20])[H:17])([H:13])[H:14])([H:11])[H:12])([H:8])([H:9])[H:10]>>[C:1]([C:2]([C:3]([N+:4]([C-:5]([H:15])[H:16])=[C:6]([C:7]([H:18])([H:19])[H:20])[H:17])([H:13])[H:14])([H:11])[H:12])([H:8])([H:9])[H:10]"
C        2.87438117      -0.49851752      -0.06784937
C        1.41559001      -0.34361511       0.34113813
C        0.58724843       0.37418308      -0.70671890
N       -0.79898549       0.60777825      -0.41410852
C       -1.66174684       1.47917638      -1.00827178
C       -1.60577662       0.36978540       0.63973302
C       -2.09422990      -1.01354153       0.91669782
H        3.34762651       0.47185348      -0.23768064
H        2.96694206      -1.07491650      -0.99199754
H        3.45106344      -1.01522959       0.70055494
H        0.98695828      -1.33283104       0.51716618
H        1.34008126       0.21206382       1.27859891
H        0.64437703      -0.17820779      -1.65309098
H        1.03029364       1.35836508      -0.89812217
H       -2.59647840       1.11783654      -1.41283833
H       -1.33027481       2.47378290      -1.29142462
H       -1.89148527       1.17029921       1.30684233
H       -2.87415632      -1.01267853       1.67855212
H       -2.50609115      -1.50788976       0.03006825
H       -1.28533703      -1.65769676       1.27275116
20
Frame=6 idx=009804 GeodesicLength=0.5545889302773281 rxn_smarts="[C:1]([C:2]([C:3]([N:4]1[C:5]([H:15])([H:16])[C@:6]1([C:7]([H:18])([H:19])[H:20])[H:17])([H:13])[H:14])([H:11])[H:12])([H:8])([H:9])[H:10]>>[C:1]([C:2]([C:3]([N+:4]([C-:5]([H:15])[H:16])=[C:6]([C:7]([H:18])([H:19])[H:20])[H:17])([H:13])[H:14])([H:11])[H:12])([H:8])([H:9])[H:10]"
C        2.87460585      -0.49900584      -0.07013821
C        1.40003431      -0.40559103       0.29911933
C        0.59773804       0.40948528      -0.69607488
N       -0.80583664       0.57341458      -0.44518002
C       -1.67667698       1.43014776      -1.05069441
C       -1.60370121       0.39166812       0.62782428
C       -2.08493508      -0.97819345       0.97509535
H        3.33721499       0.48975847      -0.12259801
H        3.00888298      -0.97602374      -1.04445702
H        3.43268842      -1.08487877       0.66140402
H        0.97850504      -1.41173776       0.35426196
H        1.28632621       0.04992701       1.28545557
H        0.70834501      -0.03354231      -1.69361016
H        1.02541540       1.41693745      -0.75712389
H       -2.61178400       1.05725039      -1.44356331
H       -1.34544800       2.41457948      -1.36581603
H       -1.88694624       1.21622772       1.26661908
H       -2.89443795      -0.93886439       1.70456656
H       -2.45633114      -1.53651452       0.10917628
H       -1.28365901      -1.58504445       1.40573352
20
Frame=7 idx=009804 GeodesicLength=0.6398681882043356 rxn_smarts="[C:1]([C:2]([C:3]([N:4]1[C:5]([H:15])([H:16])[C@:6]1([C:7]([H:18])([H:19])[H:20])[H:17])([H:13])[H:14])([H:11])[H:12])([H:8])([H:9])[H:10]>>[C:1]([C:2]([C:3]([N+:4]([C-:5]([H:15])[H:16])=[C:6]([C:7]([H:18])([H:19])[H:20])[H:17])([H:13])[H:14])([H:11])[H:12])([H:8])([H:9])[H:10]"
C        2.87333824      -0.50141059      -0.07398677
C        1.38674197      -0.46043306       0.25449264
C        0.60543103       0.44267535      -0.67939367
N       -0.81124705       0.53948269      -0.47155467
C       -1.68794514       1.38197269      -1.09043131
C       -1.60497148       0.41170001       0.61405752
C       -2.07458314      -0.94309674       1.02969067
H        3.32327946       0.49282897      -0.01452986
H        3.04487484      -0.87894406      -1.08536886
H        3.41636143      -1.15042304       0.61429885
H        0.97369806      -1.46992137       0.19658395
H        1.24008797      -0.10419811       1.27669334
H        0.76616838       0.11118104      -1.71249337
H        1.01123841       1.45881807      -0.61402855
H       -2.62186922       0.99826602      -1.47554387
H       -1.35397139       2.35479519      -1.43558270
H       -1.88986333       1.25779004       1.22389093
H       -2.91214237      -0.87296294       1.72453207
H       -2.40362997      -1.56283624       0.18913550
H       -1.28099671      -1.50528392       1.52953816
20
Frame=8 idx=009804 GeodesicLength=0.7250031180817671 rxn_smarts="[C:1]([C:2]([C:3]([N:4]1[C:5]([H:15])([H:16])[C@:6]1([C:7]([H:18])([H:19])[H:20])[H:17])([H:13])[H:14])([H:11])[H:12])([H:8])([H:9])[H:10]>>[C:1]([C:2]([C:3]([N+:4]([C-:5]([H:15])[H:16])=[C:6]([C:7]([H:18])([H:19])[H:20])[H:17])([H:13])[H:14])([H:11])[H:12])([H:8])([H:9])[H:10]"
C        2.87192762      -0.50375570      -0.07955586
C        1.37621984      -0.50936199       0.20763776
C        0.61048403       0.47203756      -0.65770339
N       -0.81515209       0.50549333      -0.49332467
C       -1.69524186       1.33455182      -1.12732060
C       -1.60905231       0.42979205       0.59919272
C       -2.06534252      -0.90756351       1.08108359
H        3.30650264       0.48522200       0.08666586
H        3.07713108      -0.78203347      -1.11650209
H        3.40366186      -1.20959352       0.55986599
H        0.97419898      -1.51158627       0.04342359
H        1.20030846      -0.25193465       1.25459267
H        0.81646055       0.25155607      -1.71187246
H        0.98980318       1.48351067      -0.47244402
H       -2.62687788       0.94120165      -1.50814605
H       -1.35556533       2.29467323      -1.49991463
H       -1.89822164       1.29535469       1.17964435
H       -2.93015411      -0.81289822       1.73881997
H       -2.35005629      -1.58549456       0.27013592
H       -1.28103422      -1.41917119       1.64572136
20
Frame=9 idx=009804 GeodesicLength=0.810961780817869 rxn_smarts="[C:1]([C:2]([C:3]([N:4]1[C:5]([H:15])([H:16])[C@:6]1([C:7]([H:18])([H:19])[H:20])[H:17])([H:13])[H:14])([H:11])[H:12])([H:8])([H:9])[H:10]>>[C:1]([C:2]([C:3]([N+:4]([C-:5]([H:15])[H:16])=[C:6]([C:7]([H:18])([H:19])[H:20])[H:17])([H:13])[H:14])([H:11])[H:12])([H:8])([H:9])[H:10]"
C        2.87067534      -0.50527847      -0.08621023
C        1.36808893      -0.55391062       0.15799015
C        0.61303086       0.49705220      -0.63201167
N       -0.81784512       0.47129871      -0.51108204
C       -1.69891381       1.28763426      -1.16195150
C       -1.61567528       0.44627344       0.58336361
C       -2.05734464      -0.87080803       1.13056221
H        3.28684471       0.46881619       0.18316605
H        3.10709810      -0.68352968      -1.13839115
H        3.39457450      -1.26202078       0.49917159
H        0.98032753      -1.53968509      -0.10846450
H        1.16488235      -0.39667230       1.21974685
H        0.85892927       0.38638176      -1.69443768
H        0.96291677       1.49178917      -0.33353081
H       -2.62738930       0.88568206      -1.54144335
H       -1.35089922       2.23427128      -1.55924341
H       -1.91071940       1.32971681       1.13391564
H       -2.94863109      -0.75732156       1.74898949
H       -2.29567205      -1.60398216       0.35381005
H       -1.28427847      -1.32570715       1.75605068
20
Frame=10 idx=009804 GeodesicLength=0.8982085419781191 rxn_smarts="[C:1]([C:2]([C:3]([N:4]1[C:5]([H:15])([H:16])[C@:6]1([C:7]([H:18])([H:19])[H:20])[H:17])([H:13])[H:14])([H:11])[H:12])([H:8])([H:9])[H:10]>>[C:1]([C:2]([C:3]([N+:4]([C-:5]([H:15])[H:16])=[C:6]([C:7]([H:18])([H:19])[H:20])[H:17])([H:13])[H:14])([H:11])[H:12])([H:8])([H:9])[H:10]"
C        2.86911712      -0.50596824      -0.09277243
C        1.36149523      -0.59500385       0.10469605
C        0.61306553       0.51769100      -0.60333597
N       -0.81982876       0.43696837      -0.52571062
C       -1.69961540       1.24112890      -1.19505450
C       -1.62480773       0.46136662       0.56623348
C       -2.04932176      -0.83225234       1.17932118
H        3.26365564       0.44366374       0.27763062
H        3.13559967      -0.58248911      -1.15005028
H        3.38794000      -1.30811926       0.43371067
H        0.99172264      -1.55512717      -0.26228339
H        1.13127440      -0.54090218       1.17120536
H        0.89370801       0.51537081      -1.66243925
H        0.93186955       1.48446019      -0.19782684
H       -2.62421923       0.83143864      -1.57567277
H       -1.34091718       2.17369723      -1.61434346
H       -1.92647202       1.36138022       1.08639651
H       -2.96568391      -0.70580265       1.75747455
H       -2.23971756      -1.61783478       0.44196287
H       -1.28886424      -1.22366614       1.86085820
20
Frame=11 idx=009804 GeodesicLength=0.9870313976676293 rxn_smarts="[C:1]([C:2]([C:3]([N:4]1[C:5]([H:15])([H:16])[C@:6]1([C:7]([H:18])([H:19])[H:20])[H:17])([H:13])[H:14])([H:11])[H:12])([H:8])([H:9])[H:10]>>[C:1]([C:2]([C:3]([N+:4]([C-:5]([H:15])[H:16])=[C:6]([C:7]([H:18])([H:19])[H:20])[H:17])([H:13])[H:14])([H:11])[H:12])([H:8])([H:9])[H:10]"
C        2.86646296      -0.50629011      -0.09784969
C        1.35553687      -0.63287604       0.04710660
C        0.61044551       0.53409542      -0.57254391
N       -0.82175143       0.40255778      -0.53823754
C       -1.69810070       1.19511404      -1.22736847
C       -1.63672885       0.47495889       0.54713365
C       -2.03950952      -0.79152280       1.22820510
H        3.23588178       0.40874678       0.37218467
H        3.16296355      -0.47885332      -1.14950131
H        3.38233510      -1.34861123       0.36503092
H        1.00795059      -1.55733341      -0.41986053
H        1.09724572      -0.68552812       1.10726753
H        0.92104805       0.63844369      -1.61748867
H        0.89727193       1.46219500      -0.06577126
H       -2.61821502       0.77845988      -1.61131471
H       -1.32649357       2.11314511      -1.66603711
H       -1.94491995       1.39042437       1.03664513
H       -2.97848594      -0.65834115       1.76747992
H       -2.18132307      -1.62646759       0.53591745
H       -1.29161399      -1.11231719       1.95900220
20
Frame=12 idx=009804 GeodesicLength=1.0774600283783895 rxn_smarts="[C:1]([C:2]([C:3]([N:4]1[C:5]([H:15])([H:16])[C@:6]1([C:7]([H:18])([H:19])[H:20])[H:17])([H:13])[H:14])([H:11])[H:12])([H:8])([H:9])[H:10]>>[C:1]([C:2]([C:3]([N+:4]([C-:5]([H:15])[H:16])=[C:6]([C:7]([H:18])([H:19])[H:20])[H:17])([H:13])[H:14])([H:11])[H:12])([H:8])([H:9])[H:10]"
C        2.86199917      -0.50645093      -0.10015569
C        1.34982162      -0.66717906      -0.01430768
C        0.60489751       0.54558623      -0.54046221
N       -0.82427219       0.36741691      -0.54958750
C       -1.69459691       1.14988624      -1.25910372
C       -1.65159039       0.48628577       0.52557339
C       -2.02701990      -0.74857681       1.27720619
H        3.20182399       0.36386728       0.46706688
H        3.18811790      -0.37351027      -1.13482790
H        3.37758261      -1.38275730       0.29498504
H        1.02956708      -1.54549870      -0.57977981
H        1.06245088      -0.82904896       1.02721345
H        0.94037489       0.75378296      -1.56125332
H        0.85895714       1.42528671       0.06103426
H       -2.60991607       0.72796882      -1.64867321
H       -1.30747665       2.05282256      -1.71437871
H       -1.96475891       1.41622767       0.98485820
H       -2.98429006      -0.61400314       1.78309947
H       -2.12261280      -1.62840553       0.63480748
H       -1.28905891      -0.99370043       2.04668538
20
Frame=13 idx=009804 GeodesicLength=1.1698067044472846 rxn_smarts="[C:1]([C:2]([C:3]([N:4]1[C:5]([H:15])([H:16])[C@:6]1([C:7]([H:18])([H:19])[H:20])[H:17])([H:13])[H:14])([H:11])[H:12])([H:8])([H:9])[H:10]>>[C:1]([C:2]([C:3]([N+:4]([C-:5]([H:15])[H:16])=[C:6]([C:7]([H:18])([H:19])[H:20])[H:17])([H:13])[H:14])([H:11])[H:12])([H:8])([H:9])[H:10]"
C        2.85517733      -0.50741492      -0.09932000
C        1.34402966      -0.69659492      -0.07875839
C        0.59653586       0.55328381      -0.50765091
N       -0.82760153       0.33212759      -0.56019127
C       -1.69015527       1.10546196      -1.29026712
C       -1.66925106       0.49471446       0.50162781
C       -2.01073019      -0.70361061       1.32583231
H        3.16251685       0.30728766       0.56126888
H        3.21075256      -0.26910542      -1.10496139
H        3.37203122      -1.41173061       0.22471002
H        1.05498111      -1.51767507      -0.73935943
H        1.02663984      -0.96754032       0.93104256
H        0.95224196       0.86149179      -1.49498299
H        0.81763804       1.37534034       0.18180883
H       -2.59996849       0.67886819      -1.68760129
H       -1.28532473       1.99257370      -1.76012527
H       -1.98564140       1.43819361       0.93152888
H       -2.98216315      -0.57263586       1.80516691
H       -2.06205873      -1.62356981       0.73729063
H       -1.27964985      -0.86946557       2.12294122
20
Frame=14 idx=009804 GeodesicLength=1.2642575974280654 rxn_smarts="[C:1]([C:2]([C:3]([N:4]1[C:5]([H:15])([H:16])[C@:6]1([C:7]([H:18])([H:19])[H:20])[H:17])([H:13])[H:14])([H:11])[H:12])([H:8])([H:9])[H:10]>>[C:1]([C:2]([C:3]([N+:4]([C-:5]([H:15])[H:16])=[C:6]([C:7]([H:18])([H:19])[H:20])[H:17])([H:13])[H:14])([H:11])[H:12])([H:8])([H:9])[H:10]"
C        2.84625558      -0.50909009      -0.09575555
C        1.33875210      -0.72062825      -0.14391308
C        0.58539024       0.55632522      -0.47455332
N       -0.83198567       0.29568540      -0.57021914
C       -1.68459561       1.06235299      -1.31995308
C       -1.68906533       0.49937402       0.47595979
C       -1.99195117      -0.65715940       1.37275322
H        3.11809686       0.24124801       0.65098383
H        3.22856019      -0.16846733      -1.06129022
H        3.36739966      -1.43390012       0.15530815
H        1.08456160      -1.47527126      -0.89255018
H        0.99280909      -1.09663770       0.82205909
H        0.95575066       0.95863604      -1.42087784
H        0.77320181       1.31369232       0.29428350
H       -2.58883761       0.63321005      -1.72710526
H       -1.25944360       1.93276228      -1.80204422
H       -2.00551874       1.45572316       0.87814732
H       -2.97332647      -0.53254260       1.83323461
H       -2.00198566      -1.61154147       0.83992383
H       -1.26406794      -0.74377126       2.18560854
20
Frame=15 idx=009804 GeodesicLength=1.3611602611254114 rxn_smarts="[C:1]([C:2]([C:3]([N:4]1[C:5]([H:15])([H:16])[C@:6]1([C:7]([H:18])([H:19])[H:20])[H:17])([H:13])[H:14])([H:11])[H:12])([H:8])([H:9])[H:10]>>[C:1]([C:2]([C:3]([N+:4]([C-:5]([H:15])[H:16])=[C:6]([C:7]([H:18])([H:19])[H:20])[H:17])([H:13])[H:14])([H:11])[H:12])([H:8])([H:9])[H:10]"
C        2.83532751      -0.51189046      -0.09020927
C        1.33407760      -0.73851056      -0.20871607
C        0.57202419       0.55589246      -0.44186679
N       -0.83707259       0.25869286      -0.57951986
C       -1.67868384       1.02060297      -1.34740562
C       -1.70965162       0.50022160       0.44988946
C       -1.97099654      -0.60973025       1.41710239
H        3.07065497       0.16641154       0.73374131
H        3.24194780      -0.07490369      -1.00566208
H        3.36252201      -1.45001670       0.08822262
H        1.11638119      -1.41854237      -1.03645256
H        0.96134284      -1.21282668       0.70273903
H        0.95175063       1.04527232      -1.34127552
H        0.72696796       1.24266356       0.39740307
H       -2.57721643       0.59006558      -1.76555332
H       -1.23120391       1.87310017      -1.84030305
H       -2.02329858       1.46874701       0.82618886
H       -2.95999165      -0.49454746       1.86349465
H       -1.93941903      -1.59297644       0.94112620
H       -1.24546251      -0.61772545       2.23705654
20
Frame=16 idx=009804 GeodesicLength=1.4611739883900738 rxn_smarts="[C:1]([C:2]([C:3]([N:4]1[C:5]([H:15])([H:16])[C@:6]1([C:7]([H:18])([H:19])[H:20])[H:17])([H:13])[H:14])([H:11])[H:12])([H:8])([H:9])[H:10]>>[C:1]([C:2]([C:3]([N+:4]([C-:5]([H:15])[H:16])=[C:6]([C:7]([H:18])([H:19])[H:20])[H:17])([H:13])[H:14])([H:11])[H:12])([H:8])([H:9])[H:10]"
C        2.82296020      -0.51592029      -0.08350506
C        1.33031978      -0.75062688      -0.27219493
C        0.55684289       0.55203234      -0.40975798
N       -0.84280571       0.22087510      -0.58791539
C       -1.67259011       0.98029785      -1.37209750
C       -1.73023736       0.49756688       0.42437552
C       -1.94892127      -0.56153204       1.45846401
H        3.02118478       0.08465962       0.80769132
H        3.25063157       0.01025190      -0.94052216
H        3.35823703      -1.46031278       0.02358576
H        1.14993902      -1.34969774      -1.16887457
H        0.93358722      -1.31522915       0.57579153
H        0.94056845       1.12108165      -1.25800258
H        0.67957800       1.16392923       0.49067414
H       -2.56574652       0.54995863      -1.80185755
H       -1.20086156       1.81347058      -1.87455739
H       -2.03823554       1.47782278       0.77647991
H       -2.94459660      -0.45924050       1.89289898
H       -1.87269778      -1.56798821       1.04003721
H       -1.22715651      -0.49139896       2.27928670
