14
Frame=0 idx=005801 GeodesicLength=0.0 rxn_smarts="[C:1]([C@:2]12[C:3]([H:10])([H:11])[C:4]([H:12])([H:13])[C@@:5]1([H:14])[O:6]2)([H:7])([H:8])[H:9]>>[C:1]([C:2]1([C:3]([H:10])([H:11])[H:12])[C@:5]([C:4][H:13])([H:14])[O:6]1)([H:7])([H:8])[H:9]"
C       -1.68486129       0.50706567       0.28912502
C       -0.35323722      -0.04921252      -0.10281174
C        0.58612494      -0.61640476       0.94729467
C        1.91220798       0.19216079      -0.64193901
C        0.53823131       0.40830546      -1.15653477
O       -0.28287507      -0.76792072      -1.32124178
H       -1.57078235       1.29618999       1.03415181
H       -2.31191307      -0.27967857       0.71602044
H       -2.19239856       0.91608546      -0.58356695
H        0.48205314      -0.14388340       1.92556613
H        0.57451965      -1.70094627       1.02632856
H        1.67639974      -0.21103351       0.71250769
H        2.29546159      -0.77413264      -1.00425342
H        0.33106921       1.22340503      -1.84064659
14
Frame=1 idx=005801 GeodesicLength=0.05926281970052802 rxn_smarts="[C:1]([C@:2]12[C:3]([H:10])([H:11])[C:4]([H:12])([H:13])[C@@:5]1([H:14])[O:6]2)([H:7])([H:8])[H:9]>>[C:1]([C:2]1([C:3]([H:10])([H:11])[H:12])[C@:5]([C:4][H:13])([H:14])[O:6]1)([H:7])([H:8])[H:9]"
C       -1.68252593       0.51176414       0.28850191
C       -0.35501893      -0.05422212      -0.10337568
C        0.58989188      -0.61817231       0.94314611
C        1.90487161       0.18416469      -0.64271008
C        0.53520628       0.40343760      -1.16222040
O       -0.28837134      -0.77154917      -1.32167227
H       -1.56319921       1.30392974       1.02943943
H       -2.31169283      -0.27041723       0.72057811
H       -2.18999434       0.91963973      -0.58476860
H        0.46143887      -0.17125601       1.93034388
H        0.59903349      -1.70385070       1.00746101
H        1.68532429      -0.17221792       0.73566900
H        2.29178576      -0.78234558      -0.99879982
H        0.32325040       1.22109514      -1.84159262
14
Frame=2 idx=005801 GeodesicLength=0.11853347351063434 rxn_smarts="[C:1]([C@:2]12[C:3]([H:10])([H:11])[C:4]([H:12])([H:13])[C@@:5]1([H:14])[O:6]2)([H:7])([H:8])[H:9]>>[C:1]([C:2]1([C:3]([H:10])([H:11])[H:12])[C@:5]([C:4][H:13])([H:14])[O:6]1)([H:7])([H:8])[H:9]"
C       -1.68016114       0.51638222       0.28788810
C       -0.35691477      -0.05943435      -0.10394771
C        0.59359699      -0.61991219       0.93913891
C        1.89746612       0.17632062      -0.64254970
C        0.53229065       0.39843179      -1.16776962
O       -0.29375303      -0.77527508      -1.32213062
H       -1.55545812       1.31145923       1.02478306
H       -2.31143899      -0.26118442       0.72512513
H       -2.18751431       0.92317615      -0.58595613
H        0.44215785      -0.19852561       1.93410715
H        0.62274937      -1.70612673       0.98939346
H        1.69280308      -0.13420518       0.75770150
H        2.28848771      -0.78980668      -0.99347208
H        0.31568859       1.21870021      -1.84231147
14
Frame=3 idx=005801 GeodesicLength=0.1778261724958111 rxn_smarts="[C:1]([C@:2]12[C:3]([H:10])([H:11])[C:4]([H:12])([H:13])[C@@:5]1([H:14])[O:6]2)([H:7])([H:8])[H:9]>>[C:1]([C:2]1([C:3]([H:10])([H:11])[H:12])[C@:5]([C:4][H:13])([H:14])[O:6]1)([H:7])([H:8])[H:9]"
C       -1.67776979       0.52091854       0.28728107
C       -0.35891134      -0.06482194      -0.10451606
C        0.59720364      -0.62165256       0.93527851
C        1.89001220       0.16866077      -0.64157169
C        0.52948295       0.39331945      -1.17317618
O       -0.29900663      -0.77908358      -1.32260389
H       -1.54758931       1.31878827       1.02017397
H       -2.31115064      -0.25198676       0.72965779
H       -2.18496455       0.92668173      -0.58713574
H        0.42414031      -0.22559130       1.93693757
H        0.64562951      -1.70787241       0.97208443
H        1.69903444      -0.09703828       0.77870009
H        2.28553687      -0.79655111      -0.98829187
H        0.30835236       1.21622917      -1.84281799
14
Frame=4 idx=005801 GeodesicLength=0.23721146247137437 rxn_smarts="[C:1]([C@:2]12[C:3]([H:10])([H:11])[C:4]([H:12])([H:13])[C@@:5]1([H:14])[O:6]2)([H:7])([H:8])[H:9]>>[C:1]([C:2]1([C:3]([H:10])([H:11])[H:12])[C@:5]([C:4][H:13])([H:14])[O:6]1)([H:7])([H:8])[H:9]"
C       -1.67538049       0.52537926       0.28668608
C       -0.36100405      -0.07036124      -0.10507374
C        0.60069321      -0.62341732       0.93155880
C        1.88255812       0.16119782      -0.63988444
C        0.52679070       0.38812269      -1.17843964
O       -0.30413300      -0.78297401      -1.32309508
H       -1.53963947       1.32594529       1.01561833
H       -2.31086414      -0.24282544       0.73417826
H       -2.18238511       0.93014935      -0.58830248
H        0.40730135      -0.25237074       1.93891784
H        0.66766916      -1.70918560       0.95546588
H        1.70423185      -0.06070873       0.79876688
H        2.28293668      -0.80264138      -0.98327562
H        0.30122520       1.21369006      -1.84312105
14
Frame=5 idx=005801 GeodesicLength=0.2963918950153176 rxn_smarts="[C:1]([C@:2]12[C:3]([H:10])([H:11])[C:4]([H:12])([H:13])[C@@:5]1([H:14])[O:6]2)([H:7])([H:8])[H:9]>>[C:1]([C:2]1([C:3]([H:10])([H:11])[H:12])[C@:5]([C:4][H:13])([H:14])[O:6]1)([H:7])([H:8])[H:9]"
C       -1.67290777       0.52974115       0.28607327
C       -0.36315488      -0.07601981      -0.10561656
C        0.60403935      -0.62521643       0.92798453
C        1.87500628       0.15393554      -0.63756938
C        0.52417186       0.38288109      -1.18355114
O       -0.30911550      -0.78686714      -1.32356283
H       -1.53155396       1.33287304       1.01105409
H       -2.31043976      -0.23371762       0.73866226
H       -2.17968635       0.93355277      -0.58948750
H        0.39162323      -0.27885643       1.94008030
H        0.68885070      -1.71007251       0.93954879
H        1.70840079      -0.02524894       0.81798145
H        2.28052570      -0.80808042      -0.97836070
H        0.29424030       1.21109572      -1.84323656
14
Frame=6 idx=005801 GeodesicLength=0.35568601408561074 rxn_smarts="[C:1]([C@:2]12[C:3]([H:10])([H:11])[C:4]([H:12])([H:13])[C@@:5]1([H:14])[O:6]2)([H:7])([H:8])[H:9]>>[C:1]([C:2]1([C:3]([H:10])([H:11])[H:12])[C@:5]([C:4][H:13])([H:14])[O:6]1)([H:7])([H:8])[H:9]"
C       -1.67045690       0.53404192       0.28547865
C       -0.36538724      -0.08179510      -0.10614016
C        0.60724393      -0.62708627       0.92453360
C        1.86749651       0.14688479      -0.63471849
C        0.52167233       0.37758812      -1.18852919
O       -0.31397292      -0.79083411      -1.32405192
H       -1.52342401       1.33968635       1.00652985
H       -2.31003694      -0.22463178       0.74316226
H       -2.17699968       0.93689964      -0.59065853
H        0.37694703      -0.30501524       1.94056553
H        0.70923116      -1.71069239       0.92418171
H        1.71181675       0.00948533       0.83642150
H        2.27843782      -0.81296926      -0.97358674
H        0.28743215       1.20843800      -1.84318807
14
Frame=7 idx=005801 GeodesicLength=0.41504863403048775 rxn_smarts="[C:1]([C@:2]12[C:3]([H:10])([H:11])[C:4]([H:12])([H:13])[C@@:5]1([H:14])[O:6]2)([H:7])([H:8])[H:9]>>[C:1]([C:2]1([C:3]([H:10])([H:11])[H:12])[C@:5]([C:4][H:13])([H:14])[O:6]1)([H:7])([H:8])[H:9]"
C       -1.66791230       0.53827343       0.28487137
C       -0.36768092      -0.08767713      -0.10664052
C        0.61029169      -0.62905847       0.92119443
C        1.85990844       0.14005135      -0.63138090
C        0.51922257       0.37225399      -1.19337094
O       -0.31871612      -0.79481021      -1.32451082
H       -1.51512412       1.34634510       1.00194182
H       -2.30948492      -0.21553283       0.74769252
H       -2.17420979       0.94017323      -0.59184455
H        0.36312190      -0.33095647       1.94039225
H        0.72889948      -1.71105558       0.90932236
H        1.71447130       0.04359476       0.85420494
H        2.27650537      -0.81730001      -0.96887402
H        0.28070742       1.20569886      -1.84299795
14
Frame=8 idx=005801 GeodesicLength=0.474474626140824 rxn_smarts="[C:1]([C@:2]12[C:3]([H:10])([H:11])[C:4]([H:12])([H:13])[C@@:5]1([H:14])[O:6]2)([H:7])([H:8])[H:9]>>[C:1]([C:2]1([C:3]([H:10])([H:11])[H:12])[C@:5]([C:4][H:13])([H:14])[O:6]1)([H:7])([H:8])[H:9]"
C       -1.66535861       0.54244886       0.28428214
C       -0.37003994      -0.09365413      -0.10711878
C        0.61318284      -0.63113598       0.91796328
C        1.85234472       0.13342844      -0.62764160
C        0.51687429       0.36688713      -1.19809803
O       -0.32334596      -0.79883797      -1.32498696
H       -1.50675097       1.35290700       0.99736427
H       -2.30890913      -0.20644033       0.75226262
H       -2.17140859       0.94338325      -0.59301837
H        0.35012630      -0.35661788       1.93965335
H        0.74783750      -1.71123967       0.89491600
H        1.71650428       0.07712661       0.87136063
H        2.27482323      -0.82114989      -0.96425174
H        0.27412003       1.20289455      -1.84268679
14
Frame=9 idx=005801 GeodesicLength=0.533814790690833 rxn_smarts="[C:1]([C@:2]12[C:3]([H:10])([H:11])[C:4]([H:12])([H:13])[C@@:5]1([H:14])[O:6]2)([H:7])([H:8])[H:9]>>[C:1]([C:2]1([C:3]([H:10])([H:11])[H:12])[C@:5]([C:4][H:13])([H:14])[O:6]1)([H:7])([H:8])[H:9]"
C       -1.66275474       0.54656018       0.28369073
C       -0.37244411      -0.09970853      -0.10758235
C        0.61592474      -0.63332392       0.91482448
C        1.84474859       0.12698846      -0.62353622
C        0.51459725       0.36150297      -1.20270235
O       -0.32786580      -0.80286589      -1.32545454
H       -1.49827576       1.35934003       0.99275818
H       -2.30823756      -0.19735619       0.75684648
H       -2.16856270       0.94653033      -0.59418736
H        0.33795536      -0.38200678       1.93833438
H        0.76607154      -1.71125439       0.88095400
H        1.71792559       0.11010096       0.88794727
H        2.27329876      -0.82453273      -0.95964604
H        0.26761882       1.20002550      -1.84224664
14
Frame=10 idx=005801 GeodesicLength=0.5932658716536503 rxn_smarts="[C:1]([C@:2]12[C:3]([H:10])([H:11])[C:4]([H:12])([H:13])[C@@:5]1([H:14])[O:6]2)([H:7])([H:8])[H:9]>>[C:1]([C:2]1([C:3]([H:10])([H:11])[H:12])[C@:5]([C:4][H:13])([H:14])[O:6]1)([H:7])([H:8])[H:9]"
C       -1.66011231       0.55062814       0.28311141
C       -0.37491265      -0.10584183      -0.10802391
C        0.61850854      -0.63565758       0.91177115
C        1.83715800       0.12074483      -0.61911021
C        0.51238829       0.35608990      -1.20720272
O       -0.33230204      -0.80692666      -1.32593292
H       -1.48969024       1.36568510       0.98812912
H       -2.30749473      -0.18824964       0.76147824
H       -2.16568647       0.94963029      -0.59534482
H        0.32646115      -0.40719912       1.93651650
H        0.78368442      -1.71116526       0.86735669
H        1.71882636       0.14268972       0.90403016
H        2.27196897      -0.82750927      -0.95506733
H        0.26120273       1.19708137      -1.84171135
14
Frame=11 idx=005801 GeodesicLength=0.6527622629587096 rxn_smarts="[C:1]([C@:2]12[C:3]([H:10])([H:11])[C:4]([H:12])([H:13])[C@@:5]1([H:14])[O:6]2)([H:7])([H:8])[H:9]>>[C:1]([C:2]1([C:3]([H:10])([H:11])[H:12])[C@:5]([C:4][H:13])([H:14])[O:6]1)([H:7])([H:8])[H:9]"
C       -1.65741062       0.55465694       0.28254490
C       -0.37742010      -0.11206524      -0.10843876
C        0.62094203      -0.63814013       0.90879073
C        1.82952553       0.11471587      -0.61441212
C        0.51024981       0.35064284      -1.21160113
O       -0.33663458      -0.81102614      -1.32639243
H       -1.48095854       1.37197999       0.98343951
H       -2.30666487      -0.17908977       0.76619330
H       -2.16276991       0.95265043      -0.59649133
H        0.31552787      -0.43221794       1.93429463
H        0.80067867      -1.71100538       0.85402651
H        1.71927181       0.17487650       0.91962686
H        2.27080557      -0.83000675      -0.95047606
H        0.25485733       1.19402878      -1.84110460
14
Frame=12 idx=005801 GeodesicLength=0.712350100733029 rxn_smarts="[C:1]([C@:2]12[C:3]([H:10])([H:11])[C:4]([H:12])([H:13])[C@@:5]1([H:14])[O:6]2)([H:7])([H:8])[H:9]>>[C:1]([C:2]1([C:3]([H:10])([H:11])[H:12])[C@:5]([C:4][H:13])([H:14])[O:6]1)([H:7])([H:8])[H:9]"
C       -1.65464515       0.55864255       0.28199277
C       -0.37999084      -0.11834692      -0.10883077
C        0.62320724      -0.64078546       0.90587954
C        1.82189842       0.10885521      -0.60945654
C        0.50816463       0.34517633      -1.21590302
O       -0.34090460      -0.81512917      -1.32685484
H       -1.47209122       1.37816792       0.97870822
H       -2.30571961      -0.16990146       0.77096856
H       -2.15979881       0.95563094      -0.59761201
H        0.30516050      -0.45711133       1.93156799
H        0.81712232      -1.71076779       0.84102960
H        1.71923350       0.20684623       0.93481196
H        2.26977850      -0.83217678      -0.94588172
H        0.24858513       1.19089973      -1.84041975
14
Frame=13 idx=005801 GeodesicLength=0.7719139585229078 rxn_smarts="[C:1]([C@:2]12[C:3]([H:10])([H:11])[C:4]([H:12])([H:13])[C@@:5]1([H:14])[O:6]2)([H:7])([H:8])[H:9]>>[C:1]([C:2]1([C:3]([H:10])([H:11])[H:12])[C@:5]([C:4][H:13])([H:14])[O:6]1)([H:7])([H:8])[H:9]"
C       -1.65179836       0.56258087       0.28144459
C       -0.38258658      -0.12469673      -0.10920231
C        0.62532676      -0.64359834       0.90303225
C        1.81420051       0.10317237      -0.60428141
C        0.50613507       0.33969858      -1.22010902
O       -0.34507990      -0.81923202      -1.32730427
H       -1.46307383       1.38427938       0.97391366
H       -2.30463941      -0.16067865       0.77580751
H       -2.15676987       0.95853593      -0.59872929
H        0.29531889      -0.48181879       1.92849236
H        0.83296571      -1.71052341       0.82827059
H        1.71879257       0.23852169       0.94956624
H        2.26884358      -0.83392632      -0.94122539
H        0.24236486       1.18768545      -1.83967549
14
Frame=14 idx=005801 GeodesicLength=0.8315392974594189 rxn_smarts="[C:1]([C@:2]12[C:3]([H:10])([H:11])[C:4]([H:12])([H:13])[C@@:5]1([H:14])[O:6]2)([H:7])([H:8])[H:9]>>[C:1]([C:2]1([C:3]([H:10])([H:11])[H:12])[C@:5]([C:4][H:13])([H:14])[O:6]1)([H:7])([H:8])[H:9]"
C       -1.64891389       0.56648257       0.28091632
C       -0.38523208      -0.13109284      -0.10955330
C        0.62729780      -0.64657983       0.90023753
C        1.80652021       0.09762877      -0.59891171
C        0.50417360       0.33420770      -1.22422241
O       -0.34919456      -0.82333928      -1.32776272
H       -1.45395691       1.39031455       0.96908953
H       -2.30347497      -0.15142781       0.78070667
H       -2.15373090       0.96139395      -0.59981290
H        0.28596234      -0.50638463       1.92500674
H        0.84827124      -1.71026325       0.81576478
H        1.71800334       0.27004190       0.96393360
H        2.26805292      -0.83538169      -0.93653584
H        0.23622187       1.18439989      -1.83885630
14
Frame=15 idx=005801 GeodesicLength=0.8911899577853007 rxn_smarts="[C:1]([C@:2]12[C:3]([H:10])([H:11])[C:4]([H:12])([H:13])[C@@:5]1([H:14])[O:6]2)([H:7])([H:8])[H:9]>>[C:1]([C:2]1([C:3]([H:10])([H:11])[H:12])[C@:5]([C:4][H:13])([H:14])[O:6]1)([H:7])([H:8])[H:9]"
C       -1.64597567       0.57033285       0.28040341
C       -0.38791266      -0.13752210      -0.10988165
C        0.62911795      -0.64972587       0.89749819
C        1.79882981       0.09220929      -0.59337998
C        0.50227933       0.32871969      -1.22824558
O       -0.35324269      -0.82742627      -1.32822463
H       -1.44474564       1.39624524       0.96424292
H       -2.30219771      -0.14217873       0.78564672
H       -2.15065825       0.96419707      -0.60086981
H        0.27706607      -0.53077595       1.92116344
H        0.86301316      -1.71000528       0.80350436
H        1.71691030       0.30143188       0.97791623
H        2.26735334      -0.83656438      -0.93180696
H        0.23016265       1.18106256      -1.83796667
14
Frame=16 idx=005801 GeodesicLength=0.9508541200694534 rxn_smarts="[C:1]([C@:2]12[C:3]([H:10])([H:11])[C:4]([H:12])([H:13])[C@@:5]1([H:14])[O:6]2)([H:7])([H:8])[H:9]>>[C:1]([C:2]1([C:3]([H:10])([H:11])[H:12])[C@:5]([C:4][H:13])([H:14])[O:6]1)([H:7])([H:8])[H:9]"
C       -1.64299127       0.57412421       0.27990572
C       -0.39062237      -0.14397023      -0.11018740
C        0.63079194      -0.65303435       0.89481022
C        1.79113458       0.08688441      -0.58771149
C        0.50045621       0.32324564      -1.23217717
O       -0.35722834      -0.83147602      -1.32869214
H       -1.43546743       1.40205399       0.95939067
H       -2.30081148      -0.13295676       0.79060517
H       -2.14755741       0.96694823      -0.60189678
H        0.26860904      -0.55495677       1.91698943
H        0.87718765      -1.70976939       0.79148047
H        1.71557622       0.33273063       0.99151609
H        2.26672595      -0.83751574      -0.92703540
H        0.22419670       1.17769215      -1.83699740
