19
Frame=0 idx=009427 GeodesicLength=0.0 rxn_smarts="[C:1]([C:2]([O:3][C@@:4]1([H:13])[C:5]([H:14])([H:15])[C@:6]1([C:7]([H:17])([H:18])[H:19])[H:16])([H:11])[H:12])([H:8])([H:9])[H:10]>>[C:1]([C:2](=[O:3])[H:12])([H:8])([H:9])[H:10].[C:4]1([H:13])=[C:6]([H:16])[C:5]1([H:14])[H:15].[C:7]([H:11])([H:17])([H:18])[H:19]"
C        2.22085401       0.13054219      -0.28779615
C        1.07444025       0.88115973       0.32660624
O        0.45516945       0.37675071       1.36701502
C       -0.31150080      -0.93451149       1.16868586
C       -1.78448749      -0.79828941       1.39130441
C       -1.16884989      -0.96628030       0.05370237
C       -0.80599924       0.84734140      -1.52352210
H        1.92179723      -0.89116677      -0.53148118
H        3.06322753       0.07759633       0.40798159
H        2.55839398       0.62221675      -1.20109808
H        0.08797673       0.75156610      -0.64733368
H        1.12883788       1.96819995       0.36023476
H        0.29418869      -1.72832098       1.59048477
H       -2.15189156       0.18042678       1.69475568
H       -2.31113076      -1.62593497       1.86640885
H       -1.30147156      -1.77219721      -0.65135165
H       -0.28815237       1.67579643      -2.02093614
H       -0.91689437       0.02405567      -2.21615476
H       -1.76450772       1.18104915      -1.14750582
19
Frame=1 idx=009427 GeodesicLength=0.1476915532003504 rxn_smarts="[C:1]([C:2]([O:3][C@@:4]1([H:13])[C:5]([H:14])([H:15])[C@:6]1([C:7]([H:17])([H:18])[H:19])[H:16])([H:11])[H:12])([H:8])([H:9])[H:10]>>[C:1]([C:2](=[O:3])[H:12])([H:8])([H:9])[H:10].[C:4]1([H:13])=[C:6]([H:16])[C:5]1([H:14])[H:15].[C:7]([H:11])([H:17])([H:18])[H:19]"
C        2.26448236       0.13544693      -0.26742777
C        1.09791150       0.87910021       0.31684082
O        0.47171797       0.38222389       1.35599564
C       -0.32752608      -0.93645212       1.15690735
C       -1.80067535      -0.80431632       1.37984080
C       -1.18357975      -0.98132106       0.04268831
C       -0.84124524       0.84465236      -1.51425277
H        1.98885064      -0.89822822      -0.48618974
H        3.10144579       0.11968402       0.43668918
H        2.60248825       0.61237061      -1.18848184
H        0.12680414       0.71649385      -0.68845139
H        1.14702586       1.96764472       0.33755547
H        0.28649420      -1.72007788       1.58514534
H       -2.17387657       0.17568888       1.67114261
H       -2.32613922      -1.62937730       1.86003894
H       -1.31492971      -1.79429450      -0.65473107
H       -0.32175948       1.65606657      -2.03759515
H       -1.03860799       0.05299599      -2.22554091
H       -1.75888130       1.22169938      -1.08017381
19
Frame=2 idx=009427 GeodesicLength=0.2922717525483462 rxn_smarts="[C:1]([C:2]([O:3][C@@:4]1([H:13])[C:5]([H:14])([H:15])[C@:6]1([C:7]([H:17])([H:18])[H:19])[H:16])([H:11])[H:12])([H:8])([H:9])[H:10]>>[C:1]([C:2](=[O:3])[H:12])([H:8])([H:9])[H:10].[C:4]1([H:13])=[C:6]([H:16])[C:5]1([H:14])[H:15].[C:7]([H:11])([H:17])([H:18])[H:19]"
C        2.30675022       0.14050981      -0.24785641
C        1.12066363       0.87695964       0.30566931
O        0.48850190       0.38809097       1.34435345
C       -0.34403884      -0.93801769       1.14493542
C       -1.81736460      -0.81082983       1.36861371
C       -1.19906698      -0.99657117       0.03182989
C       -0.87388580       0.84117992      -1.50372373
H        2.05354564      -0.90385523      -0.44054505
H        3.13759227       0.16212659       0.46331905
H        2.64521805       0.60167704      -1.17687046
H        0.16354694       0.68229210      -0.72967794
H        1.16595644       1.96679220       0.31423772
H        0.27879405      -1.71108332       1.57911597
H       -2.19689970       0.17014347       1.64753594
H       -2.34104746      -1.63355091       1.85406694
H       -1.32863272      -1.81626735      -0.65826828
H       -0.35596912       1.63653897      -2.05285272
H       -1.15622006       0.08566493      -2.22692464
H       -1.74744385       1.25819987      -1.01695816
19
Frame=3 idx=009427 GeodesicLength=0.43425462625808614 rxn_smarts="[C:1]([C:2]([O:3][C@@:4]1([H:13])[C:5]([H:14])([H:15])[C@:6]1([C:7]([H:17])([H:18])[H:19])[H:16])([H:11])[H:12])([H:8])([H:9])[H:10]>>[C:1]([C:2](=[O:3])[H:12])([H:8])([H:9])[H:10].[C:4]1([H:13])=[C:6]([H:16])[C:5]1([H:14])[H:15].[C:7]([H:11])([H:17])([H:18])[H:19]"
C        2.34746727       0.14574865      -0.22934396
C        1.14302255       0.87481785       0.29379066
O        0.50571952       0.39419248       1.33258254
C       -0.36101533      -0.93922607       1.13301467
C       -1.83455259      -0.81766763       1.35748737
C       -1.21498258      -1.01207689       0.02116954
C       -0.90413105       0.83675181      -1.49241676
H        2.11538098      -0.90791410      -0.39516641
H        3.17184067       0.20440400       0.48721891
H        2.68611998       0.59045056      -1.16642330
H        0.19805016       0.64971921      -0.77002402
H        1.18564821       1.96576623       0.29093008
H        0.27094226      -1.70140495       1.57276265
H       -2.22094596       0.16399987       1.62355672
H       -2.35605460      -1.63817571       1.84832452
H       -1.34219279      -1.83829456      -0.66178005
H       -0.39041417       1.61717343      -2.06655568
H       -1.26867707       0.12131724      -2.22100369
H       -1.73122547       1.29041857      -0.95812379
19
Frame=4 idx=009427 GeodesicLength=0.5742743510031831 rxn_smarts="[C:1]([C:2]([O:3][C@@:4]1([H:13])[C:5]([H:14])([H:15])[C@:6]1([C:7]([H:17])([H:18])[H:19])[H:16])([H:11])[H:12])([H:8])([H:9])[H:10]>>[C:1]([C:2](=[O:3])[H:12])([H:8])([H:9])[H:10].[C:4]1([H:13])=[C:6]([H:16])[C:5]1([H:14])[H:15].[C:7]([H:11])([H:17])([H:18])[H:19]"
C        2.38677394       0.15119055      -0.21189317
C        1.16524771       0.87272559       0.28160308
O        0.52344188       0.40046676       1.32090174
C       -0.37847367      -0.94008127       1.12120154
C       -1.85227106      -0.82475769       1.34636842
C       -1.23121287      -1.02786029       0.01069297
C       -0.93244993       0.83135521      -1.48064019
H        2.17449262      -0.91041471      -0.35021187
H        3.20451552       0.24637496       0.50828053
H        2.72525406       0.57882257      -1.15708133
H        0.23057498       0.61885719      -0.80923274
H        1.20601959       1.96465611       0.26784822
H        0.26283620      -1.69106138       1.56620446
H       -2.24604781       0.15732872       1.59900507
H       -2.37128426      -1.64312579       1.84271250
H       -1.35549914      -1.86049141      -0.66517453
H       -0.42489888       1.59784095      -2.07872455
H       -1.37594858       0.15953382      -2.20843690
H       -1.71107032       1.31864011      -0.90342325
19
Frame=5 idx=009427 GeodesicLength=0.7128354291236104 rxn_smarts="[C:1]([C:2]([O:3][C@@:4]1([H:13])[C:5]([H:14])([H:15])[C@:6]1([C:7]([H:17])([H:18])[H:19])[H:16])([H:11])[H:12])([H:8])([H:9])[H:10]>>[C:1]([C:2](=[O:3])[H:12])([H:8])([H:9])[H:10].[C:4]1([H:13])=[C:6]([H:16])[C:5]1([H:14])[H:15].[C:7]([H:11])([H:17])([H:18])[H:19]"
C        2.42489680       0.15684637      -0.19541812
C        1.18750161       0.87070436       0.26930570
O        0.54167307       0.40690224       1.30939184
C       -0.39643979      -0.94057476       1.10947927
C       -1.87054760      -0.83206361       1.33521705
C       -1.24774643      -1.04391938       0.00037203
C       -0.95936331       0.82507384      -1.46855038
H        2.23119267      -0.91140129      -0.30570372
H        3.23590569       0.28797408       0.52665110
H        2.76289479       0.56685409      -1.14869466
H        0.26147461       0.58951834      -0.84739949
H        1.22695124       1.96350185       0.24500084
H        0.25442861      -1.68003132       1.55945225
H       -2.27224385       0.15013798       1.57381033
H       -2.38678024      -1.64833690       1.83720312
H       -1.36855940      -1.88291353      -0.66841205
H       -0.45938451       1.57845104      -2.08939960
H       -1.47814034       0.20004338      -2.18979173
H       -1.68771362       1.34323321      -0.85251377
19
Frame=6 idx=009427 GeodesicLength=0.8503528001251551 rxn_smarts="[C:1]([C:2]([O:3][C@@:4]1([H:13])[C:5]([H:14])([H:15])[C@:6]1([C:7]([H:17])([H:18])[H:19])[H:16])([H:11])[H:12])([H:8])([H:9])[H:10]>>[C:1]([C:2](=[O:3])[H:12])([H:8])([H:9])[H:10].[C:4]1([H:13])=[C:6]([H:16])[C:5]1([H:14])[H:15].[C:7]([H:11])([H:17])([H:18])[H:19]"
C        2.46207466       0.16274096      -0.17978644
C        1.20989689       0.86876089       0.25698350
O        0.56041548       0.41349137       1.29804817
C       -0.41495005      -0.94071933       1.09778551
C       -1.88941057      -0.83957156       1.32399378
C       -1.26462594      -1.06025591      -0.00982908
C       -0.98530744       0.81802107      -1.45620907
H        2.28587684      -0.91092646      -0.26151355
H        3.26627572       0.32930012       0.54252008
H        2.79931566       0.55453989      -1.14109141
H        0.29109419       0.56141893      -0.88472677
H        1.24834268       1.96232836       0.22230600
H        0.24567675      -1.66831908       1.55244621
H       -2.29955421       0.14241407       1.54791655
H       -2.40257898      -1.65378088       1.83177228
H       -1.38146553      -1.90560024      -0.67147067
H       -0.49385714       1.55890643      -2.09866259
H       -1.57553416       0.24271377      -2.16543113
H       -1.66168486       1.36453758      -0.80505137
19
Frame=7 idx=009427 GeodesicLength=0.9870844675836553 rxn_smarts="[C:1]([C:2]([O:3][C@@:4]1([H:13])[C:5]([H:14])([H:15])[C@:6]1([C:7]([H:17])([H:18])[H:19])[H:16])([H:11])[H:12])([H:8])([H:9])[H:10]>>[C:1]([C:2](=[O:3])[H:12])([H:8])([H:9])[H:10].[C:4]1([H:13])=[C:6]([H:16])[C:5]1([H:14])[H:15].[C:7]([H:11])([H:17])([H:18])[H:19]"
C        2.49849764       0.16889704      -0.16489041
C        1.23249162       0.86688089       0.24466142
O        0.57965025       0.42022197       1.28684304
C       -0.43404710      -0.94053004       1.08605857
C       -1.90888409      -0.84727382       1.31268923
C       -1.28190801      -1.07685851      -0.01993493
C       -1.01064963       0.81033476      -1.44359721
H        2.33888114      -0.90901550      -0.21751587
H        3.29580854       0.37045188       0.55605783
H        2.83475526       0.54186606      -1.13413133
H        0.31972787       0.53427600      -0.92144215
H        1.27009619       1.96112144       0.19965843
H        0.23654442      -1.65591550       1.54511398
H       -2.32798833       0.13412497       1.52132218
H       -2.41869816      -1.65943441       1.82642776
H       -1.39431203      -1.92855529      -0.67433548
H       -0.52833057       1.53914827      -2.10655666
H       -1.66819126       0.28742417      -2.13569006
H       -1.63344375       1.38283562      -0.76073834
19
Frame=8 idx=009427 GeodesicLength=1.1232284338032406 rxn_smarts="[C:1]([C:2]([O:3][C@@:4]1([H:13])[C:5]([H:14])([H:15])[C@:6]1([C:7]([H:17])([H:18])[H:19])[H:16])([H:11])[H:12])([H:8])([H:9])[H:10]>>[C:1]([C:2](=[O:3])[H:12])([H:8])([H:9])[H:10].[C:4]1([H:13])=[C:6]([H:16])[C:5]1([H:14])[H:15].[C:7]([H:11])([H:17])([H:18])[H:19]"
C        2.53431986       0.17533916      -0.15063879
C        1.25532433       0.86505229       0.23234266
O        0.59936479       0.42708595       1.27574508
C       -0.45377219      -0.94002879       1.07424482
C       -1.92899164      -0.85516305       1.30130414
C       -1.29965311      -1.09371324      -0.02996223
C       -1.03569200       0.80215803      -1.43065443
H        2.39047284      -0.90567163      -0.17362832
H        3.32464011       0.41149679       0.56741227
H        2.86942181       0.52883723      -1.12767720
H        0.34761829       0.50784299      -0.95775152
H        1.29213692       1.95986788       0.17696134
H        0.22700435      -1.64281537       1.53738409
H       -2.35754364       0.12524235       1.49404764
H       -2.43515873      -1.66527792       1.82118229
H       -1.40719231      -1.95177577      -0.67699175
H       -0.56282954       1.51913753      -2.11311301
H       -1.75608019       0.33402726      -2.10088418
H       -1.60338995       1.39835831      -0.71932289
19
Frame=9 idx=009427 GeodesicLength=1.2589347519357814 rxn_smarts="[C:1]([C:2]([O:3][C@@:4]1([H:13])[C:5]([H:14])([H:15])[C@:6]1([C:7]([H:17])([H:18])[H:19])[H:16])([H:11])[H:12])([H:8])([H:9])[H:10]>>[C:1]([C:2](=[O:3])[H:12])([H:8])([H:9])[H:10].[C:4]1([H:13])=[C:6]([H:16])[C:5]1([H:14])[H:15].[C:7]([H:11])([H:17])([H:18])[H:19]"
C        2.56967026       0.18209066      -0.13696176
C        1.27841918       0.86326305       0.22002244
O        0.61955212       0.43407653       1.26472877
C       -0.47416539      -0.93924150       1.06230273
C       -1.94975591      -0.86322637       1.28985318
C       -1.31792497      -1.11079677      -0.03991721
C       -1.06069286       0.79363866      -1.41728788
H        2.44086109      -0.90088320      -0.12983387
H        3.35287405       0.45245308       0.57672236
H        2.90350999       0.51548753      -1.12160022
H        0.37495998       0.48190874      -0.99383700
H        1.31440397       1.95855237       0.15413742
H        0.21703730      -1.62901283       1.52919104
H       -2.38820459       0.11574737       1.46614726
H       -2.45198341      -1.67128709       1.81605639
H       -1.42019803      -1.97524497      -0.67942271
H       -0.59739785       1.49886580      -2.11833075
H       -1.83905429       0.38231452      -2.06138463
H       -1.57191065       1.41129443      -0.68058557
19
Frame=10 idx=009427 GeodesicLength=1.3943281259692135 rxn_smarts="[C:1]([C:2]([O:3][C@@:4]1([H:13])[C:5]([H:14])([H:15])[C@:6]1([C:7]([H:17])([H:18])[H:19])[H:16])([H:11])[H:12])([H:8])([H:9])[H:10]>>[C:1]([C:2](=[O:3])[H:12])([H:8])([H:9])[H:10].[C:4]1([H:13])=[C:6]([H:16])[C:5]1([H:14])[H:15].[C:7]([H:11])([H:17])([H:18])[H:19]"
C        2.60467080       0.18918990      -0.12378279
C        1.30179176       0.86148255       0.20769079
O        0.64021052       0.44116186       1.25376520
C       -0.49526883      -0.93821732       1.05018150
C       -1.97119811      -0.87145334       1.27835091
C       -1.33679985      -1.12807643      -0.04981217
C       -1.08584645       0.78490957      -1.40339614
H        2.49029278      -0.89461916      -0.08602180
H        3.38060905       0.49344722       0.58408023
H        2.93716248       0.50180619      -1.11579583
H        0.40193485       0.45625017      -1.02985918
H        1.33683421       1.95713728       0.13111781
H        0.20662413      -1.61452798       1.52044124
H       -2.41993590       0.10562183       1.43769383
H       -2.46920309      -1.67743839       1.81106064
H       -1.43345072      -1.99891958      -0.68163040
H       -0.63205774       1.47829523      -2.12222495
H       -1.91706263       0.43215240      -2.01753022
H       -1.53930725       1.42179802      -0.64432866
19
Frame=11 idx=009427 GeodesicLength=1.5295002298138993 rxn_smarts="[C:1]([C:2]([O:3][C@@:4]1([H:13])[C:5]([H:14])([H:15])[C@:6]1([C:7]([H:17])([H:18])[H:19])[H:16])([H:11])[H:12])([H:8])([H:9])[H:10]>>[C:1]([C:2](=[O:3])[H:12])([H:8])([H:9])[H:10].[C:4]1([H:13])=[C:6]([H:16])[C:5]1([H:14])[H:15].[C:7]([H:11])([H:17])([H:18])[H:19]"
C        2.63941895       0.19667677      -0.11103849
C        1.32545141       0.85968576       0.19533831
O        0.66133609       0.44831581       1.24283365
C       -0.51712086      -0.93701277       1.03784407
C       -1.99333580      -0.87983632       1.26682842
C       -1.35635373      -1.14551228      -0.05965039
C       -1.11131333       0.77610004      -1.38887013
H        2.53894975      -0.88683225      -0.04214652
H        3.40790791       0.53454464       0.58957873
H        2.97051960       0.48782631      -1.11015167
H        0.42871175       0.43066800      -1.06596080
H        1.35937114       1.95558959       0.10784583
H        0.19575763      -1.59938073       1.51104640
H       -2.45268847       0.09485300       1.40879856
H       -2.48684575      -1.68371696       1.80621418
H       -1.44706895      -2.02274630      -0.68361714
H       -0.66682860       1.45739059      -2.12480452
H       -1.99001095       0.48337347      -1.96970582
H       -1.50585779       1.43001362      -0.61038267
19
Frame=12 idx=009427 GeodesicLength=1.6645268879795356 rxn_smarts="[C:1]([C:2]([O:3][C@@:4]1([H:13])[C:5]([H:14])([H:15])[C@:6]1([C:7]([H:17])([H:18])[H:19])[H:16])([H:11])[H:12])([H:8])([H:9])[H:10]>>[C:1]([C:2](=[O:3])[H:12])([H:8])([H:9])[H:10].[C:4]1([H:13])=[C:6]([H:16])[C:5]1([H:14])[H:15].[C:7]([H:11])([H:17])([H:18])[H:19]"
C        2.67400132       0.20459802      -0.09866805
C        1.34940557       0.85784605       0.18295729
O        0.68292555       0.45551112       1.23191824
C       -0.53975828      -0.93569650       1.02525979
C       -2.01618572      -0.88837307       1.25532650
C       -1.37666827      -1.16305616      -0.06943410
C       -1.13722335       0.76733008      -1.37360088
H        2.58699571      -0.87746067       0.00183271
H        3.43481825       0.57581377       0.59330079
H        3.00370993       0.47358952      -1.10455737
H        0.45545682       0.40496376      -1.10226913
H        1.38196264       1.95387276       0.08427192
H        0.18443852      -1.58359717       1.50091286
H       -2.48640189       0.08343146       1.37960519
H       -2.50494178      -1.69011960       1.80153544
H       -1.46118204      -2.04665612      -0.68539697
H       -0.70172397       1.43610150      -2.12608270
H       -2.05783283       0.53582954      -1.91831443
H       -1.47179617       1.43607170      -0.57859709
19
Frame=13 idx=009427 GeodesicLength=1.7994552992481831 rxn_smarts="[C:1]([C:2]([O:3][C@@:4]1([H:13])[C:5]([H:14])([H:15])[C@:6]1([C:7]([H:17])([H:18])[H:19])[H:16])([H:11])[H:12])([H:8])([H:9])[H:10]>>[C:1]([C:2](=[O:3])[H:12])([H:8])([H:9])[H:10].[C:4]1([H:13])=[C:6]([H:16])[C:5]1([H:14])[H:15].[C:7]([H:11])([H:17])([H:18])[H:19]"
C        2.70848890       0.21300351      -0.08661220
C        1.37366071       0.85594234       0.17054422
O        0.70497766       0.46272829       1.22100665
C       -0.56321138      -0.93434004       1.01240904
C       -2.03975917      -0.89706065       1.24389120
C       -1.39781971      -1.18065085      -0.07916211
C       -1.16368058       0.75871189      -1.35748332
H        2.63454692      -0.86643889       0.04588330
H        3.46136433       0.61726181       0.59535650
H        3.03686859       0.45919207      -1.09888001
H        0.48234082       0.37894352      -1.13889562
H        1.40456115       1.95195418       0.06035437
H        0.17267996      -1.56719895       1.48994909
H       -2.52100533       0.07135838       1.35027964
H       -2.52351988      -1.69664818       1.79703596
H       -1.47591470      -2.07056687      -0.68698908
H       -0.73676866       1.41435773      -2.12608784
H       -2.12049236       0.58935508      -1.86375094
H       -1.43731729       1.44009562      -0.54884887
19
Frame=14 idx=009427 GeodesicLength=1.9343348267814702 rxn_smarts="[C:1]([C:2]([O:3][C@@:4]1([H:13])[C:5]([H:14])([H:15])[C@:6]1([C:7]([H:17])([H:18])[H:19])[H:16])([H:11])[H:12])([H:8])([H:9])[H:10]>>[C:1]([C:2](=[O:3])[H:12])([H:8])([H:9])[H:10].[C:4]1([H:13])=[C:6]([H:16])[C:5]1([H:14])[H:15].[C:7]([H:11])([H:17])([H:18])[H:19]"
C        2.74296589       0.22196031      -0.07481017
C        1.39822017       0.85393220       0.15808968
O        0.72749020       0.46992419       1.21008439
C       -0.58751870      -0.93304425       0.99926537
C       -2.06407111      -0.90590832       1.23258913
C       -1.41992042      -1.19822695      -0.08883677
C       -1.19076798       0.75034762      -1.34041497
H        2.68178731      -0.85367312       0.09008908
H        3.48757464       0.65902095       0.59580602
H        3.07011282       0.44467060      -1.09302242
H        0.50954319       0.35236412      -1.17594798
H        1.42710386       1.94977719       0.03604382
H        0.16049571      -1.55023883       1.47802366
H       -2.55641864       0.05863656       1.32104209
H       -2.54260849      -1.70332416       1.79274245
H       -1.49145588      -2.09436894      -0.68843735
H       -0.77196425       1.39208816      -2.12481959
H       -2.17796867       0.64389059      -1.80646303
H       -1.40259963       1.44217210      -0.52102341
19
Frame=15 idx=009427 GeodesicLength=2.0691868825415565 rxn_smarts="[C:1]([C:2]([O:3][C@@:4]1([H:13])[C:5]([H:14])([H:15])[C@:6]1([C:7]([H:17])([H:18])[H:19])[H:16])([H:11])[H:12])([H:8])([H:9])[H:10]>>[C:1]([C:2](=[O:3])[H:12])([H:8])([H:9])[H:10].[C:4]1([H:13])=[C:6]([H:16])[C:5]1([H:14])[H:15].[C:7]([H:11])([H:17])([H:18])[H:19]"
C        2.77749630       0.23153954      -0.06320348
C        1.42308784       0.85178095       0.14558558
O        0.75045925       0.47707039       1.19913725
C       -0.61271314      -0.93191167       0.98581422
C       -2.08913215      -0.91493257       1.22149467
C       -1.44307989      -1.21570947      -0.09845808
C       -1.21855305       0.74233441      -1.32229457
H        2.72884391      -0.83906248       0.13447492
H        3.51344981       0.70117114       0.59472385
H        3.10356214       0.43010739      -1.08686688
H        0.53726328       0.32497033      -1.21351737
H        1.44953311       1.94728943       0.01128666
H        0.14791206      -1.53275970       1.46500383
H       -2.59256047       0.04527493       1.29213558
H       -2.56222883      -1.71018705       1.78867865
H       -1.50799067      -2.11794543      -0.68979451
H       -0.80730781       1.36920046      -2.12227966
H       -2.23025543       0.69938881      -1.74689739
H       -1.36778626       1.44238061      -0.49502327
19
Frame=16 idx=009427 GeodesicLength=2.204028503495017 rxn_smarts="[C:1]([C:2]([O:3][C@@:4]1([H:13])[C:5]([H:14])([H:15])[C@:6]1([C:7]([H:17])([H:18])[H:19])[H:16])([H:11])[H:12])([H:8])([H:9])[H:10]>>[C:1]([C:2](=[O:3])[H:12])([H:8])([H:9])[H:10].[C:4]1([H:13])=[C:6]([H:16])[C:5]1([H:14])[H:15].[C:7]([H:11])([H:17])([H:18])[H:19]"
C        2.81214150       0.24181828      -0.05173540
C        1.44827230       0.84945544       0.13302307
O        0.77388204       0.48414952       1.18815314
C       -0.63882893      -0.93104686       0.97205236
C       -2.11495794      -0.92416156       1.21068744
C       -1.46741043      -1.23301730      -0.10802963
C       -1.24709758       0.73476844      -1.30301947
H        2.77582915      -0.82249728       0.17905409
H        3.53898462       0.74378547       0.59218554
H        3.13734291       0.41559734      -1.08029502
H        0.56572255       0.29648104      -1.25168467
H        1.47179823       1.94443536      -0.01397949
H        0.13495874      -1.51479456       1.45075530
H       -2.62936364       0.03128145       1.26382252
H       -2.58240465      -1.71730125       1.78486103
H       -1.52570414      -2.14116786      -0.69113514
H       -0.84280539       1.34557684      -2.11847178
H       -2.27737094       0.75584755      -1.68548180
H       -1.33298840       1.44078993      -0.47076209
