13
Frame=0 idx=007968 GeodesicLength=0.0 rxn_smarts="[N:1](=[C:2]1\[O:3][C:4]([H:9])([H:10])[C@@:5]12[C:6]([H:11])([H:12])[N:7]2[H:13])\[H:8]>>[N:1](=[C:2]1\[O:3][C:4]([H:9])([H:10])[C@@:5]1([N:7]([C:6][H:12])[H:13])[H:11])\[H:8]"
N        1.59032383      -1.29402437      -1.07075695
C        1.08256813      -0.32658053      -0.47881384
O        1.61347867       0.81215049       0.06378190
C        0.33237617       1.23356785       0.61680507
C       -0.31274382       0.01482766      -0.02423694
C       -2.06035875      -0.48991479      -0.22095343
N       -1.09030430      -0.95496225       0.71658071
H        2.59846661      -1.21107151      -1.16884390
H        0.34473990       1.21442692       1.70520362
H        0.04557145       2.21029984       0.23085933
H       -0.93969017       0.20866616      -1.01028524
H       -2.43283551       0.46089766       0.20746195
H       -0.77159221      -1.87828313       0.43319777
13
Frame=1 idx=007968 GeodesicLength=0.05158747618112682 rxn_smarts="[N:1](=[C:2]1\[O:3][C:4]([H:9])([H:10])[C@@:5]12[C:6]([H:11])([H:12])[N:7]2[H:13])\[H:8]>>[N:1](=[C:2]1\[O:3][C:4]([H:9])([H:10])[C@@:5]1([N:7]([C:6][H:12])[H:13])[H:11])\[H:8]"
N        1.59601800      -1.29166884      -1.07176401
C        1.08605167      -0.32557561      -0.47898997
O        1.61607857       0.81095336       0.06910252
C        0.33197403       1.23278287       0.61472235
C       -0.31075321       0.01429990      -0.03015068
C       -2.06354556      -0.48065276      -0.20737311
N       -1.08657236      -0.95697567       0.71124630
H        2.60520339      -1.21089164      -1.16088120
H        0.33779027       1.21407995       1.70323221
H        0.04810801       2.21005890       0.22797819
H       -0.94988745       0.19780119      -1.02754273
H       -2.43545120       0.46738554       0.22535832
H       -0.77501415      -1.88159717       0.42506181
13
Frame=2 idx=007968 GeodesicLength=0.1031713539571406 rxn_smarts="[N:1](=[C:2]1\[O:3][C:4]([H:9])([H:10])[C@@:5]12[C:6]([H:11])([H:12])[N:7]2[H:13])\[H:8]>>[N:1](=[C:2]1\[O:3][C:4]([H:9])([H:10])[C@@:5]1([N:7]([C:6][H:12])[H:13])[H:11])\[H:8]"
N        1.60163317      -1.28922615      -1.07283201
C        1.08951633      -0.32446675      -0.47921259
O        1.61867775       0.80977456       0.07447270
C        0.33164019       1.23204874       0.61272236
C       -0.30872207       0.01386564      -0.03599843
C       -2.06633691      -0.47136057      -0.19397210
N       -1.08295989      -0.95888427       0.70582629
H        2.61179647      -1.21077541      -1.15290110
H        0.33091200       1.21371793       1.70130545
H        0.05070973       2.20987504       0.22522251
H       -0.96042627       0.18647348      -1.04480884
H       -2.43795241       0.47373077       0.24316758
H       -0.77848807      -1.88477301       0.41700819
13
Frame=3 idx=007968 GeodesicLength=0.1547223329127935 rxn_smarts="[N:1](=[C:2]1\[O:3][C:4]([H:9])([H:10])[C@@:5]12[C:6]([H:11])([H:12])[N:7]2[H:13])\[H:8]>>[N:1](=[C:2]1\[O:3][C:4]([H:9])([H:10])[C@@:5]1([N:7]([C:6][H:12])[H:13])[H:11])\[H:8]"
N        1.60714371      -1.28667867      -1.07398316
C        1.09294944      -0.32324467      -0.47948934
O        1.62126375       0.80861257       0.07988859
C        0.33137556       1.23136462       0.61080552
C       -0.30664917       0.01353406      -0.04178202
C       -2.06871996      -0.46204320      -0.18076361
N       -1.07945470      -0.96068135       0.70031678
H        2.61824183      -1.21074476      -1.14486628
H        0.32411308       1.21332963       1.69941460
H        0.05338156       2.20975353       0.22260513
H       -0.97131758       0.17468340      -1.06206432
H       -2.44033290       0.47992012       0.26087369
H       -0.78199463      -1.88780527       0.40904442
13
Frame=4 idx=007968 GeodesicLength=0.20627685656160094 rxn_smarts="[N:1](=[C:2]1\[O:3][C:4]([H:9])([H:10])[C@@:5]12[C:6]([H:11])([H:12])[N:7]2[H:13])\[H:8]>>[N:1](=[C:2]1\[O:3][C:4]([H:9])([H:10])[C@@:5]1([N:7]([C:6][H:12])[H:13])[H:11])\[H:8]"
N        1.61254932      -1.28388447      -1.07545223
C        1.09633605      -0.32180466      -0.47999695
O        1.62383165       0.80755085       0.08521602
C        0.33118703       1.23074659       0.60895401
C       -0.30454210       0.01333968      -0.04755598
C       -2.07072869      -0.45270198      -0.16769520
N       -1.07598591      -0.96239823       0.69467088
H        2.62454879      -1.21111063      -1.13622736
H        0.31747252       1.21286933       1.69755167
H        0.05607270       2.20972168       0.22017834
H       -0.98266532       0.16246457      -1.07930813
H       -2.44261537       0.48590846       0.27863457
H       -0.78546068      -1.89070119       0.40103039
13
Frame=5 idx=007968 GeodesicLength=0.257827236398691 rxn_smarts="[N:1](=[C:2]1\[O:3][C:4]([H:9])([H:10])[C@@:5]12[C:6]([H:11])([H:12])[N:7]2[H:13])\[H:8]>>[N:1](=[C:2]1\[O:3][C:4]([H:9])([H:10])[C@@:5]1([N:7]([C:6][H:12])[H:13])[H:11])\[H:8]"
N        1.61797459      -1.28136783      -1.07634853
C        1.09979051      -0.32050536      -0.48012231
O        1.62647168       0.80629684       0.09095415
C        0.33107879       1.23014807       0.60725939
C       -0.30236313       0.01317540      -0.05314831
C       -2.07234172      -0.44331280      -0.15500417
N       -1.07282315      -0.96389438       0.68907019
H        2.63061702      -1.21073707      -1.12901897
H        0.31072453       1.21251137       1.69580773
H        0.05899985       2.20969095       0.21777596
H       -0.99415271       0.14956031      -1.09656939
H       -2.44481950       0.49185472       0.29588481
H       -0.78915676      -1.89342021       0.39345946
13
Frame=6 idx=007968 GeodesicLength=0.3093581273578903 rxn_smarts="[N:1](=[C:2]1\[O:3][C:4]([H:9])([H:10])[C@@:5]12[C:6]([H:11])([H:12])[N:7]2[H:13])\[H:8]>>[N:1](=[C:2]1\[O:3][C:4]([H:9])([H:10])[C@@:5]1([N:7]([C:6][H:12])[H:13])[H:11])\[H:8]"
N        1.62316226      -1.27822590      -1.07820946
C        1.10311305      -0.31874033      -0.48088050
O        1.62903231       0.80532081       0.09629560
C        0.33105176       1.22965240       0.60558156
C       -0.30017389       0.01324268      -0.05884321
C       -2.07358688      -0.43394416      -0.14234255
N       -1.06950841      -0.96537398       0.68322247
H        2.63661917      -1.21154886      -1.11985604
H        0.30431768       1.21196674       1.69403454
H        0.06183945       2.20983019       0.21570290
H       -1.00633795       0.13637799      -1.11376051
H       -2.44693476       0.49745427       0.31348665
H       -0.79259381      -1.89601185       0.38556853
13
Frame=7 idx=007968 GeodesicLength=0.36090619321020134 rxn_smarts="[N:1](=[C:2]1\[O:3][C:4]([H:9])([H:10])[C@@:5]12[C:6]([H:11])([H:12])[N:7]2[H:13])\[H:8]>>[N:1](=[C:2]1\[O:3][C:4]([H:9])([H:10])[C@@:5]1([N:7]([C:6][H:12])[H:13])[H:11])\[H:8]"
N        1.62825111      -1.27486779      -1.08033665
C        1.10641304      -0.31678299      -0.48180584
O        1.63160909       0.80439417       0.10164025
C        0.33111380       1.22922703       0.60399413
C       -0.29794335       0.01345719      -0.06451365
C       -2.07447290      -0.42456816      -0.12988933
N       -1.06625662      -0.96673096       0.67726792
H        2.64246157      -1.21266406      -1.11032490
H        0.29803562       1.21138158       1.69231941
H        0.06476250       2.21006814       0.21381663
H       -1.01898715       0.12269903      -1.13091809
H       -2.44899365       0.50283400       0.33102982
H       -0.79599306      -1.89844719       0.37772030
13
Frame=8 idx=007968 GeodesicLength=0.4124300458649567 rxn_smarts="[N:1](=[C:2]1\[O:3][C:4]([H:9])([H:10])[C@@:5]12[C:6]([H:11])([H:12])[N:7]2[H:13])\[H:8]>>[N:1](=[C:2]1\[O:3][C:4]([H:9])([H:10])[C@@:5]1([N:7]([C:6][H:12])[H:13])[H:11])\[H:8]"
N        1.63338819      -1.27189116      -1.08169595
C        1.10980236      -0.31503412      -0.48222437
O        1.63428014       0.80317605       0.10755730
C        0.33126568       1.22880918       0.60258700
C       -0.29562305       0.01368782      -0.06997231
C       -2.07497626      -0.41511528      -0.11788903
N       -1.06335000      -0.96782973       0.67139159
H        2.64802981      -1.21276861      -1.10268280
H        0.29156241       1.21094120       1.69073465
H        0.06801271       2.21028946       0.21191398
H       -1.03173642       0.10822157      -1.14806506
H       -2.45099265       0.50820899       0.34793873
H       -0.79966292      -1.90069538       0.37040627
13
Frame=9 idx=007968 GeodesicLength=0.4639727000069196 rxn_smarts="[N:1](=[C:2]1\[O:3][C:4]([H:9])([H:10])[C@@:5]12[C:6]([H:11])([H:12])[N:7]2[H:13])\[H:8]>>[N:1](=[C:2]1\[O:3][C:4]([H:9])([H:10])[C@@:5]1([N:7]([C:6][H:12])[H:13])[H:11])\[H:8]"
N        1.63833548      -1.26830026      -1.08396612
C        1.11309655      -0.31282441      -0.48323405
O        1.63691411       0.80220039       0.11315925
C        0.33151122       1.22850481       0.60121604
C       -0.29328202       0.01416412      -0.07553182
C       -2.07513298      -0.40569380      -0.10596955
N       -1.06030549      -0.96887724       0.66528460
H        2.65345526      -1.21401399      -1.09326527
H        0.28539502       1.21034685       1.68915133
H        0.07122813       2.21069270       0.21033046
H       -1.04520582       0.09338725      -1.16512800
H       -2.45293908       0.51321248       0.36512559
H       -0.80307036      -1.90279891       0.36282752
13
Frame=10 idx=007968 GeodesicLength=0.5155077785714077 rxn_smarts="[N:1](=[C:2]1\[O:3][C:4]([H:9])([H:10])[C@@:5]12[C:6]([H:11])([H:12])[N:7]2[H:13])\[H:8]>>[N:1](=[C:2]1\[O:3][C:4]([H:9])([H:10])[C@@:5]1([N:7]([C:6][H:12])[H:13])[H:11])\[H:8]"
N        1.64325680      -1.26482804      -1.08593510
C        1.11643858      -0.31065459      -0.48401505
O        1.63961534       0.80106721       0.11910107
C        0.33185754       1.22823310       0.60000302
C       -0.29086683       0.01472272      -0.08095738
C       -2.07494074      -0.39622129      -0.09443967
N       -1.05748738      -0.96970181       0.65918839
H        2.65867341      -1.21479624      -1.08480290
H        0.27918797       1.20981247       1.68768129
H        0.07468836       2.21113267       0.20884538
H       -1.05895869       0.07783245      -1.18214028
H       -2.45486353       0.51811937       0.38186014
H       -0.80660083      -1.90471804       0.35561107
13
Frame=11 idx=007968 GeodesicLength=0.5670531828412402 rxn_smarts="[N:1](=[C:2]1\[O:3][C:4]([H:9])([H:10])[C@@:5]12[C:6]([H:11])([H:12])[N:7]2[H:13])\[H:8]>>[N:1](=[C:2]1\[O:3][C:4]([H:9])([H:10])[C@@:5]1([N:7]([C:6][H:12])[H:13])[H:11])\[H:8]"
N        1.64803026      -1.26083883      -1.08861228
C        1.11971904      -0.30808822      -0.48525030
O        1.64230767       0.80010790       0.12485536
C        0.33230525       1.22806792       0.59885628
C       -0.28841487       0.01551620      -0.08644832
C       -2.07440063      -0.38677851      -0.08307165
N       -1.05458172      -0.97042977       0.65290039
H        2.66366215      -1.21648477      -1.07503807
H        0.27322755       1.20916327       1.68624159
H        0.07818059       2.21174267       0.20765805
H       -1.07337935       0.06182418      -1.19905133
H       -2.45674908       0.52267405       0.39870583
H       -0.80990688      -1.90647609       0.34825446
13
Frame=12 idx=007968 GeodesicLength=0.6185991408292778 rxn_smarts="[N:1](=[C:2]1\[O:3][C:4]([H:9])([H:10])[C@@:5]12[C:6]([H:11])([H:12])[N:7]2[H:13])\[H:8]>>[N:1](=[C:2]1\[O:3][C:4]([H:9])([H:10])[C@@:5]1([N:7]([C:6][H:12])[H:13])[H:11])\[H:8]"
N        1.65276490      -1.25691691      -1.09106887
C        1.12304549      -0.30552614      -0.48630177
O        1.64507056       0.79899955       0.13093436
C        0.33286489       1.22794204       0.59787516
C       -0.28588624       0.01641354      -0.09181744
C       -2.07352929      -0.37729368      -0.07211274
N       -1.05187867      -0.97092657       0.64661764
H        2.66843745      -1.21780065      -1.06610780
H        0.26725419       1.20856391       1.68492203
H        0.08193339       2.21240692       0.20660377
H       -1.08813759       0.04507811      -1.21588251
H       -2.45864508       0.52710376       0.41508195
H       -0.81329402      -1.90804389       0.34125623
13
Frame=13 idx=007968 GeodesicLength=0.6701511429726346 rxn_smarts="[N:1](=[C:2]1\[O:3][C:4]([H:9])([H:10])[C@@:5]12[C:6]([H:11])([H:12])[N:7]2[H:13])\[H:8]>>[N:1](=[C:2]1\[O:3][C:4]([H:9])([H:10])[C@@:5]1([N:7]([C:6][H:12])[H:13])[H:11])\[H:8]"
N        1.65733977      -1.25227216      -1.09451034
C        1.12629551      -0.30242529      -0.48798869
O        1.64781635       0.79816156       0.13669742
C        0.33353261       1.22795211       0.59695033
C       -0.28332110       0.01760692      -0.09730580
C       -2.07230349      -0.36788289      -0.06129277
N       -1.04898918      -0.97134004       0.64009020
H        2.67285647      -1.22044818      -1.05528927
H        0.26161100       1.20780313       1.68362751
H        0.08567303       2.21329335       0.20592802
H       -1.10368145       0.02791584      -1.23257229
H       -2.46050996       0.53108028       0.43164660
H       -0.81631955      -1.90944464       0.33401907
13
Frame=14 idx=007968 GeodesicLength=0.7217024930004131 rxn_smarts="[N:1](=[C:2]1\[O:3][C:4]([H:9])([H:10])[C@@:5]12[C:6]([H:11])([H:12])[N:7]2[H:13])\[H:8]>>[N:1](=[C:2]1\[O:3][C:4]([H:9])([H:10])[C@@:5]1([N:7]([C:6][H:12])[H:13])[H:11])\[H:8]"
N        1.66187891      -1.24768219      -1.09773672
C        1.12960121      -0.29932279      -0.48948247
O        1.65064137       0.79716534       0.14280094
C        0.33432212       1.22800222       0.59620665
C       -0.28067209       0.01891548      -0.10266955
C       -2.07076343      -0.35842921      -0.05091752
N       -1.04629955      -0.97150452       0.63357406
H        2.67704017      -1.22272345      -1.04534899
H        0.25596391       1.20709004       1.68246765
H        0.08969539       2.21424022       0.20541068
H       -1.11958728       0.00996919      -1.24915076
H       -2.46241366       0.53492731       0.44767588
H       -0.81940707      -1.91064764       0.32717016
13
Frame=15 idx=007968 GeodesicLength=0.7732456449170494 rxn_smarts="[N:1](=[C:2]1\[O:3][C:4]([H:9])([H:10])[C@@:5]12[C:6]([H:11])([H:12])[N:7]2[H:13])\[H:8]>>[N:1](=[C:2]1\[O:3][C:4]([H:9])([H:10])[C@@:5]1([N:7]([C:6][H:12])[H:13])[H:11])\[H:8]"
N        1.66637237      -1.24321041      -1.10067307
C        1.13297118      -0.29626911      -0.49071091
O        1.65355074       0.79597870       0.14927964
C        0.33524271       1.22807949       0.59566630
C       -0.27793394       0.02032600      -0.10788054
C       -2.06892770      -0.34892512      -0.04103605
N       -1.04384500      -0.97139705       0.62710310
H        2.68102828      -1.22447378      -1.03651862
H        0.25031833       1.20642913       1.68146243
H        0.09402668       2.21523303       0.20506329
H       -1.13583102      -0.00880343      -1.26560152
H       -2.46439069       0.53867973       0.46304957
H       -0.82258194      -1.91164717       0.32079636
13
Frame=16 idx=007968 GeodesicLength=0.8247879453939417 rxn_smarts="[N:1](=[C:2]1\[O:3][C:4]([H:9])([H:10])[C@@:5]12[C:6]([H:11])([H:12])[N:7]2[H:13])\[H:8]>>[N:1](=[C:2]1\[O:3][C:4]([H:9])([H:10])[C@@:5]1([N:7]([C:6][H:12])[H:13])[H:11])\[H:8]"
N        1.67077061      -1.23841780      -1.10395911
C        1.13634531      -0.29295722      -0.49212055
O        1.65649952       0.79483840       0.15578323
C        0.33629165       1.22824006       0.59527001
C       -0.27512394       0.02194863      -0.11307320
C       -2.06678062      -0.33943102      -0.03150732
N       -1.04140756      -0.97109439       0.62053469
H        2.68470740      -1.22664923      -1.02731791
H        0.24486162       1.20570381       1.68056207
H        0.09851311       2.21636653       0.20502197
H       -1.15266711      -0.02824693      -1.28188308
H       -2.46641326       0.54215195       0.47812418
H       -0.82559672      -1.91245279       0.31456504
