11
Frame=0 idx=003023 GeodesicLength=0.0 rxn_smarts="[C:1]([C@@:2]([O:3][H:10])([C:4](=[O:5])[H:11])[H:9])([H:6])([H:7])[H:8]>>[C:1](/[C:2]([O:3][H:10])=[C:4](/[O:5][H:9])[H:11])([H:6])([H:7])[H:8]"
C        1.43930732      -0.46731405      -0.05656418
C        0.09480838       0.12375496      -0.23013266
O       -0.04025346       1.10354623      -1.08874208
C       -1.07267921      -0.21861010       0.44094180
O       -2.20711964       0.51437537       0.02714840
H        2.16479641       0.30644272       0.20086059
H        1.42780092      -1.22686530       0.72320094
H        1.76425750      -0.92207991      -0.99506959
H       -1.36283754       0.70002091       1.10608965
H       -1.02574992       1.27321171      -1.05197180
H       -1.18233080      -1.18648249       0.92423896
11
Frame=1 idx=003023 GeodesicLength=0.10057597433784567 rxn_smarts="[C:1]([C@@:2]([O:3][H:10])([C:4](=[O:5])[H:11])[H:9])([H:6])([H:7])[H:8]>>[C:1](/[C:2]([O:3][H:10])=[C:4](/[O:5][H:9])[H:11])([H:6])([H:7])[H:8]"
C        1.43545655      -0.46370663      -0.05064638
C        0.09704653       0.14761754      -0.20668611
O       -0.03924343       1.11137665      -1.08879022
C       -1.08144025      -0.23857805       0.42163682
O       -2.20637013       0.50885042       0.03865606
H        2.17289850       0.30324212       0.19258058
H        1.42600738      -1.21903483       0.73338389
H        1.74250037      -0.92762472      -0.99066453
H       -1.34204256       0.70928942       1.10724452
H       -1.02454311       1.27207553      -1.06955578
H       -1.18026986      -1.20350746       0.91284116
11
Frame=2 idx=003023 GeodesicLength=0.20116029261294388 rxn_smarts="[C:1]([C@@:2]([O:3][H:10])([C:4](=[O:5])[H:11])[H:9])([H:6])([H:7])[H:8]>>[C:1](/[C:2]([O:3][H:10])=[C:4](/[O:5][H:9])[H:11])([H:6])([H:7])[H:8]"
C        1.43095929      -0.46013170      -0.04496669
C        0.09808385       0.16948133      -0.18478809
O       -0.03798592       1.11853155      -1.08868389
C       -1.08897632      -0.25776866       0.40218864
O       -2.20504756       0.50241165       0.05057158
H        2.17917736       0.30034449       0.18507243
H        1.42395881      -1.21163260       0.74290968
H        1.72149567      -0.93235432      -0.98606329
H       -1.32136827       0.71912443       1.10848703
H       -1.02253136       1.27135896      -1.08650190
H       -1.17776555      -1.21936513       0.90177450
11
Frame=3 idx=003023 GeodesicLength=0.30175077406523587 rxn_smarts="[C:1]([C@@:2]([O:3][H:10])([C:4](=[O:5])[H:11])[H:9])([H:6])([H:7])[H:8]>>[C:1](/[C:2]([O:3][H:10])=[C:4](/[O:5][H:9])[H:11])([H:6])([H:7])[H:8]"
C        1.42595330      -0.45664429      -0.03950849
C        0.09785009       0.18887471      -0.16501268
O       -0.03665488       1.12499344      -1.08864783
C       -1.09560324      -0.27641220       0.38253524
O       -2.20319110       0.49541032       0.06331159
H        2.18349008       0.29799245       0.17870635
H        1.42160084      -1.20476823       0.75175929
H        1.70189487      -0.93620211      -0.98126040
H       -1.30032340       0.72978218       1.10978663
H       -1.01993075       1.27118602      -1.10279353
H       -1.17508581      -1.23421229       0.89112382
11
Frame=4 idx=003023 GeodesicLength=0.40235666412012056 rxn_smarts="[C:1]([C@@:2]([O:3][H:10])([C:4](=[O:5])[H:11])[H:9])([H:6])([H:7])[H:8]>>[C:1](/[C:2]([O:3][H:10])=[C:4](/[O:5][H:9])[H:11])([H:6])([H:7])[H:8]"
C        1.42058363      -0.45328412      -0.03423894
C        0.09644893       0.20585873      -0.14736625
O       -0.03535390       1.13081773      -1.08881319
C       -1.10158689      -0.29469224       0.36259473
O       -2.20086168       0.48794205       0.07702795
H        2.18604203       0.29623387       0.17350592
H        1.41894711      -1.19843567       0.76002683
H        1.68385287      -0.93930200      -0.97628300
H       -1.27881815       0.74139109       1.11108592
H       -1.01691021       1.27167992      -1.11841700
H       -1.17234374      -1.24820935       0.88087704
11
Frame=5 idx=003023 GeodesicLength=0.5029572486698042 rxn_smarts="[C:1]([C@@:2]([O:3][H:10])([C:4](=[O:5])[H:11])[H:9])([H:6])([H:7])[H:8]>>[C:1](/[C:2]([O:3][H:10])=[C:4](/[O:5][H:9])[H:11])([H:6])([H:7])[H:8]"
C        1.41488712      -0.45004924      -0.02912412
C        0.09403775       0.22072907      -0.13156218
O       -0.03411701       1.13613617      -1.08908339
C       -1.10703742      -0.31268965       0.34236489
O       -2.19797883       0.47995663       0.09177995
H        2.18703686       0.29498286       0.16947693
H        1.41592475      -1.19262444       0.76771573
H        1.66719239      -0.94168549      -0.97123041
H       -1.25685751       0.75412011       1.11235589
H       -1.01356608       1.27257591      -1.13357819
H       -1.16952201      -1.26145193       0.87088490
11
Frame=6 idx=003023 GeodesicLength=0.603518339067935 rxn_smarts="[C:1]([C@@:2]([O:3][H:10])([C:4](=[O:5])[H:11])[H:9])([H:6])([H:7])[H:8]>>[C:1](/[C:2]([O:3][H:10])=[C:4](/[O:5][H:9])[H:11])([H:6])([H:7])[H:8]"
C        1.40895041      -0.44696175      -0.02413794
C        0.09072273       0.23367670      -0.11742465
O       -0.03300303       1.14085758      -1.08960349
C       -1.11210822      -0.33053090       0.32174495
O       -2.19456371       0.47140310       0.10762022
H        2.18665687       0.29422064       0.16653635
H        1.41256252      -1.18729937       0.77489886
H        1.65191613      -0.94350027      -0.96610632
H       -1.23453573       0.76810501       1.11348895
H       -1.00997653       1.27407540      -1.14811345
H       -1.16662144      -1.27404612       0.86109652
11
Frame=7 idx=003023 GeodesicLength=0.7041113318043274 rxn_smarts="[C:1]([C@@:2]([O:3][H:10])([C:4](=[O:5])[H:11])[H:9])([H:6])([H:7])[H:8]>>[C:1](/[C:2]([O:3][H:10])=[C:4](/[O:5][H:9])[H:11])([H:6])([H:7])[H:8]"
C        1.40287885      -0.44402937      -0.01922353
C        0.08663073       0.24502745      -0.10464981
O       -0.03203002       1.14517208      -1.09037604
C       -1.11694438      -0.34829599       0.30072520
O       -2.19068691       0.46225377       0.12465091
H        2.18529227       0.29386762       0.16452665
H        1.40894800      -1.18244979       0.78176164
H        1.63782118      -0.94488586      -0.96092353
H       -1.21191773       0.78350494       1.11450217
H       -1.00628622       1.27610177      -1.16226068
H       -1.16370578      -1.28626660       0.85126702
11
Frame=8 idx=003023 GeodesicLength=0.8046722688956052 rxn_smarts="[C:1]([C@@:2]([O:3][H:10])([C:4](=[O:5])[H:11])[H:9])([H:6])([H:7])[H:8]>>[C:1](/[C:2]([O:3][H:10])=[C:4](/[O:5][H:9])[H:11])([H:6])([H:7])[H:8]"
C        1.39659537      -0.44121211      -0.01433934
C        0.08182941       0.25498806      -0.09299595
O       -0.03120806       1.14899415      -1.09132662
C       -1.12153389      -0.36601025       0.27922420
O       -2.18613269       0.45242716       0.14302664
H        2.18292532       0.29387356       0.16333278
H        1.40497895      -1.17788041       0.78837914
H        1.62466168      -0.94595419      -0.95563862
H       -1.18898408       0.80050969       1.11534636
H       -1.00247091       1.27848656      -1.17598881
H       -1.16066110      -1.29822221       0.84098022
11
Frame=9 idx=003023 GeodesicLength=0.9052688804686375 rxn_smarts="[C:1]([C@@:2]([O:3][H:10])([C:4](=[O:5])[H:11])[H:9])([H:6])([H:7])[H:8]>>[C:1](/[C:2]([O:3][H:10])=[C:4](/[O:5][H:9])[H:11])([H:6])([H:7])[H:8]"
C        1.39019236      -0.43853358      -0.00943336
C        0.07636975       0.26372135      -0.08231159
O       -0.03058228       1.15238010      -1.09256353
C       -1.12602620      -0.38374677       0.25721003
O       -2.18095277       0.44187760       0.16291463
H        2.17981782       0.29421321       0.16290232
H        1.40074093      -1.17365036       0.79488428
H        1.61239648      -0.94678936      -0.95022915
H       -1.16574562       0.81938311       1.11593357
H       -0.99867186       1.28132934      -1.18936809
H       -1.15753861      -1.31018465       0.83006089
11
Frame=10 idx=003023 GeodesicLength=1.0058125687326103 rxn_smarts="[C:1]([C@@:2]([O:3][H:10])([C:4](=[O:5])[H:11])[H:9])([H:6])([H:7])[H:8]>>[C:1](/[C:2]([O:3][H:10])=[C:4](/[O:5][H:9])[H:11])([H:6])([H:7])[H:8]"
C        1.38355709      -0.43595685      -0.00446722
C        0.07026420       0.27132433      -0.07244512
O       -0.03017232       1.15513952      -1.09405725
C       -1.13039463      -0.40150003       0.23460737
O       -2.17485671       0.43050318       0.18455463
H        2.17582918       0.29486095       0.16322703
H        1.39608652      -1.16961121       0.80129254
H        1.60087159      -0.94742144      -0.94465123
H       -1.14213596       0.84042574       1.11612211
H       -0.99484895       1.28450037      -1.20228034
H       -1.15420000      -1.32226454       0.81809747
11
Frame=11 idx=003023 GeodesicLength=1.1063645977410386 rxn_smarts="[C:1]([C@@:2]([O:3][H:10])([C:4](=[O:5])[H:11])[H:9])([H:6])([H:7])[H:8]>>[C:1](/[C:2]([O:3][H:10])=[C:4](/[O:5][H:9])[H:11])([H:6])([H:7])[H:8]"
C        1.37675101      -0.43349340       0.00063449
C        0.06353743       0.27793388      -0.06326810
O       -0.03003391       1.15729858      -1.09591791
C       -1.13476807      -0.41928595       0.21143024
O       -2.16780708       0.41824053       0.20826667
H        2.17116860       0.29580208       0.16425260
H        1.39106765      -1.16577456       0.80778501
H        1.59001822      -0.94796106      -0.93882386
H       -1.11810919       0.86403216       1.11576037
H       -0.99115194       1.28806526      -1.21478620
H       -1.15067273      -1.33485751       0.80466670
11
Frame=12 idx=003023 GeodesicLength=1.2069125603145738 rxn_smarts="[C:1]([C@@:2]([O:3][H:10])([C:4](=[O:5])[H:11])[H:9])([H:6])([H:7])[H:8]>>[C:1](/[C:2]([O:3][H:10])=[C:4](/[O:5][H:9])[H:11])([H:6])([H:7])[H:8]"
C        1.36973693      -0.43113200       0.00594531
C        0.05618387       0.28364123      -0.05466810
O       -0.03021343       1.15873501      -1.09821734
C       -1.13921302      -0.43708460       0.18763161
O       -2.15957164       0.40498437       0.23446099
H        2.16584086       0.29702769       0.16592668
H        1.38562179      -1.16203242       0.81451400
H        1.57973369      -0.94852394      -0.93263190
H       -1.09360071       0.89062614       1.11460659
H       -0.98764102       1.29205788      -1.22678945
H       -1.14687732      -1.34829935       0.78922162
11
Frame=13 idx=003023 GeodesicLength=1.307444864696767 rxn_smarts="[C:1]([C@@:2]([O:3][H:10])([C:4](=[O:5])[H:11])[H:9])([H:6])([H:7])[H:8]>>[C:1](/[C:2]([O:3][H:10])=[C:4](/[O:5][H:9])[H:11])([H:6])([H:7])[H:8]"
C        1.36240228      -0.42884227       0.01154870
C        0.04819701       0.28853582      -0.04651079
O       -0.03076329       1.15927076      -1.10097634
C       -1.14374578      -0.45482646       0.16317825
O       -2.14975618       0.39055328       0.26361388
H        2.15975290       0.29851421       0.16828536
H        1.37959407      -1.15826711       0.82157391
H        1.56981954      -0.94915696      -0.92596943
H       -1.06848911       0.92071026       1.11231141
H       -0.98434706       1.29640584      -1.23817436
H       -1.14266438      -1.36289737       0.77111941
11
Frame=14 idx=003023 GeodesicLength=1.4079841072615178 rxn_smarts="[C:1]([C@@:2]([O:3][H:10])([C:4](=[O:5])[H:11])[H:9])([H:6])([H:7])[H:8]>>[C:1](/[C:2]([O:3][H:10])=[C:4](/[O:5][H:9])[H:11])([H:6])([H:7])[H:8]"
C        1.35478214      -0.42664089       0.01755291
C        0.03955998       0.29271999      -0.03870080
O       -0.03174821       1.15884096      -1.10435545
C       -1.14854165      -0.47244723       0.13806448
O       -2.13809369       0.37479256       0.29640203
H        2.15303641       0.30025940       0.17123871
H        1.37297339      -1.15441569       0.82923683
H        1.56024308      -0.95005450      -0.91865647
H       -1.04278418       0.95484728       1.10843581
H       -0.98141170       1.30129065      -1.24885403
H       -1.13801557      -1.37919252       0.74963599
11
Frame=15 idx=003023 GeodesicLength=1.5085570106267212 rxn_smarts="[C:1]([C@@:2]([O:3][H:10])([C:4](=[O:5])[H:11])[H:9])([H:6])([H:7])[H:8]>>[C:1](/[C:2]([O:3][H:10])=[C:4](/[O:5][H:9])[H:11])([H:6])([H:7])[H:8]"
C        1.34675776      -0.42450129       0.02408791
C        0.03024926       0.29628570      -0.03110992
O       -0.03324229       1.15724294      -1.10842409
C       -1.15369299      -0.48979338       0.11224152
O       -2.12394866       0.35742249       0.33364997
H        2.14560461       0.30224393       0.17477513
H        1.36556992      -1.15028668       0.83773489
H        1.55077152      -0.95135847      -0.91048941
H       -1.01641356       0.99361121       1.10238152
H       -0.97888737       1.30673386      -1.25865734
H       -1.13276822      -1.39760030       0.72380981
11
Frame=16 idx=003023 GeodesicLength=1.6091664713845946 rxn_smarts="[C:1]([C@@:2]([O:3][H:10])([C:4](=[O:5])[H:11])[H:9])([H:6])([H:7])[H:8]>>[C:1](/[C:2]([O:3][H:10])=[C:4](/[O:5][H:9])[H:11])([H:6])([H:7])[H:8]"
C        1.33820003      -0.42240799       0.03127186
C        0.02025605       0.29937600      -0.02358646
O       -0.03530414       1.15431138      -1.11321641
C       -1.15929591      -0.50664500       0.08572602
O       -2.10650456       0.33801414       0.37630151
H        2.13737380       0.30441292       0.17896268
H        1.35712754      -1.14578920       0.84720145
H        1.54117891      -0.95316646      -0.90129762
H       -0.98948672       1.03757894       1.09333453
H       -0.97679797       1.31272817      -1.26742573
H       -1.12674702      -1.41841290       0.69272817
