15
Frame=0 idx=008870 GeodesicLength=0.0 rxn_smarts="[C:1]([n:2]1[c:3]([H:11])[c:4]([H:12])[c:5]([N:6]([H:13])[H:14])[c:7]1[H:15])([H:8])([H:9])[H:10]>>[C-:1]([N+:2]1([H:8])[C:3]([H:11])=[C:4]([H:12])[C:5]([N:6]([H:13])[H:14])=[C:7]1[H:15])([H:9])[H:10]"
C        2.54282924       0.26201769       0.17593915
N        0.99083021      -0.11295446      -0.30499489
C        0.44839305      -1.30584688       0.17858117
C       -0.87304486      -1.14608132       0.35577608
C       -1.21097656       0.20651040      -0.04424708
N       -2.48565001       0.73938404       0.06241372
C       -0.06832371       0.81080641      -0.44428361
H        1.79937748      -0.28557521      -1.00786998
H        2.53707151       1.34211506       0.01630978
H        2.53085456       0.05640790       1.24722185
H        1.10053929      -2.14648876       0.35424505
H       -1.56477951      -1.88838657       0.72437783
H       -3.23017706       0.07425864      -0.06161411
H       -2.64359985       1.58119748      -0.46509854
H        0.12665623       1.81263559      -0.78675643
15
Frame=1 idx=008870 GeodesicLength=0.06065698424256131 rxn_smarts="[C:1]([n:2]1[c:3]([H:11])[c:4]([H:12])[c:5]([N:6]([H:13])[H:14])[c:7]1[H:15])([H:8])([H:9])[H:10]>>[C-:1]([N+:2]1([H:8])[C:3]([H:11])=[C:4]([H:12])[C:5]([N:6]([H:13])[H:14])=[C:7]1[H:15])([H:9])[H:10]"
C        2.53134928       0.26123003       0.17819731
N        0.99236896      -0.11482691      -0.30285901
C        0.44804876      -1.30777482       0.17880725
C       -0.87445671      -1.14888778       0.35159771
C       -1.21048309       0.20538623      -0.04234032
N       -2.48464456       0.73983366       0.06657641
C       -0.06660172       0.80974167      -0.43973001
H        1.81440566      -0.29517891      -1.01051763
H        2.54407203       1.33766328      -0.00496776
H        2.51600752       0.08052193       1.25410108
H        1.09959307      -2.14885898       0.35443074
H       -1.56740179      -1.89300529       0.71422808
H       -3.22972129       0.07635168      -0.06308426
H       -2.64067224       1.58449559      -0.45699071
H        0.12813611       1.81330862      -0.77744887
15
Frame=2 idx=008870 GeodesicLength=0.121312352266827 rxn_smarts="[C:1]([n:2]1[c:3]([H:11])[c:4]([H:12])[c:5]([N:6]([H:13])[H:14])[c:7]1[H:15])([H:8])([H:9])[H:10]>>[C-:1]([N+:2]1([H:8])[C:3]([H:11])=[C:4]([H:12])[C:5]([N:6]([H:13])[H:14])=[C:7]1[H:15])([H:9])[H:10]"
C        2.51995236       0.26068176       0.18022250
N        0.99380263      -0.11657962      -0.30064836
C        0.44768857      -1.30957116       0.17918010
C       -0.87588372      -1.15158274       0.34748700
C       -1.21008534       0.20427261      -0.04054758
N       -2.48374794       0.74024523       0.07064959
C       -0.06500627       0.80870811      -0.43533516
H        1.82987070      -0.30497153      -1.01284099
H        2.55086674       1.33278882      -0.02559791
H        2.50158320       0.10438583       1.26008073
H        1.09866018      -2.15107676       0.35474426
H       -1.57001202      -1.89750606       0.70409913
H       -3.22934491       0.07840981      -0.06456403
H       -2.63789459       1.58769676      -0.44900321
H        0.12955042       1.81409893      -0.76792607
15
Frame=3 idx=008870 GeodesicLength=0.18197352775557363 rxn_smarts="[C:1]([n:2]1[c:3]([H:11])[c:4]([H:12])[c:5]([N:6]([H:13])[H:14])[c:7]1[H:15])([H:8])([H:9])[H:10]>>[C-:1]([N+:2]1([H:8])[C:3]([H:11])=[C:4]([H:12])[C:5]([N:6]([H:13])[H:14])=[C:7]1[H:15])([H:9])[H:10]"
C        2.50854801       0.26052247       0.18223183
N        0.99518622      -0.11831678      -0.29840195
C        0.44736384      -1.31126642       0.17984406
C       -0.87735961      -1.15433996       0.34303343
C       -1.20976636       0.20303618      -0.03919419
N       -2.48275703       0.74076035       0.07511329
C       -0.06353800       0.80746978      -0.43163675
H        1.84603476      -0.31518521      -1.01460468
H        2.55731560       1.32764001      -0.04567679
H        2.48722963       0.12846713       1.26545568
H        1.09782829      -2.15306251       0.35572646
H       -1.57277738      -1.90227997       0.69284931
H       -3.22906184       0.08077224      -0.06536063
H       -2.63512626       1.59110562      -0.44037103
H        0.13088012       1.81467706      -0.75900806
15
Frame=4 idx=008870 GeodesicLength=0.24264532138971792 rxn_smarts="[C:1]([n:2]1[c:3]([H:11])[c:4]([H:12])[c:5]([N:6]([H:13])[H:14])[c:7]1[H:15])([H:8])([H:9])[H:10]>>[C-:1]([N+:2]1([H:8])[C:3]([H:11])=[C:4]([H:12])[C:5]([N:6]([H:13])[H:14])=[C:7]1[H:15])([H:9])[H:10]"
C        2.49708063       0.26083131       0.18434549
N        0.99654920      -0.12009498      -0.29614150
C        0.44709759      -1.31287524       0.18088008
C       -0.87890150      -1.15725318       0.33799658
C       -1.20951710       0.20160672      -0.03846749
N       -2.48155044       0.74145415       0.08025831
C       -0.06219838       0.80589797      -0.42895031
H        1.86306626      -0.32596048      -1.01563330
H        2.56335331       1.32229997      -0.06525398
H        2.47272178       0.15303669       1.27037950
H        1.09713816      -2.15476631       0.35770144
H       -1.57578451      -1.90754257       0.67977780
H       -3.22888027       0.08362673      -0.06504846
H       -2.63228283       1.59488487      -0.43063934
H        0.13210809       1.81485435      -0.75120481
15
Frame=5 idx=008870 GeodesicLength=0.3033246252966957 rxn_smarts="[C:1]([n:2]1[c:3]([H:11])[c:4]([H:12])[c:5]([N:6]([H:13])[H:14])[c:7]1[H:15])([H:8])([H:9])[H:10]>>[C-:1]([N+:2]1([H:8])[C:3]([H:11])=[C:4]([H:12])[C:5]([N:6]([H:13])[H:14])=[C:7]1[H:15])([H:9])[H:10]"
C        2.48559226       0.26150181       0.18644402
N        0.99785786      -0.12185395      -0.29385574
C        0.44685050      -1.31438671       0.18217067
C       -0.88049163      -1.16023521       0.33255835
C       -1.20934728       0.20006306      -0.03819234
N       -2.48023090       0.74224176       0.08584790
C       -0.06098836       0.80412963      -0.42698937
H        1.88086802      -0.33718233      -1.01599079
H        2.56906691       1.31672872      -0.08429022
H        2.45820322       0.17783474       1.27472383
H        1.09652628      -2.15623431       0.36035274
H       -1.57891678      -1.91305556       0.66551643
H       -3.22879044       0.08678220      -0.06398180
H       -2.62943198       1.59886742      -0.42018038
H        0.13323232       1.81479872      -0.74413331
15
Frame=6 idx=008870 GeodesicLength=0.36400132039334 rxn_smarts="[C:1]([n:2]1[c:3]([H:11])[c:4]([H:12])[c:5]([N:6]([H:13])[H:14])[c:7]1[H:15])([H:8])([H:9])[H:10]>>[C-:1]([N+:2]1([H:8])[C:3]([H:11])=[C:4]([H:12])[C:5]([N:6]([H:13])[H:14])=[C:7]1[H:15])([H:9])[H:10]"
C        2.47413635       0.26238859       0.18841452
N        0.99907422      -0.12349743      -0.29155360
C        0.44657238      -1.31581382       0.18342234
C       -0.88209866      -1.16316856       0.32694235
C       -1.20927354       0.19849837      -0.03819832
N       -2.47894061       0.74302087       0.09150888
C       -0.05990390       0.80236844      -0.42535298
H        1.89931712      -0.34861174      -1.01582323
H        2.57452019       1.31091015      -0.10256984
H        2.44388012       0.20235748       1.27837471
H        1.09591335      -2.15757273       0.36305568
H       -1.58196318      -1.91839226       0.65132779
H       -3.22878685       0.08997830      -0.06259562
H       -2.62669671       1.60279641      -0.40962952
H        0.13424973       1.81473793      -0.73732316
15
Frame=7 idx=008870 GeodesicLength=0.4246811386713004 rxn_smarts="[C:1]([n:2]1[c:3]([H:11])[c:4]([H:12])[c:5]([N:6]([H:13])[H:14])[c:7]1[H:15])([H:8])([H:9])[H:10]>>[C-:1]([N+:2]1([H:8])[C:3]([H:11])=[C:4]([H:12])[C:5]([N:6]([H:13])[H:14])=[C:7]1[H:15])([H:9])[H:10]"
C        2.46266300       0.26356880       0.19035820
N        1.00022281      -0.12508059      -0.28924639
C        0.44628440      -1.31716225       0.18474456
C       -0.88373797      -1.16612975       0.32096454
C       -1.20928767       0.19685118      -0.03864277
N       -2.47755933       0.74387067       0.09752908
C       -0.05894591       0.80049037      -0.42432595
H        1.91856574      -0.36039400      -1.01494793
H        2.57966232       1.30492044      -0.12018465
H        2.42955506       0.22688734       1.28147168
H        1.09533666      -2.15872193       0.36616428
H       -1.58503821      -1.92380905       0.63640141
H       -3.22887313       0.09339794      -0.06045600
H       -2.62399212       1.60682376      -0.39856273
H        0.13514433       1.81448707      -0.73126733
15
Frame=8 idx=008870 GeodesicLength=0.4853498731702992 rxn_smarts="[C:1]([n:2]1[c:3]([H:11])[c:4]([H:12])[c:5]([N:6]([H:13])[H:14])[c:7]1[H:15])([H:8])([H:9])[H:10]>>[C-:1]([N+:2]1([H:8])[C:3]([H:11])=[C:4]([H:12])[C:5]([N:6]([H:13])[H:14])=[C:7]1[H:15])([H:9])[H:10]"
C        2.45131218       0.26481767       0.19194953
N        1.00122592      -0.12647552      -0.28687159
C        0.44592654      -1.31839102       0.18600011
C       -0.88536854      -1.16889503       0.31522711
C       -1.20940547       0.19531049      -0.03900574
N       -2.47636929       0.74461633       0.10331910
C       -0.05811673       0.79880456      -0.42315616
H        1.93828348      -0.37228831      -1.01364595
H        2.58466829       1.29866054      -0.13718589
H        2.41573920       0.25086077       1.28371615
H        1.09469301      -2.15977936       0.36903707
H       -1.58798745      -1.92891768       0.62197493
H       -3.22902930       0.09661366      -0.05856608
H       -2.62149463       1.61062312      -0.38786558
H        0.13592279       1.81443978      -0.72492702
15
Frame=9 idx=008870 GeodesicLength=0.5460119403997121 rxn_smarts="[C:1]([n:2]1[c:3]([H:11])[c:4]([H:12])[c:5]([N:6]([H:13])[H:14])[c:7]1[H:15])([H:8])([H:9])[H:10]>>[C-:1]([N+:2]1([H:8])[C:3]([H:11])=[C:4]([H:12])[C:5]([N:6]([H:13])[H:14])=[C:7]1[H:15])([H:9])[H:10]"
C        2.44006431       0.26611590       0.19325941
N        1.00209191      -0.12766632      -0.28447780
C        0.44549444      -1.31954185       0.18697555
C       -0.88699111      -1.17149063       0.30959522
C       -1.20963156       0.19385743      -0.03939184
N       -2.47536124       0.74526475       0.10884661
C       -0.05741039       0.79733068      -0.42185380
H        1.95854600      -0.38421495      -1.01191575
H        2.58949541       1.29220339      -0.15340516
H        2.40236601       0.27412110       1.28522088
H        1.09398049      -2.16079772       0.37142557
H       -1.59072839      -1.93356177       0.60859972
H       -3.22926623       0.09962638      -0.05684367
H       -2.61922943       1.61416521      -0.37762695
H        0.13657978       1.81458842      -0.71840801
15
Frame=10 idx=008870 GeodesicLength=0.6066669853244477 rxn_smarts="[C:1]([n:2]1[c:3]([H:11])[c:4]([H:12])[c:5]([N:6]([H:13])[H:14])[c:7]1[H:15])([H:8])([H:9])[H:10]>>[C-:1]([N+:2]1([H:8])[C:3]([H:11])=[C:4]([H:12])[C:5]([N:6]([H:13])[H:14])=[C:7]1[H:15])([H:9])[H:10]"
C        2.42888537       0.26751111       0.19435776
N        1.00283547      -0.12868954      -0.28208895
C        0.44500306      -1.32064332       0.18770683
C       -0.88862021      -1.17399333       0.30390503
C       -1.20996219       0.19245065      -0.03991363
N       -2.47446350       0.74586673       0.11428573
C       -0.05682935       0.79600081      -0.42060725
H        1.97946619      -0.39626678      -1.00964416
H        2.59410414       1.28562726      -0.16890305
H        2.38930800       0.29683495       1.28611175
H        1.09322570      -2.16177344       0.37352578
H       -1.59332273      -1.93789127       0.59589557
H       -3.22958855       0.10254909      -0.05504979
H       -2.61714518       1.61757192      -0.36756573
H        0.13710378       1.81484514      -0.71201589
15
Frame=11 idx=008870 GeodesicLength=0.6672737947456209 rxn_smarts="[C:1]([n:2]1[c:3]([H:11])[c:4]([H:12])[c:5]([N:6]([H:13])[H:14])[c:7]1[H:15])([H:8])([H:9])[H:10]>>[C-:1]([N+:2]1([H:8])[C:3]([H:11])=[C:4]([H:12])[C:5]([N:6]([H:13])[H:14])=[C:7]1[H:15])([H:9])[H:10]"
C        2.41785622       0.26878386       0.19507649
N        1.00341215      -0.12942716      -0.27974456
C        0.44440555      -1.32168454       0.18775016
C       -0.89023576      -1.17625888       0.29834579
C       -1.21041309       0.19119472      -0.04032385
N       -2.47390135       0.74627335       0.11906118
C       -0.05636570       0.79503992      -0.41884643
H        2.00086788      -0.40808170      -1.00708108
H        2.59858483       1.27887173      -0.18346575
H        2.37686149       0.31832509       1.28624859
H        1.09235254      -2.16277960       0.37442296
H       -1.59551972      -1.94130177       0.58590481
H       -3.22999988       0.10503893      -0.05396037
H       -2.61542643       1.62051310      -0.35856272
H        0.13752125       1.81549295      -0.70482522
15
Frame=12 idx=008870 GeodesicLength=0.7278896738415327 rxn_smarts="[C:1]([n:2]1[c:3]([H:11])[c:4]([H:12])[c:5]([N:6]([H:13])[H:14])[c:7]1[H:15])([H:8])([H:9])[H:10]>>[C-:1]([N+:2]1([H:8])[C:3]([H:11])=[C:4]([H:12])[C:5]([N:6]([H:13])[H:14])=[C:7]1[H:15])([H:9])[H:10]"
C        2.40692017       0.27017270       0.19549696
N        1.00385456      -0.13002913      -0.27735319
C        0.44376377      -1.32263508       0.18781526
C       -0.89186649      -1.17842095       0.29288409
C       -1.21096162       0.19000114      -0.04071724
N       -2.47345174       0.74664810       0.12389386
C       -0.05603932       0.79418677      -0.41712513
H        2.02293970      -0.42021979      -1.00385232
H        2.60287205       1.27201685      -0.19769521
H        2.36479900       0.33954511       1.28576357
H        1.09146168      -2.16366538       0.37544718
H       -1.59774609      -1.94472977       0.57557153
H       -3.23049247       0.10749713      -0.05286995
H       -2.61383773       1.62344617      -0.34941416
H        0.13778455       1.81618614      -0.69784526
15
Frame=13 idx=008870 GeodesicLength=0.788512476764538 rxn_smarts="[C:1]([n:2]1[c:3]([H:11])[c:4]([H:12])[c:5]([N:6]([H:13])[H:14])[c:7]1[H:15])([H:8])([H:9])[H:10]>>[C-:1]([N+:2]1([H:8])[C:3]([H:11])=[C:4]([H:12])[C:5]([N:6]([H:13])[H:14])=[C:7]1[H:15])([H:9])[H:10]"
C        2.39603394       0.27181215       0.19564126
N        1.00417926      -0.13059133      -0.27485551
C        0.44311202      -1.32341956       0.18838105
C       -0.89353583      -1.18054173       0.28745050
C       -1.21159594       0.18880582      -0.04114778
N       -2.47295951       0.74708043       0.12926814
C       -0.05586717       0.79323203      -0.41580346
H        2.04581677      -0.43303506      -0.99958883
H        2.60693957       1.26502659      -0.21202923
H        2.35294888       0.36114578       1.28463746
H        1.09060927      -2.16421825       0.37753822
H       -1.60026635      -1.94875129       0.56275734
H       -3.23105493       0.11019097      -0.05127079
H       -2.61222232       1.62661632      -0.33932139
H        0.13786236       1.81664714      -0.69165699
15
Frame=14 idx=008870 GeodesicLength=0.8491307443862088 rxn_smarts="[C:1]([n:2]1[c:3]([H:11])[c:4]([H:12])[c:5]([N:6]([H:13])[H:14])[c:7]1[H:15])([H:8])([H:9])[H:10]>>[C-:1]([N+:2]1([H:8])[C:3]([H:11])=[C:4]([H:12])[C:5]([N:6]([H:13])[H:14])=[C:7]1[H:15])([H:9])[H:10]"
C        2.38522175       0.27344954       0.19551552
N        1.00436068      -0.13096866      -0.27244670
C        0.44238640      -1.32418701       0.18848154
C       -0.89522989      -1.18259477       0.28181760
C       -1.21234713       0.18767046      -0.04170352
N       -2.47263531       0.74742652       0.13443276
C       -0.05582683       0.79248407      -0.41441850
H        2.06945960      -0.44596761      -0.99466511
H        2.61083894       1.25794270      -0.22581310
H        2.34140256       0.38212944       1.28296038
H        1.08969515      -2.16476176       0.37911861
H       -1.60258358      -1.95230861       0.55126025
H       -3.23171912       0.11272292      -0.04980261
H       -2.61083997       1.62961134      -0.32953696
H        0.13781677       1.81735144      -0.68520018
15
Frame=15 idx=008870 GeodesicLength=0.9097569284970849 rxn_smarts="[C:1]([n:2]1[c:3]([H:11])[c:4]([H:12])[c:5]([N:6]([H:13])[H:14])[c:7]1[H:15])([H:8])([H:9])[H:10]>>[C-:1]([N+:2]1([H:8])[C:3]([H:11])=[C:4]([H:12])[C:5]([N:6]([H:13])[H:14])=[C:7]1[H:15])([H:9])[H:10]"
C        2.37437946       0.27535712       0.19524557
N        1.00444050      -0.13132147      -0.27003643
C        0.44163446      -1.32481581       0.18885908
C       -0.89698601      -1.18468343       0.27582034
C       -1.21319241       0.18645943      -0.04260064
N       -2.47215814       0.74785594       0.14027203
C       -0.05593442       0.79155717      -0.41369685
H        2.09415423      -0.45957578      -0.98840510
H        2.61449055       1.25074143      -0.23959103
H        2.32976549       0.40356490       1.28074893
H        1.08879380      -2.16495604       0.38165771
H       -1.60512380      -1.95633940       0.53753620
H       -3.23247003       0.11557725      -0.04736717
H       -2.60939439       1.63283506      -0.31867814
H        0.13760072       1.81774362      -0.67976450
15
Frame=16 idx=008870 GeodesicLength=0.970391536981196 rxn_smarts="[C:1]([n:2]1[c:3]([H:11])[c:4]([H:12])[c:5]([N:6]([H:13])[H:14])[c:7]1[H:15])([H:8])([H:9])[H:10]>>[C-:1]([N+:2]1([H:8])[C:3]([H:11])=[C:4]([H:12])[C:5]([N:6]([H:13])[H:14])=[C:7]1[H:15])([H:9])[H:10]"
C        2.36353538       0.27742936       0.19476659
N        1.00439463      -0.13159566      -0.26768276
C        0.44083583      -1.32537092       0.18923749
C       -0.89879181      -1.18679047       0.26948346
C       -1.21414614       0.18523058      -0.04376124
N       -2.47163506       0.74831299       0.14651019
C       -0.05619487       0.79060635      -0.41339798
H        2.11985827      -0.47370503      -0.98090889
H        2.61793170       1.24343417      -0.25325109
H        2.31815510       0.42512126       1.27799381
H        1.08787351      -2.16494379       0.38468555
H       -1.60773142      -1.96053279       0.52273018
H       -3.23331150       0.11858354      -0.04430926
H       -2.60798792       1.63616177      -0.30718524
H        0.13721429       1.81805864      -0.67491081
