11
Frame=0 idx=000414 GeodesicLength=0.0 rxn_smarts="[O:1]([N:2]=[C:3]1[C:4]([H:8])([H:9])[O:5][C:6]1([H:10])[H:11])[H:7]>>[O:1]=[N:2][C:3]1([H:7])[C:4]([H:8])([H:9])[O:5][C:6]1([H:10])[H:11]"
O        2.29478105      -0.74837652       0.09119446
N        1.42401802      -0.23978691       0.86495212
C        0.47898405       0.23613141       0.01304675
C       -0.70404395       1.05776032       0.46503630
O       -1.63401961       0.05404753       0.01888395
C       -0.60216719      -0.77713677      -0.49778314
H        1.57032481      -0.17008038      -0.82308025
H       -0.84849091       1.99842747      -0.07177070
H       -0.75534649       1.22996322       1.54359339
H       -0.55323214      -1.75996600      -0.02178598
H       -0.67080759      -0.88098337      -1.58228692
11
Frame=1 idx=000414 GeodesicLength=0.03994466029659107 rxn_smarts="[O:1]([N:2]=[C:3]1[C:4]([H:8])([H:9])[O:5][C:6]1([H:10])[H:11])[H:7]>>[O:1]=[N:2][C:3]1([H:7])[C:4]([H:8])([H:9])[O:5][C:6]1([H:10])[H:11]"
O        2.29740063      -0.74843037       0.09200720
N        1.42257728      -0.24087268       0.86414542
C        0.47598184       0.23050981       0.01099690
C       -0.70375368       1.05663196       0.46491686
O       -1.63714535       0.05750795       0.01614292
C       -0.60627219      -0.77905973      -0.49587300
H        1.58868616      -0.15381800      -0.83001922
H       -0.84371810       1.99928313      -0.06955271
H       -0.75756487       1.22660356       1.54371951
H       -0.56323295      -1.76052220      -0.01640989
H       -0.67295878      -0.88783344      -1.58007399
11
Frame=2 idx=000414 GeodesicLength=0.07989217797764153 rxn_smarts="[O:1]([N:2]=[C:3]1[C:4]([H:8])([H:9])[O:5][C:6]1([H:10])[H:11])[H:7]>>[O:1]=[N:2][C:3]1([H:7])[C:4]([H:8])([H:9])[O:5][C:6]1([H:10])[H:11]"
O        2.30005898      -0.74828337       0.09255892
N        1.42105689      -0.24226259       0.86327705
C        0.47294779       0.22468702       0.00889131
C       -0.70338366       1.05544411       0.46473223
O       -1.64029075       0.06104715       0.01332352
C       -0.61054382      -0.78109787      -0.49391341
H        1.60735951      -0.13682920      -0.83654574
H       -0.83873806       2.00006484      -0.06740294
H       -0.75970492       1.22322743       1.54376349
H       -0.57354346      -1.76110918      -0.01090431
H       -0.67521850      -0.89488833      -1.57778012
11
Frame=3 idx=000414 GeodesicLength=0.119841366937777 rxn_smarts="[O:1]([N:2]=[C:3]1[C:4]([H:8])([H:9])[O:5][C:6]1([H:10])[H:11])[H:7]>>[O:1]=[N:2][C:3]1([H:7])[C:4]([H:8])([H:9])[O:5][C:6]1([H:10])[H:11]"
O        2.30275865      -0.74794358       0.09285616
N        1.41945639      -0.24395860       0.86234432
C        0.46988396       0.21866175       0.00672108
C       -0.70292929       1.05419601       0.46447713
O       -1.64345278       0.06464973       0.01045509
C       -0.61498753      -0.78325035      -0.49190924
H        1.62634637      -0.11910853      -0.84262010
H       -0.83356361       2.00076021      -0.06534137
H       -0.76174750       1.21985524       1.54371958
H       -0.58415072      -1.76173099      -0.00529133
H       -0.67761392      -0.90213090      -1.57541133
11
Frame=4 idx=000414 GeodesicLength=0.15977212353899806 rxn_smarts="[O:1]([N:2]=[C:3]1[C:4]([H:8])([H:9])[O:5][C:6]1([H:10])[H:11])[H:7]>>[O:1]=[N:2][C:3]1([H:7])[C:4]([H:8])([H:9])[O:5][C:6]1([H:10])[H:11]"
O        2.30548012      -0.74742387       0.09290109
N        1.41776759      -0.24596808       0.86134156
C        0.46679004       0.21242933       0.00447498
C       -0.70238499       1.05288549       0.46414338
O       -1.64662091       0.06830181       0.00757016
C       -0.61960086      -0.78551359      -0.48986083
H        1.64564389      -0.10064613      -0.84819952
H       -0.82821042       2.00135442      -0.06338721
H       -0.76367128       1.21650700       1.54357208
H       -0.59502754      -1.76238829       0.00040567
H       -0.68016564      -0.90953809      -1.57296136
11
Frame=5 idx=000414 GeodesicLength=0.19968646801953976 rxn_smarts="[O:1]([N:2]=[C:3]1[C:4]([H:8])([H:9])[O:5][C:6]1([H:10])[H:11])[H:7]>>[O:1]=[N:2][C:3]1([H:7])[C:4]([H:8])([H:9])[O:5][C:6]1([H:10])[H:11]"
O        2.30824228      -0.74671699       0.09269228
N        1.41599566      -0.24829538       0.86025994
C        0.46366810       0.20598716       0.00214236
C       -0.70174487       1.05151090       0.46372668
O       -1.64979826       0.07199860       0.00467475
C       -0.62439480      -0.78789140      -0.48777310
H        1.66525499      -0.08142304      -0.85323926
H       -0.82267452       2.00184324      -0.06155167
H       -0.76546290       1.21318730       1.54332242
H       -0.60618449      -1.76308334       0.00618504
H       -0.68290117      -0.91711706      -1.57043944
11
Frame=6 idx=000414 GeodesicLength=0.23958525952831217 rxn_smarts="[O:1]([N:2]=[C:3]1[C:4]([H:8])([H:9])[O:5][C:6]1([H:10])[H:11])[H:7]>>[O:1]=[N:2][C:3]1([H:7])[C:4]([H:8])([H:9])[O:5][C:6]1([H:10])[H:11]"
O        2.31104224      -0.74582241       0.09222012
N        1.41413859      -0.25094982       0.85908838
C        0.46051718       0.19932986      -0.00028717
C       -0.70100337       1.05006971       0.46322091
O       -1.65298071       0.07573919       0.00177377
C       -0.62937197      -0.79038502      -0.48564554
H        1.68518008      -0.06141548      -0.85769719
H       -0.81695340       2.00222118      -0.05984256
H       -0.76711114       1.20989886       1.54296314
H       -0.61762070      -1.76381362       0.01204735
H       -0.68583679      -0.92487246      -1.56784121
11
Frame=7 idx=000414 GeodesicLength=0.27946843553105916 rxn_smarts="[O:1]([N:2]=[C:3]1[C:4]([H:8])([H:9])[O:5][C:6]1([H:10])[H:11])[H:7]>>[O:1]=[N:2][C:3]1([H:7])[C:4]([H:8])([H:9])[O:5][C:6]1([H:10])[H:11]"
O        2.31388139      -0.74473748       0.09147700
N        1.41219640      -0.25393956       0.85781573
C        0.45733722       0.19245276      -0.00282503
C       -0.70015443       1.04855942       0.46261976
O       -1.65616563       0.07952045      -0.00112537
C       -0.63453676      -0.79299593      -0.48347911
H        1.70541875      -0.04060235      -0.86152649
H       -0.81104518       2.00248225      -0.05827027
H       -0.76860224       1.20664600       1.54248814
H       -0.62933611      -1.76457788       0.01799130
H       -0.68899340      -0.93280769      -1.56516567
11
Frame=8 idx=000414 GeodesicLength=0.31933782552198575 rxn_smarts="[O:1]([N:2]=[C:3]1[C:4]([H:8])([H:9])[O:5][C:6]1([H:10])[H:11])[H:7]>>[O:1]=[N:2][C:3]1([H:7])[C:4]([H:8])([H:9])[O:5][C:6]1([H:10])[H:11]"
O        2.31676062      -0.74345938       0.09045453
N        1.41016983      -0.25727211       0.85642978
C        0.45412805       0.18535147      -0.00548316
C       -0.69919192       1.04697750       0.46191674
O       -1.65935041       0.08333942      -0.00401587
C       -0.63989343      -0.79572554      -0.48127474
H        1.72596974      -0.01896329      -0.86467823
H       -0.80494771       2.00262076      -0.05684513
H       -0.76992212       1.20343247       1.54189138
H       -0.64133034      -1.76537451       0.02401644
H       -0.69239230      -0.94092681      -1.56241173
11
Frame=9 idx=000414 GeodesicLength=0.3592137057324653 rxn_smarts="[O:1]([N:2]=[C:3]1[C:4]([H:8])([H:9])[O:5][C:6]1([H:10])[H:11])[H:7]>>[O:1]=[N:2][C:3]1([H:7])[C:4]([H:8])([H:9])[O:5][C:6]1([H:10])[H:11]"
O        2.31968021      -0.74198609       0.08914354
N        1.40806135      -0.26095517       0.85492345
C        0.45088970       0.17802164      -0.00827263
C       -0.69810861       1.04532334       0.46110613
O       -1.66253337       0.08719274      -0.00689514
C       -0.64544748      -0.79857874      -0.47903405
H        1.74683187       0.00353009      -0.86710781
H       -0.79865562       2.00263655      -0.05557769
H       -0.77105586       1.20026284       1.54117083
H       -0.65360642      -1.76620722       0.03012520
H       -0.69605578      -0.94923997      -1.55958183
11
Frame=10 idx=000414 GeodesicLength=0.39899295910598576 rxn_smarts="[O:1]([N:2]=[C:3]1[C:4]([H:8])([H:9])[O:5][C:6]1([H:10])[H:11])[H:7]>>[O:1]=[N:2][C:3]1([H:7])[C:4]([H:8])([H:9])[O:5][C:6]1([H:10])[H:11]"
O        2.32265137      -0.74029054       0.08753916
N        1.40587108      -0.26499010       0.85325670
C        0.44762316       0.17046342      -0.01121636
C       -0.69689832       1.04359090       0.46018014
O       -1.66570796       0.09108057      -0.00975003
C       -0.65119887      -0.80154847      -0.47676048
H        1.76797947       0.02684713      -0.86873038
H       -0.79217072       2.00251595      -0.05447328
H       -0.77198807       1.19713310       1.54031541
H       -0.66615428      -1.76706020       0.03631221
H       -0.70000687      -0.95774175      -1.55667307
11
Frame=11 idx=000414 GeodesicLength=0.4388135041568388 rxn_smarts="[O:1]([N:2]=[C:3]1[C:4]([H:8])([H:9])[O:5][C:6]1([H:10])[H:11])[H:7]>>[O:1]=[N:2][C:3]1([H:7])[C:4]([H:8])([H:9])[O:5][C:6]1([H:10])[H:11]"
O        2.32566462      -0.73839093       0.08560277
N        1.40360440      -0.26940259       0.85143064
C        0.44432376       0.16265937      -0.01431475
C       -0.69555472       1.04177373       0.45912925
O       -1.66887511       0.09501626      -0.01260849
C       -0.65715606      -0.80464171      -0.47444244
H        1.78944056       0.05109066      -0.86951936
H       -0.78547203       2.00225451      -0.05353658
H       -0.77271765       1.19403241       1.53931295
H       -0.67900406      -1.76792422       0.04261038
H       -0.70425372      -0.96646748      -1.55366436
11
Frame=12 idx=000414 GeodesicLength=0.4786389448261951 rxn_smarts="[O:1]([N:2]=[C:3]1[C:4]([H:8])([H:9])[O:5][C:6]1([H:10])[H:11])[H:7]>>[O:1]=[N:2][C:3]1([H:7])[C:4]([H:8])([H:9])[O:5][C:6]1([H:10])[H:11]"
O        2.32872875      -0.73626241       0.08333472
N        1.40126631      -0.27419096       0.84942893
C        0.44099371       0.15461371      -0.01758950
C       -0.69406665       1.03987800       0.45795109
O       -1.67203268       0.09898893      -0.01546283
C       -0.66332680      -0.80787036      -0.47209137
H        1.81119663       0.07625623      -0.86940556
H       -0.77855164       2.00186733      -0.05277991
H       -0.77321897       1.19097057       1.53817702
H       -0.69215670      -1.76881859       0.04901683
H       -0.70883196      -0.97543245      -1.55057941
11
Frame=13 idx=000414 GeodesicLength=0.5184175563612422 rxn_smarts="[O:1]([N:2]=[C:3]1[C:4]([H:8])([H:9])[O:5][C:6]1([H:10])[H:11])[H:7]>>[O:1]=[N:2][C:3]1([H:7])[C:4]([H:8])([H:9])[O:5][C:6]1([H:10])[H:11]"
O        2.33184914      -0.73388821       0.08072298
N        1.39885974      -0.27935612       0.84721289
C        0.43763243       0.14632346      -0.02105807
C       -0.69243154       1.03789147       0.45663425
O       -1.67517462       0.10300367      -0.01830737
C       -0.66970764      -0.81121954      -0.46970302
H        1.83322254       0.10231678      -0.86831526
H       -0.77141262       2.00132959      -0.05220665
H       -0.77348249       1.18793352       1.53688444
H       -0.70559787      -1.76971002       0.05553369
H       -0.71375708      -0.98462458      -1.54739788
11
Frame=14 idx=000414 GeodesicLength=0.5581973415399296 rxn_smarts="[O:1]([N:2]=[C:3]1[C:4]([H:8])([H:9])[O:5][C:6]1([H:10])[H:11])[H:7]>>[O:1]=[N:2][C:3]1([H:7])[C:4]([H:8])([H:9])[O:5][C:6]1([H:10])[H:11]"
O        2.33501548      -0.73127025       0.07772740
N        1.39638338      -0.28492824       0.84476137
C        0.43423436       0.13777275      -0.02473534
C       -0.69064056       1.03581099       0.45516770
O       -1.67829460       0.10706581      -0.02114354
C       -0.67630499      -0.81469766      -0.46727216
H        1.85553068       0.12935219      -0.86616473
H       -0.76404155       2.00063363      -0.05183369
H       -0.77348894       1.18492809       1.53542255
H       -0.71934396      -1.77059575       0.06217742
H       -0.71904929      -0.99407156      -1.54410698
11
Frame=15 idx=000414 GeodesicLength=0.5980032305346206 rxn_smarts="[O:1]([N:2]=[C:3]1[C:4]([H:8])([H:9])[O:5][C:6]1([H:10])[H:11])[H:7]>>[O:1]=[N:2][C:3]1([H:7])[C:4]([H:8])([H:9])[O:5][C:6]1([H:10])[H:11]"
O        2.33824342      -0.72837931       0.07434894
N        1.39385642      -0.29090013       0.84206982
C        0.43080385       0.12896738      -0.02863856
C       -0.68867963       1.03364113       0.45354770
O       -1.68140014       0.11116326      -0.02398150
C       -0.68313557      -0.81831957      -0.46480946
H        1.87810831       0.15737017      -0.86289725
H       -0.75641933       1.99980056      -0.05167464
H       -0.77321160       1.18195197       1.53381057
H       -0.73341211      -1.77149826       0.06895893
H       -0.72475362      -1.00379720      -1.54073456
11
Frame=16 idx=000414 GeodesicLength=0.6377677889458269 rxn_smarts="[O:1]([N:2]=[C:3]1[C:4]([H:8])([H:9])[O:5][C:6]1([H:10])[H:11])[H:7]>>[O:1]=[N:2][C:3]1([H:7])[C:4]([H:8])([H:9])[O:5][C:6]1([H:10])[H:11]"
O        2.34151904      -0.72521265       0.07055727
N        1.39126852      -0.29727468       0.83907683
C        0.42733376       0.11989971      -0.03278717
C       -0.68655339       1.03136624       0.45176097
O       -1.68446929       0.11531262      -0.02680313
C       -0.69017728      -0.82205604      -0.46230219
H        1.90091684       0.18631571      -0.85842474
H       -0.74856603       1.99878688      -0.05172554
H       -0.77265471       1.17899341       1.53200468
H       -0.74775729      -1.77235576       0.07587511
H       -0.73086016      -1.01377545      -1.53723210
