14
Frame=0 idx=000392 GeodesicLength=0.0 rxn_smarts="[C:1]([C:2]([C@@:3]([O:4][H:13])([C:5](=[O:6])[H:14])[H:12])([H:10])[H:11])([H:7])([H:8])[H:9]>>[C:1]([C:2]([C@@:3]([O:4][H:13])([C:5][O:6][H:14])[H:12])([H:10])[H:11])([H:7])([H:8])[H:9]"
C       -1.41071574      -0.74393584       0.41669878
C       -0.95132474       0.38363136      -0.49669067
C        0.51361993       0.76654462      -0.28670438
O        0.73026937       1.25489849       1.00694128
C        1.42333829      -0.37521990      -0.62175029
O        2.31270393      -0.66775079       0.28324983
H       -2.47478813      -0.94217196       0.28219588
H       -1.24333391      -0.48580591       1.46282800
H       -0.87166486      -1.67110386       0.20558092
H       -1.54965274       1.28009653      -0.32034994
H       -1.08158743       0.10911672      -1.54661522
H        0.77720352       1.53383719      -1.03500829
H        1.52420105       0.83037803       1.35841031
H        2.30173141      -1.27251474      -0.70878618
14
Frame=1 idx=000392 GeodesicLength=0.031900595050861257 rxn_smarts="[C:1]([C:2]([C@@:3]([O:4][H:13])([C:5](=[O:6])[H:14])[H:12])([H:10])[H:11])([H:7])([H:8])[H:9]>>[C:1]([C:2]([C@@:3]([O:4][H:13])([C:5][O:6][H:14])[H:12])([H:10])[H:11])([H:7])([H:8])[H:9]"
C       -1.40843567      -0.74445349       0.41659772
C       -0.94987096       0.38326979      -0.49699501
C        0.51396211       0.76926200      -0.28529723
O        0.72827860       1.25711639       1.00913558
C        1.42661329      -0.36862454      -0.62316725
O        2.30975727      -0.66775931       0.28106748
H       -2.47202787      -0.94458944       0.28096321
H       -1.24339042      -0.48507178       1.46279047
H       -0.86737810      -1.67081097       0.20716278
H       -1.54994735       1.27878079      -0.32165097
H       -1.07867815       0.10781667      -1.54688045
H        0.77620724       1.53797994      -1.03279534
H        1.52283142       0.83415903       1.36061943
H        2.29207858      -1.28707509      -0.71155041
14
Frame=2 idx=000392 GeodesicLength=0.06386398964562325 rxn_smarts="[C:1]([C:2]([C@@:3]([O:4][H:13])([C:5](=[O:6])[H:14])[H:12])([H:10])[H:11])([H:7])([H:8])[H:9]>>[C:1]([C:2]([C@@:3]([O:4][H:13])([C:5][O:6][H:14])[H:12])([H:10])[H:11])([H:7])([H:8])[H:9]"
C       -1.40613192      -0.74497360       0.41650081
C       -0.94838014       0.38288929      -0.49730905
C        0.51433091       0.77195955      -0.28388448
O        0.72629401       1.25932948       1.01132948
C        1.42992195      -0.36204152      -0.62453312
O        2.30683352      -0.66777745       0.27888793
H       -2.46923284      -0.94702610       0.27971205
H       -1.24345846      -0.48431654       1.46275012
H       -0.86305578      -1.67051528       0.20879256
H       -1.55020382       1.27744633      -0.32298830
H       -1.07570710       0.10647649      -1.54715002
H        0.77523895       1.54209241      -1.03058169
H        1.52144199       0.83791958       1.36286053
H        2.28210875      -1.30146263      -0.71438681
14
Frame=3 idx=000392 GeodesicLength=0.09594086519507392 rxn_smarts="[C:1]([C:2]([C@@:3]([O:4][H:13])([C:5](=[O:6])[H:14])[H:12])([H:10])[H:11])([H:7])([H:8])[H:9]>>[C:1]([C:2]([C@@:3]([O:4][H:13])([C:5][O:6][H:14])[H:12])([H:10])[H:11])([H:7])([H:8])[H:9]"
C       -1.40377868      -0.74551033       0.41639299
C       -0.94684622       0.38249508      -0.49763226
C        0.51472695       0.77466217      -0.28246288
O        0.72431186       1.26154456       1.01353318
C        1.43328310      -0.35542421      -0.62586541
O        2.30397725      -0.66773866       0.27667523
H       -2.46637258      -0.94951474       0.27841791
H       -1.24351985      -0.48356279       1.46269464
H       -0.85865119      -1.67021702       0.21045041
H       -1.55043064       1.27608566      -0.32434988
H       -1.07266482       0.10511319      -1.54742640
H        0.77428404       1.54621551      -1.02835176
H        1.52005059       0.84169082       1.36512505
H        2.27163019      -1.31583923      -0.71720082
14
Frame=4 idx=000392 GeodesicLength=0.12822369941644413 rxn_smarts="[C:1]([C:2]([C@@:3]([O:4][H:13])([C:5](=[O:6])[H:14])[H:12])([H:10])[H:11])([H:7])([H:8])[H:9]>>[C:1]([C:2]([C@@:3]([O:4][H:13])([C:5][O:6][H:14])[H:12])([H:10])[H:11])([H:7])([H:8])[H:9]"
C       -1.40134003      -0.74608392       0.41625562
C       -0.94526516       0.38210033      -0.49796353
C        0.51515125       0.77740876      -0.28103554
O        0.72233065       1.26378128       1.01575197
C        1.43672126      -0.34870973      -0.62719712
O        2.30123308      -0.66757582       0.27438014
H       -2.46340506      -0.95210778       0.27705639
H       -1.24354608      -0.48284590       1.46261023
H       -0.85410251      -1.66991990       0.21210223
H       -1.55064227       1.27469774      -0.32571055
H       -1.06954586       0.10375862      -1.54771407
H        0.77332423       1.55041031      -1.02609586
H        1.51867019       0.84550453       1.36740261
H        2.26041632      -1.33041853      -0.71984252
14
Frame=5 idx=000392 GeodesicLength=0.15968708625676478 rxn_smarts="[C:1]([C:2]([C@@:3]([O:4][H:13])([C:5](=[O:6])[H:14])[H:12])([H:10])[H:11])([H:7])([H:8])[H:9]>>[C:1]([C:2]([C@@:3]([O:4][H:13])([C:5][O:6][H:14])[H:12])([H:10])[H:11])([H:7])([H:8])[H:9]"
C       -1.39885726      -0.74668083       0.41611324
C       -0.94363035       0.38168354      -0.49830805
C        0.51562241       0.78012915      -0.27961344
O        0.72037632       1.26599726       1.01796467
C        1.44021574      -0.34202269      -0.62850641
O        2.29855197      -0.66743471       0.27204257
H       -2.46037991      -0.95475494       0.27565503
H       -1.24357718      -0.48212952       1.46251649
H       -0.84948349      -1.66963808       0.21379751
H       -1.55080284       1.27328906      -0.32709867
H       -1.06634696       0.10237016      -1.54801343
H        0.77241125       1.55458061      -1.02384484
H        1.51731063       0.84929647       1.36968399
H        2.24858967      -1.34468548      -0.72238865
14
Frame=6 idx=000392 GeodesicLength=0.19176417362006842 rxn_smarts="[C:1]([C:2]([C@@:3]([O:4][H:13])([C:5](=[O:6])[H:14])[H:12])([H:10])[H:11])([H:7])([H:8])[H:9]>>[C:1]([C:2]([C@@:3]([O:4][H:13])([C:5][O:6][H:14])[H:12])([H:10])[H:11])([H:7])([H:8])[H:9]"
C       -1.39636332      -0.74725449       0.41597993
C       -0.94196573       0.38123759      -0.49865808
C        0.51610181       0.78280507      -0.27817386
O        0.71841735       1.26820216       1.02017608
C        1.44369483      -0.33536911      -0.62972257
O        2.29585353      -0.66728972       0.26974893
H       -2.45732956      -0.95735996       0.27424958
H       -1.24360061      -0.48137392       1.46241787
H       -0.84488480      -1.66933043       0.21553700
H       -1.55091640       1.27184347      -0.32853641
H       -1.06309747       0.10091962      -1.54830556
H        0.77151227       1.55866941      -1.02158371
H        1.51590584       0.85306555       1.37201296
H        2.23667223      -1.35876525      -0.72514218
14
Frame=7 idx=000392 GeodesicLength=0.22366344772237698 rxn_smarts="[C:1]([C:2]([C@@:3]([O:4][H:13])([C:5](=[O:6])[H:14])[H:12])([H:10])[H:11])([H:7])([H:8])[H:9]>>[C:1]([C:2]([C@@:3]([O:4][H:13])([C:5][O:6][H:14])[H:12])([H:10])[H:11])([H:7])([H:8])[H:9]"
C       -1.39390203      -0.74781765       0.41588017
C       -0.94027274       0.38076090      -0.49901827
C        0.51661515       0.78542058      -0.27673015
O        0.71646685       1.27039059       1.02237765
C        1.44719150      -0.32881684      -0.63085743
O        2.29317090      -0.66722807       0.26748854
H       -2.45431290      -0.95993763       0.27285693
H       -1.24369133      -0.48056810       1.46234184
H       -0.84033557      -1.66903820       0.21737197
H       -1.55098523       1.27039573      -0.33003989
H       -1.05978491       0.09939222      -1.54859824
H        0.77068023       1.56267403      -1.01934039
H        1.51446994       0.85678071       1.37438357
H        2.22469011      -1.37240830      -0.72811631
14
Frame=8 idx=000392 GeodesicLength=0.25573500404140703 rxn_smarts="[C:1]([C:2]([C@@:3]([O:4][H:13])([C:5](=[O:6])[H:14])[H:12])([H:10])[H:11])([H:7])([H:8])[H:9]>>[C:1]([C:2]([C@@:3]([O:4][H:13])([C:5][O:6][H:14])[H:12])([H:10])[H:11])([H:7])([H:8])[H:9]"
C       -1.39140703      -0.74838571       0.41578262
C       -0.93853942       0.38026408      -0.49938746
C        0.51715516       0.78802261      -0.27527524
O        0.71451813       1.27257912       1.02458340
C        1.45072379      -0.32226495      -0.63193470
O        2.29051508      -0.66716168       0.26523554
H       -2.45124531      -0.96255111       0.27143066
H       -1.24379351      -0.47974074       1.46225865
H       -0.83573275      -1.66873884       0.21926300
H       -1.55101952       1.26892153      -0.33158516
H       -1.05639774       0.09782072      -1.54889281
H        0.76987427       1.56665676      -1.01708551
H        1.51302032       0.86049676       1.37678585
H        2.21232852      -1.38591853      -0.73117883
14
Frame=9 idx=000392 GeodesicLength=0.2877039613538218 rxn_smarts="[C:1]([C:2]([C@@:3]([O:4][H:13])([C:5](=[O:6])[H:14])[H:12])([H:10])[H:11])([H:7])([H:8])[H:9]>>[C:1]([C:2]([C@@:3]([O:4][H:13])([C:5][O:6][H:14])[H:12])([H:10])[H:11])([H:7])([H:8])[H:9]"
C       -1.38888709      -0.74895902       0.41569254
C       -0.93676547       0.37974531      -0.49976508
C        0.51772502       0.79060171      -0.27381213
O        0.71257649       1.27475768       1.02679253
C        1.45428829      -0.31573389      -0.63296184
O        2.28785529      -0.66714360       0.26299446
H       -2.44813369      -0.96520492       0.26996953
H       -1.24392882      -0.47888364       1.46217444
H       -0.83108052      -1.66843520       0.22122767
H       -1.55101451       1.26742534      -0.33317290
H       -1.05293574       0.09620258      -1.54919001
H        0.76910356       1.57060867      -1.01482545
H        1.51157437       0.86421369       1.37920541
H        2.19962282      -1.39919470      -0.73432918
14
Frame=10 idx=000392 GeodesicLength=0.31967256860155363 rxn_smarts="[C:1]([C:2]([C@@:3]([O:4][H:13])([C:5](=[O:6])[H:14])[H:12])([H:10])[H:11])([H:7])([H:8])[H:9]>>[C:1]([C:2]([C@@:3]([O:4][H:13])([C:5][O:6][H:14])[H:12])([H:10])[H:11])([H:7])([H:8])[H:9]"
C       -1.38631748      -0.74954359       0.41560187
C       -0.93494541       0.37920798      -0.50015262
C        0.51832626       0.79317746      -0.27233975
O        0.71064338       1.27693327       1.02900953
C        1.45789946      -0.30918697      -0.63395108
O        2.28520325      -0.66714377       0.26075011
H       -2.44494542      -0.96793333       0.26845019
H       -1.24409000      -0.47799659       1.46208045
H       -0.82632988      -1.66811856       0.22326837
H       -1.55097464       1.26590081      -0.33479980
H       -1.04939111       0.09454243      -1.54949089
H        0.76835674       1.57455963      -1.01254899
H        1.51013230       0.86793411       1.38164581
H        2.18643253      -1.41233288      -0.73752321
14
Frame=11 idx=000392 GeodesicLength=0.351661018733018 rxn_smarts="[C:1]([C:2]([C@@:3]([O:4][H:13])([C:5](=[O:6])[H:14])[H:12])([H:10])[H:11])([H:7])([H:8])[H:9]>>[C:1]([C:2]([C@@:3]([O:4][H:13])([C:5][O:6][H:14])[H:12])([H:10])[H:11])([H:7])([H:8])[H:9]"
C       -1.38368518      -0.75014117       0.41551119
C       -0.93307294       0.37865333      -0.50055200
C        0.51896208       0.79575800      -0.27085905
O        0.70871851       1.27910881       1.03123561
C        1.46156546      -0.30260907      -0.63491122
O        2.28256970      -0.66715354       0.25848860
H       -2.44165931      -0.97075948       0.26685917
H       -1.24428840      -0.47706971       1.46197694
H       -0.82144979      -1.66778222       0.22540346
H       -1.55089750       1.26434616      -0.33646727
H       -1.04575150       0.09283875      -1.54979709
H        0.76763188       1.57852331      -1.01025472
H        1.50867961       0.87164443       1.38411723
H        2.17267738      -1.42535762      -0.74075084
14
Frame=12 idx=000392 GeodesicLength=0.3837488147528765 rxn_smarts="[C:1]([C:2]([C@@:3]([O:4][H:13])([C:5](=[O:6])[H:14])[H:12])([H:10])[H:11])([H:7])([H:8])[H:9]>>[C:1]([C:2]([C@@:3]([O:4][H:13])([C:5][O:6][H:14])[H:12])([H:10])[H:11])([H:7])([H:8])[H:9]"
C       -1.38097285      -0.75076093       0.41541352
C       -0.93114392       0.37808551      -0.50096477
C        0.51963595       0.79835972      -0.26937168
O        0.70680256       1.28129345       1.03347428
C        1.46530012      -0.29597567      -0.63585499
O        2.27995657      -0.66715995       0.25619957
H       -2.43825389      -0.97371069       0.26518346
H       -1.24451664      -0.47611070       1.46185737
H       -0.81640621      -1.66742762       0.22763035
H       -1.55078830       1.26275970      -0.33816771
H       -1.04200997       0.09109846      -1.55011205
H        0.76692577       1.58252527      -1.00793846
H        1.50722064       0.87535634       1.38662044
H        2.15825016      -1.43833289      -0.74396932
14
Frame=13 idx=000392 GeodesicLength=0.4159890309346387 rxn_smarts="[C:1]([C:2]([C@@:3]([O:4][H:13])([C:5](=[O:6])[H:14])[H:12])([H:10])[H:11])([H:7])([H:8])[H:9]>>[C:1]([C:2]([C@@:3]([O:4][H:13])([C:5][O:6][H:14])[H:12])([H:10])[H:11])([H:7])([H:8])[H:9]"
C       -1.37815256      -0.75140860       0.41529365
C       -0.92915762       0.37751126      -0.50139041
C        0.52034142       0.80100001      -0.26787597
O        0.70489838       1.28348000       1.03572971
C        1.46910628      -0.28924493      -0.63680557
O        2.27737374      -0.66714150       0.25384525
H       -2.43469266      -0.97681359       0.26339832
H       -1.24475796      -0.47513363       1.46170805
H       -0.81115168      -1.66704023       0.22993139
H       -1.55065544       1.26113317      -0.33989112
H       -1.03816956       0.08934050      -1.55043529
H        0.76621387       1.58659540      -1.00558335
H        1.50577696       0.87907779       1.38913597
H        2.14302681      -1.45135565      -0.74706062
14
Frame=14 idx=000392 GeodesicLength=0.44836521859031553 rxn_smarts="[C:1]([C:2]([C@@:3]([O:4][H:13])([C:5](=[O:6])[H:14])[H:12])([H:10])[H:11])([H:7])([H:8])[H:9]>>[C:1]([C:2]([C@@:3]([O:4][H:13])([C:5][O:6][H:14])[H:12])([H:10])[H:11])([H:7])([H:8])[H:9]"
C       -1.37529932      -0.75208672       0.41517600
C       -0.92714216       0.37692616      -0.50183170
C        0.52109309       0.80366075      -0.26636929
O        0.70302707       1.28569203       1.03800125
C        1.47299288      -0.28249811      -0.63771764
O        2.27483520      -0.66717486       0.25149282
H       -2.43107950      -0.98005066       0.26152660
H       -1.24507339      -0.47411680       1.46154933
H       -0.80577714      -1.66666732       0.23235346
H       -1.55052133       1.25950515      -0.34166843
H       -1.03426185       0.08753240      -1.55076813
H        0.76554038       1.59071078      -1.00320845
H        1.50438227       0.88282291       1.39168281
H        2.12728379      -1.46425572      -0.75021864
14
Frame=15 idx=000392 GeodesicLength=0.48047256235573554 rxn_smarts="[C:1]([C:2]([C@@:3]([O:4][H:13])([C:5](=[O:6])[H:14])[H:12])([H:10])[H:11])([H:7])([H:8])[H:9]>>[C:1]([C:2]([C@@:3]([O:4][H:13])([C:5][O:6][H:14])[H:12])([H:10])[H:11])([H:7])([H:8])[H:9]"
C       -1.37238749      -0.75271687       0.41509466
C       -0.92503218       0.37628739      -0.50227776
C        0.52185999       0.80623385      -0.26485223
O        0.70111778       1.28781955       1.04027065
C        1.47684301      -0.27581000      -0.63856108
O        2.27216638      -0.66727290       0.24915567
H       -2.42732696      -0.98328153       0.25962337
H       -1.24545212      -0.47298586       1.46140508
H       -0.80033276      -1.66619517       0.23493568
H       -1.55025556       1.25779468      -0.34351090
H       -1.03019487       0.08562864      -1.55109002
H        0.76490344       1.59468333      -1.00083216
H        1.50287337       0.88647654       1.39426310
H        2.11121798      -1.47666164      -0.75362407
14
Frame=16 idx=000392 GeodesicLength=0.5127525402465779 rxn_smarts="[C:1]([C:2]([C@@:3]([O:4][H:13])([C:5](=[O:6])[H:14])[H:12])([H:10])[H:11])([H:7])([H:8])[H:9]>>[C:1]([C:2]([C@@:3]([O:4][H:13])([C:5][O:6][H:14])[H:12])([H:10])[H:11])([H:7])([H:8])[H:9]"
C       -1.36953296      -0.75333637       0.41505087
C       -0.92291840       0.37561895      -0.50273125
C        0.52265988       0.80875981      -0.26331387
O        0.69922665       1.28995460       1.04253915
C        1.48072114      -0.26922264      -0.63928222
O        2.26951432      -0.66747621       0.24690312
H       -2.42363467      -0.98652086       0.25770400
H       -1.24594751      -0.47177425       1.46127261
H       -0.79493225      -1.66573448       0.23766913
H       -1.54998055       1.25609165      -0.34543978
H       -1.02609242       0.08363301      -1.55139894
H        0.76433094       1.59858467      -0.99845632
H        1.50138299       0.89013055       1.39688533
H        2.09520284      -1.48870843      -0.75740183
