13
Frame=0 idx=000697 GeodesicLength=0.0 rxn_smarts="[C:1]([c:2]1[c:3]([H:10])[n:4]([H:11])[c:5]([H:12])[c:6]1[H:13])([H:7])([H:8])[H:9]>>[C:1]([C@:2]1([H:13])[C+:3]([H:10])[N:4]([H:11])[C:5]([H:12])=[C-:6]1)([H:7])([H:8])[H:9]"
C        1.92271027       0.21017374       0.04040031
C        0.42582496       0.11781524       0.14384860
C       -0.35381785      -0.94664681      -0.39297056
N       -1.61218108      -0.53067110      -0.38413572
C       -1.71760583       0.75043939       0.11358139
C       -0.47894853       1.29840920       0.41625567
H        2.28694872       0.97552615       0.72413293
H        2.41385855      -0.73717639       0.27222166
H        2.20968237       0.50623067      -0.96941913
H       -0.07690381      -1.92561868      -0.75454569
H       -2.39283473      -1.11307168      -0.64824196
H       -2.69894913       1.19793426       0.17491706
H        0.07221605       0.19665595       1.26395550
13
Frame=1 idx=000697 GeodesicLength=0.06041936032114649 rxn_smarts="[C:1]([c:2]1[c:3]([H:10])[n:4]([H:11])[c:5]([H:12])[c:6]1[H:13])([H:7])([H:8])[H:9]>>[C:1]([C@:2]1([H:13])[C+:3]([H:10])[N:4]([H:11])[C:5]([H:12])=[C-:6]1)([H:7])([H:8])[H:9]"
C        1.92109013       0.20933776       0.03593247
C        0.42541811       0.11374076       0.15436022
C       -0.35397872      -0.95272980      -0.37892472
N       -1.61118965      -0.53277931      -0.38802382
C       -1.71723891       0.75230928       0.10310382
C       -0.47969004       1.29237445       0.41571409
H        2.29504694       0.95782588       0.73306584
H        2.41532931      -0.74262060       0.24059011
H        2.19756945       0.52877503      -0.96971020
H       -0.07625512      -1.93207162      -0.73912530
H       -2.39031257      -1.11153223      -0.66383366
H       -2.69895753       1.19836180       0.16766965
H        0.07316859       0.21900859       1.28918148
13
Frame=2 idx=000697 GeodesicLength=0.12084398246216035 rxn_smarts="[C:1]([c:2]1[c:3]([H:10])[n:4]([H:11])[c:5]([H:12])[c:6]1[H:13])([H:7])([H:8])[H:9]>>[C:1]([C@:2]1([H:13])[C+:3]([H:10])[N:4]([H:11])[C:5]([H:12])=[C-:6]1)([H:7])([H:8])[H:9]"
C        1.91931599       0.20839757       0.03147177
C        0.42498256       0.10969713       0.16488410
C       -0.35420526      -0.95866341      -0.36506367
N       -1.61004899      -0.53488571      -0.39216414
C       -1.71678508       0.75395088       0.09288578
C       -0.48049421       1.28624974       0.41534740
H        2.30330818       0.93961624       0.74146774
H        2.41607877      -0.74769218       0.20879529
H        2.18543209       0.55101778      -0.96935389
H       -0.07567424      -1.93857991      -0.72333566
H       -2.38732273      -1.10995851      -0.68007318
H       -2.69893083       1.19840017       0.16091702
H        0.07434376       0.24245023       1.31422143
13
Frame=3 idx=000697 GeodesicLength=0.1812714552996775 rxn_smarts="[C:1]([c:2]1[c:3]([H:10])[n:4]([H:11])[c:5]([H:12])[c:6]1[H:13])([H:7])([H:8])[H:9]>>[C:1]([C@:2]1([H:13])[C+:3]([H:10])[N:4]([H:11])[C:5]([H:12])=[C-:6]1)([H:7])([H:8])[H:9]"
C        1.91739136       0.20734815       0.02704335
C        0.42451684       0.10567970       0.17540500
C       -0.35448950      -0.96442228      -0.35148259
N       -1.60874919      -0.53696387      -0.39663660
C       -1.71625228       0.75537257       0.08291872
C       -0.48136532       1.28002319       0.41517971
H        2.31170898       0.92084735       0.74940938
H        2.41609218      -0.75240646       0.17683230
H        2.17332335       0.57300765      -0.96830105
H       -0.07515941      -1.94509731      -0.70732183
H       -2.38389711      -1.10847493      -0.69659349
H       -2.69886377       1.19810022       0.15451857
H        0.07574387       0.26698604       1.33902853
13
Frame=4 idx=000697 GeodesicLength=0.2417005821283897 rxn_smarts="[C:1]([c:2]1[c:3]([H:10])[n:4]([H:11])[c:5]([H:12])[c:6]1[H:13])([H:7])([H:8])[H:9]>>[C:1]([C@:2]1([H:13])[C+:3]([H:10])[N:4]([H:11])[C:5]([H:12])=[C-:6]1)([H:7])([H:8])[H:9]"
C        1.91531762       0.20618586       0.02265827
C        0.42401952       0.10167833       0.18592488
C       -0.35482750      -0.97000986      -0.33820823
N       -1.60728400      -0.53901441      -0.40145289
C       -1.71565189       0.75656763       0.07322844
C       -0.48230808       1.27368314       0.41522915
H        2.32023112       0.90149562       0.75691172
H        2.41536353      -0.75676353       0.14470623
H        2.16127246       0.59475981      -0.96653090
H       -0.07471104      -1.95160516      -0.69116149
H       -2.38005544      -1.10711843      -0.71328026
H       -2.69876001       1.19748386       0.14840163
H        0.07739372       0.29265715       1.36357344
13
Frame=5 idx=000697 GeodesicLength=0.30212710464589354 rxn_smarts="[C:1]([c:2]1[c:3]([H:10])[n:4]([H:11])[c:5]([H:12])[c:6]1[H:13])([H:7])([H:8])[H:9]>>[C:1]([C@:2]1([H:13])[C+:3]([H:10])[N:4]([H:11])[C:5]([H:12])=[C-:6]1)([H:7])([H:8])[H:9]"
C        1.91310648       0.20490116       0.01836687
C        0.42349042       0.09768571       0.19641767
C       -0.35520493      -0.97539759      -0.32536872
N       -1.60563276      -0.54099367      -0.40674482
C       -1.71498035       0.75756433       0.06374689
C       -0.48332078       1.26722364       0.41549165
H        2.32884074       0.88150924       0.76406577
H        2.41388344      -0.76077355       0.11246196
H        2.14936483       0.61630234      -0.96396163
H       -0.07430414      -1.95800942      -0.67514392
H       -2.37590709      -1.10608317      -0.72955888
H       -2.69861121       1.19659799       0.14243869
H        0.07927535       0.31947298       1.38778848
13
Frame=6 idx=000697 GeodesicLength=0.3625497493982268 rxn_smarts="[C:1]([c:2]1[c:3]([H:10])[n:4]([H:11])[c:5]([H:12])[c:6]1[H:13])([H:7])([H:8])[H:9]>>[C:1]([C@:2]1([H:13])[C+:3]([H:10])[N:4]([H:11])[C:5]([H:12])=[C-:6]1)([H:7])([H:8])[H:9]"
C        1.91076546       0.20349146       0.01419148
C        0.42292935       0.09368840       0.20687788
C       -0.35561234      -0.98058656      -0.31301764
N       -1.60377974      -0.54288956      -0.41256149
C       -1.71423986       0.75836739       0.05446311
C       -0.48440406       1.26063361       0.41597328
H        2.33751352       0.86085486       0.77091102
H        2.41165615      -0.76442836       0.08011294
H        2.13764640       0.63765792      -0.96055022
H       -0.07392987      -1.96428741      -0.65938006
H       -2.37153093      -1.10543545      -0.74522233
H       -2.69841754       1.19545894       0.13657377
H        0.08140346       0.34747474       1.41162825
13
Frame=7 idx=000697 GeodesicLength=0.42296965708223816 rxn_smarts="[C:1]([c:2]1[c:3]([H:10])[n:4]([H:11])[c:5]([H:12])[c:6]1[H:13])([H:7])([H:8])[H:9]>>[C:1]([C@:2]1([H:13])[C+:3]([H:10])[N:4]([H:11])[C:5]([H:12])=[C-:6]1)([H:7])([H:8])[H:9]"
C        1.90829532       0.20195670       0.01013300
C        0.42233494       0.08966748       0.21732173
C       -0.35604668      -0.98560246      -0.30113959
N       -1.60171852      -0.54472013      -0.41887155
C       -1.71344020       0.75896075       0.04541816
C       -0.48556202       1.25389669       0.41669443
H        2.34623311       0.83952011       0.77743759
H        2.40869035      -0.76770840       0.04765781
H        2.12612504       0.65883046      -0.95628886
H       -0.07359047      -1.97045866      -0.64386772
H       -2.36695549      -1.10514111      -0.76035421
H       -2.69818704       1.19406486       0.13079379
H        0.08382167       0.37673371       1.43506542
13
Frame=8 idx=000697 GeodesicLength=0.4833884918992242 rxn_smarts="[C:1]([c:2]1[c:3]([H:10])[n:4]([H:11])[c:5]([H:12])[c:6]1[H:13])([H:7])([H:8])[H:9]>>[C:1]([C@:2]1([H:13])[C+:3]([H:10])[N:4]([H:11])[C:5]([H:12])=[C-:6]1)([H:7])([H:8])[H:9]"
C        1.90568984       0.20029656       0.00617540
C        0.42170427       0.08560231       0.22777951
C       -0.35651137      -0.99048672      -0.28966720
N       -1.59945168      -0.54652366      -0.42558632
C       -1.71259787       0.75931576       0.03668270
C       -0.48680151       1.24699526       0.41767976
H        2.35498959       0.81750117       0.78360266
H        2.40499032      -0.77059106       0.01507749
H        2.11478114       0.67981353      -0.95119420
H       -0.07330275      -1.97658015      -0.62849523
H       -2.36214664      -1.10508447      -0.77527720
H       -2.69793853       1.19238688       0.12514750
H        0.08659518       0.40735458       1.45807514
13
Frame=9 idx=000697 GeodesicLength=0.5438045066007837 rxn_smarts="[C:1]([c:2]1[c:3]([H:10])[n:4]([H:11])[c:5]([H:12])[c:6]1[H:13])([H:7])([H:8])[H:9]>>[C:1]([C@:2]1([H:13])[C+:3]([H:10])[N:4]([H:11])[C:5]([H:12])=[C-:6]1)([H:7])([H:8])[H:9]"
C        1.90295052       0.19850683       0.00233464
C        0.42103508       0.08147332       0.23825948
C       -0.35700079      -0.99525233      -0.27862210
N       -1.59697155      -0.54830323      -0.43271076
C       -1.71171710       0.75943062       0.02825504
C       -0.48812564       1.23991255       0.41894450
H        2.36375927       0.79476622       0.78942498
H        2.40055770      -0.77306038      -0.01762289
H        2.10363945       0.70061937      -0.94522898
H       -0.07306273      -1.98264666      -0.61332644
H       -2.35714263      -1.10528342      -0.78992079
H       -2.69767718       1.19042589       0.11961612
H        0.08975561       0.43941122       1.48059720
13
Frame=10 idx=000697 GeodesicLength=0.6042179741361707 rxn_smarts="[C:1]([c:2]1[c:3]([H:10])[n:4]([H:11])[c:5]([H:12])[c:6]1[H:13])([H:7])([H:8])[H:9]>>[C:1]([C@:2]1([H:13])[C+:3]([H:10])[N:4]([H:11])[C:5]([H:12])=[C-:6]1)([H:7])([H:8])[H:9]"
C        1.90008267       0.19657511      -0.00135487
C        0.42032332       0.07726232       0.24876357
C       -0.35750987      -0.99990944      -0.26803913
N       -1.59426957      -0.55005547      -0.44027052
C       -1.71079842       0.75931441       0.02010359
C       -0.48953450       1.23263981       0.42047979
H        2.37250910       0.77130885       0.79492170
H        2.39539553      -0.77510865      -0.05036589
H        2.09274620       0.72120953      -0.93835357
H       -0.07284899      -1.98861384      -0.59853840
H       -2.35200867      -1.10578473      -0.80412875
H       -2.69741080       1.18816270       0.11423332
H        0.09332400       0.47299941       1.50254918
13
Frame=11 idx=000697 GeodesicLength=0.664628447679074 rxn_smarts="[C:1]([c:2]1[c:3]([H:10])[n:4]([H:11])[c:5]([H:12])[c:6]1[H:13])([H:7])([H:8])[H:9]>>[C:1]([C@:2]1([H:13])[C+:3]([H:10])[N:4]([H:11])[C:5]([H:12])=[C-:6]1)([H:7])([H:8])[H:9]"
C        1.89708367       0.19449175      -0.00487902
C        0.41956338       0.07294608       0.25931223
C       -0.35803930      -1.00448471      -0.25790151
N       -1.59134732      -0.55179839      -0.44822672
C       -1.70985058       0.75895691       0.01224627
C       -0.49103303       1.22515975       0.42229893
H        2.38121212       0.74712720       0.80008136
H        2.38950897      -0.77672274      -0.08310919
H        2.08211176       0.74155045      -0.93055487
H       -0.07265462      -1.99448110      -0.58418637
H       -2.34675190      -1.10655208      -0.81798477
H       -2.69715270       1.18556881       0.10905165
H        0.09734955       0.50823807       1.52385201
13
Frame=12 idx=000697 GeodesicLength=0.7250358711686814 rxn_smarts="[C:1]([c:2]1[c:3]([H:10])[n:4]([H:11])[c:5]([H:12])[c:6]1[H:13])([H:7])([H:8])[H:9]>>[C:1]([C@:2]1([H:13])[C+:3]([H:10])[N:4]([H:11])[C:5]([H:12])=[C-:6]1)([H:7])([H:8])[H:9]"
C        1.89395233       0.19224766      -0.00821630
C        0.41874961       0.06849851       0.26992316
C       -0.35858712      -1.00899807      -0.24821884
N       -1.58820552      -0.55354271      -0.45655849
C       -1.70887849       0.75835281       0.00468917
C       -0.49262579       1.21745034       0.42442482
H        2.38983774       0.72221561       0.80490755
H        2.38290542      -0.77788884      -0.11580777
H        2.07175200       0.76161744      -0.92180667
H       -0.07246887      -2.00024071      -0.57035757
H       -2.34139822      -1.10757619      -0.83148843
H       -2.69691039       1.18262732       0.10410008
H        0.10187728       0.54523684       1.54440929
13
Frame=13 idx=000697 GeodesicLength=0.7854447725506069 rxn_smarts="[C:1]([c:2]1[c:3]([H:10])[n:4]([H:11])[c:5]([H:12])[c:6]1[H:13])([H:7])([H:8])[H:9]>>[C:1]([C@:2]1([H:13])[C+:3]([H:10])[N:4]([H:11])[C:5]([H:12])=[C-:6]1)([H:7])([H:8])[H:9]"
C        1.89067598       0.18983234      -0.01136696
C        0.41787408       0.06388952       0.28063899
C       -0.35916073      -1.01349173      -0.23892745
N       -1.58485549      -0.55532135      -0.46517640
C       -1.70789845       0.75747873      -0.00250637
C       -0.49432360       1.20948518       0.42690361
H        2.39836221       0.69659306       0.80935617
H        2.37558730      -0.77859589      -0.14842819
H        2.06163881       0.78136212      -0.91212675
H       -0.07229671      -2.00592745      -0.55701648
H       -2.33588293      -1.10874595      -0.84494357
H       -2.69670454       1.17929724       0.09946794
H        0.10698408       0.58414419       1.56412544
13
Frame=14 idx=000697 GeodesicLength=0.8458676797346613 rxn_smarts="[C:1]([c:2]1[c:3]([H:10])[n:4]([H:11])[c:5]([H:12])[c:6]1[H:13])([H:7])([H:8])[H:9]>>[C:1]([C@:2]1([H:13])[C+:3]([H:10])[N:4]([H:11])[C:5]([H:12])=[C-:6]1)([H:7])([H:8])[H:9]"
C        1.88725315       0.18723019      -0.01432576
C        0.41692985       0.05908224       0.29150634
C       -0.35976122      -1.01800279      -0.22997932
N       -1.58130149      -0.55713928      -0.47404493
C       -1.70693867       0.75632568      -0.00929257
C       -0.49615316       1.20123243       0.42980451
H        2.40676389       0.67028150       0.81338967
H        2.36758549      -0.77884195      -0.18091842
H        2.05175270       0.80072770      -0.90154059
H       -0.07212090      -2.01156250      -0.54417348
H       -2.33016325      -1.10997870      -0.85854414
H       -2.69657701       1.17555729       0.09522310
H        0.11273060       0.62508820       1.58289557
13
Frame=15 idx=000697 GeodesicLength=0.9062610704072038 rxn_smarts="[C:1]([c:2]1[c:3]([H:10])[n:4]([H:11])[c:5]([H:12])[c:6]1[H:13])([H:7])([H:8])[H:9]>>[C:1]([C@:2]1([H:13])[C+:3]([H:10])[N:4]([H:11])[C:5]([H:12])=[C-:6]1)([H:7])([H:8])[H:9]"
C        1.88366634       0.18443557      -0.01703510
C        0.41590815       0.05405632       0.30252290
C       -0.36040557      -1.02252054      -0.22143588
N       -1.57752169      -0.55898390      -0.48322667
C       -1.70594799       0.75488879      -0.01574930
C       -0.49807227       1.19266026       0.43309267
H        2.41500240       0.64319769       0.81708159
H        2.35882359      -0.77858103      -0.21328686
H        2.04214326       0.81975804      -0.88988692
H       -0.07198587      -2.01711443      -0.53191227
H       -2.32429198      -1.11132678      -0.87212753
H       -2.69647527       1.17129312       0.09148947
H        0.11915689       0.66823690       1.60047392
13
Frame=16 idx=000697 GeodesicLength=0.9666720258610154 rxn_smarts="[C:1]([c:2]1[c:3]([H:10])[n:4]([H:11])[c:5]([H:12])[c:6]1[H:13])([H:7])([H:8])[H:9]>>[C:1]([C@:2]1([H:13])[C+:3]([H:10])[N:4]([H:11])[C:5]([H:12])=[C-:6]1)([H:7])([H:8])[H:9]"
C        1.87983941       0.18145126      -0.01960877
C        0.41479682       0.04875473       0.31385313
C       -0.36111869      -1.02717431      -0.21296673
N       -1.57354625      -0.56095220      -0.49239085
C       -1.70500081       0.75306299      -0.02151059
C       -0.50015265       1.18368450       0.43708277
H        2.42308451       0.61546160       0.82018712
H        2.34929108      -0.77780211      -0.24560489
H        2.03252498       0.83835775      -0.87740314
H       -0.07195213      -2.02280459      -0.51968844
H       -2.31781433      -1.11232624      -0.88705905
H       -2.69645789       1.16653156       0.08826470
H        0.12650596       0.71375507       1.61684474
