10
Frame=0 idx=004470 GeodesicLength=0.0 rxn_smarts="[O:1]([C:2]([C:3](=[O:4])[C:5](=[O:6])[H:10])([H:8])[H:9])[H:7]>>[O:1]([C:2]([C:3]([O-:4])=[C+:5][O:6][H:10])([H:8])[H:9])[H:7]"
O        2.11568003       0.44799006       0.21450861
C        0.92747328      -0.25098147       0.38673243
C       -0.24353371       0.50257396      -0.19168069
O       -0.11100263       1.55470754      -0.76647795
C       -1.60952445      -0.08315021      -0.00248934
O       -1.94638008      -1.10365967      -0.71783216
H        1.90472923       1.24065068      -0.29718261
H        0.95675312      -1.23241542      -0.11018798
H        0.72942350      -0.43991837       1.45003872
H       -2.72361829      -0.63579712       0.03457098
10
Frame=1 idx=004470 GeodesicLength=0.03382060207316929 rxn_smarts="[O:1]([C:2]([C:3](=[O:4])[C:5](=[O:6])[H:10])([H:8])[H:9])[H:7]>>[O:1]([C:2]([C:3]([O-:4])=[C+:5][O:6][H:10])([H:8])[H:9])[H:7]"
O        2.11749612       0.45333088       0.21047370
C        0.93330749      -0.25278726       0.38529301
C       -0.24364794       0.49611420      -0.18715081
O       -0.11819644       1.54971795      -0.76124395
C       -1.60723770      -0.09310128       0.01097811
O       -1.93754360      -1.11979513      -0.69351894
H        1.90001571       1.24660021      -0.29753768
H        0.96709007      -1.23327598      -0.11353776
H        0.73978348      -0.44526601       1.44891257
H       -2.75106718      -0.60153756      -0.00266824
10
Frame=2 idx=004470 GeodesicLength=0.06624645280159958 rxn_smarts="[O:1]([C:2]([C:3](=[O:4])[C:5](=[O:6])[H:10])([H:8])[H:9])[H:7]>>[O:1]([C:2]([C:3]([O-:4])=[C+:5][O:6][H:10])([H:8])[H:9])[H:7]"
O        2.11799481       0.45785406       0.20608078
C        0.93831992      -0.25477142       0.38367562
C       -0.24412365       0.48972235      -0.18275730
O       -0.12577108       1.54437908      -0.75647896
C       -1.60480282      -0.10203520       0.02479150
O       -1.92893564      -1.13458732      -0.66763462
H        1.89394364       1.25225950      -0.29724322
H        0.97620062      -1.23391542      -0.11673905
H        0.74968340      -0.45085653       1.44736049
H       -2.77250920      -0.56804911      -0.04105524
10
Frame=3 idx=004470 GeodesicLength=0.09935595890128054 rxn_smarts="[O:1]([C:2]([C:3](=[O:4])[C:5](=[O:6])[H:10])([H:8])[H:9])[H:7]>>[O:1]([C:2]([C:3]([O-:4])=[C+:5][O:6][H:10])([H:8])[H:9])[H:7]"
O        2.11869100       0.46240084       0.20145847
C        0.94316614      -0.25684234       0.38187970
C       -0.24498256       0.48343204      -0.17813218
O       -0.13345657       1.53910092      -0.75174792
C       -1.60334608      -0.11040783       0.03966011
O       -1.92176554      -1.14980518      -0.63940961
H        1.88806326       1.25824249      -0.29668261
H        0.98489256      -1.23480946      -0.12051473
H        0.75941741      -0.45661320       1.44571673
H       -2.79067961      -0.53469828      -0.08222796
10
Frame=4 idx=004470 GeodesicLength=0.13184107829840608 rxn_smarts="[O:1]([C:2]([C:3](=[O:4])[C:5](=[O:6])[H:10])([H:8])[H:9])[H:7]>>[O:1]([C:2]([C:3]([O-:4])=[C+:5][O:6][H:10])([H:8])[H:9])[H:7]"
O        2.11874093       0.46583808       0.19708170
C        0.94682399      -0.25859452       0.38045515
C       -0.24607766       0.47838860      -0.17353589
O       -0.14035172       1.53486807      -0.74691682
C       -1.60241748      -0.11687229       0.05281218
O       -1.91505620      -1.16152984      -0.61472234
H        1.88258715       1.26234918      -0.29735277
H        0.99144679      -1.23546025      -0.12340595
H        0.76760281      -0.46139851       1.44444664
H       -2.80329860      -0.50758854      -0.11886191
10
Frame=5 idx=004470 GeodesicLength=0.16456067763014637 rxn_smarts="[O:1]([C:2]([C:3](=[O:4])[C:5](=[O:6])[H:10])([H:8])[H:9])[H:7]>>[O:1]([C:2]([C:3]([O-:4])=[C+:5][O:6][H:10])([H:8])[H:9])[H:7]"
O        2.11862443       0.46903755       0.19256840
C        0.95020432      -0.26044633       0.37873202
C       -0.24738793       0.47339307      -0.16914892
O       -0.14724021       1.53052931      -0.74245182
C       -1.60198296      -0.12252077       0.06633360
O       -1.90924942      -1.17322308      -0.58807828
H        1.87689964       1.26677178      -0.29711766
H        0.99749131      -1.23613931      -0.12684695
H        0.77551265      -0.46638703       1.44282733
H       -2.81287183      -0.48101518      -0.15681772
10
Frame=6 idx=004470 GeodesicLength=0.19735179509376433 rxn_smarts="[O:1]([C:2]([C:3](=[O:4])[C:5](=[O:6])[H:10])([H:8])[H:9])[H:7]>>[O:1]([C:2]([C:3]([O-:4])=[C+:5][O:6][H:10])([H:8])[H:9])[H:7]"
O        2.11830716       0.47181759       0.18816849
C        0.95300777      -0.26224691       0.37698673
C       -0.24881722       0.46898661      -0.16491244
O       -0.15362734       1.52677830      -0.73815253
C       -1.60203422      -0.12704263       0.07929563
O       -1.90401343      -1.18369026      -0.56183727
H        1.87153865       1.27077115      -0.29698236
H        1.00257106      -1.23683335      -0.13026600
H        0.78248602      -0.47124994       1.44111657
H       -2.81941846      -0.45729057      -0.19341681
10
Frame=7 idx=004470 GeodesicLength=0.23001776419544803 rxn_smarts="[O:1]([C:2]([C:3](=[O:4])[C:5](=[O:6])[H:10])([H:8])[H:9])[H:7]>>[O:1]([C:2]([C:3]([O-:4])=[C+:5][O:6][H:10])([H:8])[H:9])[H:7]"
O        2.11776149       0.47417327       0.18402986
C        0.95531397      -0.26395544       0.37527883
C       -0.25032540       0.46510173      -0.16089227
O       -0.15960287       1.52346703      -0.73400727
C       -1.60238073      -0.13053837       0.09152016
O       -1.89922722      -1.19268954      -0.53661184
H        1.86642408       1.27416331      -0.29701804
H        1.00681769      -1.23744090      -0.13361245
H        0.78868141      -0.47586027       1.43941292
H       -2.82346242      -0.43642084      -0.22809991
10
Frame=8 idx=004470 GeodesicLength=0.26276134579535776 rxn_smarts="[O:1]([C:2]([C:3](=[O:4])[C:5](=[O:6])[H:10])([H:8])[H:9])[H:7]>>[O:1]([C:2]([C:3]([O-:4])=[C+:5][O:6][H:10])([H:8])[H:9])[H:7]"
O        2.11715113       0.47621350       0.18004785
C        0.95726535      -0.26561335       0.37356724
C       -0.25190212       0.46164820      -0.15704279
O       -0.16522906       1.52057303      -0.73000827
C       -1.60305706      -0.13320684       0.10321549
O       -1.89490675      -1.20064238      -0.51199251
H        1.86160194       1.27722090      -0.29707729
H        1.01043288      -1.23806080      -0.13694057
H        0.79427683      -0.48031308       1.43766818
H       -2.82563314      -0.41781918      -0.26143733
10
Frame=9 idx=004470 GeodesicLength=0.29537662105844015 rxn_smarts="[O:1]([C:2]([C:3](=[O:4])[C:5](=[O:6])[H:10])([H:8])[H:9])[H:7]>>[O:1]([C:2]([C:3]([O-:4])=[C+:5][O:6][H:10])([H:8])[H:9])[H:7]"
O        2.11632934       0.47795839       0.17614649
C        0.95885618      -0.26724251       0.37180457
C       -0.25350960       0.45849775      -0.15337828
O       -0.17053430       1.51792135      -0.72619449
C       -1.60388294      -0.13519221       0.11452006
O       -1.89089542      -1.20763278      -0.48773995
H        1.85684720       1.28003202      -0.29701505
H        1.01345934      -1.23861376      -0.14030624
H        0.79931498      -0.48468954       1.43583546
H       -2.82598477      -0.40103870      -0.29367257
10
Frame=10 idx=004470 GeodesicLength=0.32806061994583585 rxn_smarts="[O:1]([C:2]([C:3](=[O:4])[C:5](=[O:6])[H:10])([H:8])[H:9])[H:7]>>[O:1]([C:2]([C:3]([O-:4])=[C+:5][O:6][H:10])([H:8])[H:9])[H:7]"
O        2.11545237       0.47946301       0.17236281
C        0.96018183      -0.26883555       0.37003316
C       -0.25516869       0.45569320      -0.14980699
O       -0.17558823       1.51559550      -0.72247435
C       -1.60493738      -0.13653820       0.12544058
O       -1.88719642      -1.21380077      -0.46390884
H        1.85230920       1.28258226      -0.29697974
H        1.01600118      -1.23915798      -0.14369542
H        0.80392267      -0.48898746       1.43396115
H       -2.82497654      -0.38601402      -0.32493237
10
Frame=11 idx=004470 GeodesicLength=0.36075368391095153 rxn_smarts="[O:1]([C:2]([C:3](=[O:4])[C:5](=[O:6])[H:10])([H:8])[H:9])[H:7]>>[O:1]([C:2]([C:3]([O-:4])=[C+:5][O:6][H:10])([H:8])[H:9])[H:7]"
O        2.11449803       0.48074668       0.16864590
C        0.96126599      -0.27040627       0.36822494
C       -0.25686733       0.45316868      -0.14632728
O       -0.18040959       1.51349774      -0.71888363
C       -1.60616796      -0.13732556       0.13606180
O       -1.88377588      -1.21922374      -0.44035138
H        1.84790690       1.28495827      -0.29685709
H        1.01810671      -1.23967627      -0.14714631
H        0.80815196      -0.49324233       1.43201818
H       -2.82270883      -0.37249720      -0.35538513
10
Frame=12 idx=004470 GeodesicLength=0.3934568029957906 rxn_smarts="[O:1]([C:2]([C:3](=[O:4])[C:5](=[O:6])[H:10])([H:8])[H:9])[H:7]>>[O:1]([C:2]([C:3]([O-:4])=[C+:5][O:6][H:10])([H:8])[H:9])[H:7]"
O        2.11347501       0.48183758       0.16497428
C        0.96213402      -0.27196932       0.36636661
C       -0.25860198       0.45089607      -0.14292963
O       -0.18501834       1.51160591      -0.71544060
C       -1.60756020      -0.13760442       0.14644317
O       -1.88062142      -1.22398272      -0.41693807
H        1.84361943       1.28722721      -0.29660483
H        1.01981757      -1.24017022      -0.15067908
H        0.81204263      -0.49751151       1.42998936
H       -2.81928670      -0.36032858      -0.38518121
10
Frame=13 idx=004470 GeodesicLength=0.4261690413940919 rxn_smarts="[O:1]([C:2]([C:3](=[O:4])[C:5](=[O:6])[H:10])([H:8])[H:9])[H:7]>>[O:1]([C:2]([C:3]([O-:4])=[C+:5][O:6][H:10])([H:8])[H:9])[H:7]"
O        2.11236251       0.48274814       0.16139005
C        0.96279035      -0.27351040       0.36446793
C       -0.26036688       0.44887747      -0.13958252
O       -0.18943049       1.50990007      -0.71209880
C       -1.60907767      -0.13738317       0.15657827
O       -1.87764529      -1.22808637      -0.39371598
H        1.83943613       1.28931953      -0.29629239
H        1.02115264      -1.24061170      -0.15431888
H        0.81560804      -0.50178355       1.42788206
H       -2.81482934      -0.34947002      -0.41430973
10
Frame=14 idx=004470 GeodesicLength=0.4588603116066743 rxn_smarts="[O:1]([C:2]([C:3](=[O:4])[C:5](=[O:6])[H:10])([H:8])[H:9])[H:7]>>[O:1]([C:2]([C:3]([O-:4])=[C+:5][O:6][H:10])([H:8])[H:9])[H:7]"
O        2.11118055       0.48347927       0.15782898
C        0.96326066      -0.27503259       0.36254749
C       -0.26214856       0.44706811      -0.13630093
O       -0.19367231       1.50838904      -0.70880404
C       -1.61067603      -0.13678721       0.16647222
O       -1.87484924      -1.23154841      -0.37088914
H        1.83534877       1.29126421      -0.29593161
H        1.02213820      -1.24105305      -0.15796361
H        0.81889860      -0.50597756       1.42573016
H       -2.80948063      -0.33980180      -0.44268951
10
Frame=15 idx=004470 GeodesicLength=0.4915558090251332 rxn_smarts="[O:1]([C:2]([C:3](=[O:4])[C:5](=[O:6])[H:10])([H:8])[H:9])[H:7]>>[O:1]([C:2]([C:3]([O-:4])=[C+:5][O:6][H:10])([H:8])[H:9])[H:7]"
O        2.10997224       0.48405069       0.15430254
C        0.96357513      -0.27654323       0.36059774
C       -0.26394347       0.44546274      -0.13309329
O       -0.19773855       1.50705313      -0.70562219
C       -1.61237145      -0.13582980       0.17612987
O       -1.87223989      -1.23442212      -0.34839487
H        1.83138140       1.29311928      -0.29545890
H        1.02282387      -1.24148387      -0.16164303
H        0.82193446      -0.51014548       1.42352941
H       -2.80339375      -0.33126134      -0.47034727
10
Frame=16 idx=004470 GeodesicLength=0.5242468565361049 rxn_smarts="[O:1]([C:2]([C:3](=[O:4])[C:5](=[O:6])[H:10])([H:8])[H:9])[H:7]>>[O:1]([C:2]([C:3]([O-:4])=[C+:5][O:6][H:10])([H:8])[H:9])[H:7]"
O        2.10871894       0.48448016       0.15081409
C        0.96373595      -0.27803890       0.35861928
C       -0.26575426       0.44405131      -0.12992358
O       -0.20165040       1.50587652      -0.70250723
C       -1.61414924      -0.13453722       0.18558493
O       -1.86977492      -1.23674791      -0.32617769
H        1.82751342       1.29486175      -0.29492200
H        1.02321993      -1.24188608      -0.16537271
H        0.82473039      -0.51430093       1.42127113
H       -2.79658980      -0.32375870      -0.49738622
