12
Frame=0 idx=007981 GeodesicLength=0.0 rxn_smarts="[N:1]([c:2]1[n:3][c:4]([H:10])[c:5]([H:11])[c:6]([H:12])[n:7]1)([H:8])[H:9]>>[N:1]([C:5]1([H:11])[C:4]([H:10])=[N+:3]=[C-:2][N:7]=[C:6]1[H:12])([H:8])[H:9]"
N        1.23842306      -0.07364387       0.31999842
C        0.97368265      -0.27716617      -1.05691004
N        0.00766042      -1.41508371      -0.94184764
C       -0.82965875      -1.12280439      -0.02607665
C       -0.54357490       0.16710191       0.65801360
C       -0.59205122       1.19512580      -0.41616044
N        0.25603405       1.00391179      -1.34848583
H        1.76472590       0.76821812       0.53431008
H        1.59156555      -0.88962950       0.81127600
H       -1.67337898      -1.75924005       0.22308860
H       -0.90814818       0.37264393       1.65857080
H       -1.28527957       2.03056619      -0.41577690
12
Frame=1 idx=007981 GeodesicLength=0.10921702201137035 rxn_smarts="[N:1]([c:2]1[n:3][c:4]([H:10])[c:5]([H:11])[c:6]([H:12])[n:7]1)([H:8])[H:9]>>[N:1]([C:5]1([H:11])[C:4]([H:10])=[N+:3]=[C-:2][N:7]=[C:6]1[H:12])([H:8])[H:9]"
N        1.25595725      -0.07414052       0.32784125
C        0.96005891      -0.27748858      -1.06712121
N        0.00243131      -1.40923824      -0.94795333
C       -0.83489168      -1.12099697      -0.02763454
C       -0.55186127       0.16777320       0.65700426
C       -0.59755865       1.19400662      -0.41721782
N        0.24955602       0.99753028      -1.35254937
H        1.78393342       0.76676300       0.53913657
H        1.61086032      -0.89051898       0.81603774
H       -1.66450661      -1.77073245       0.23337533
H       -0.93999846       0.37422735       1.64853017
H       -1.27398055       2.04281529      -0.40944905
12
Frame=2 idx=007981 GeodesicLength=0.21839361752025538 rxn_smarts="[N:1]([c:2]1[n:3][c:4]([H:10])[c:5]([H:11])[c:6]([H:12])[n:7]1)([H:8])[H:9]>>[N:1]([C:5]1([H:11])[C:4]([H:10])=[N+:3]=[C-:2][N:7]=[C:6]1[H:12])([H:8])[H:9]"
N        1.27366479      -0.07464873       0.33572093
C        0.94620927      -0.27779881      -1.07739557
N       -0.00297202      -1.40347724      -0.95394657
C       -0.84038578      -1.11916387      -0.02922810
C       -0.56048757       0.16847797       0.65598768
C       -0.60332946       1.19290189      -0.41831056
N        0.24292760       0.99129714      -1.35653891
H        1.80347006       0.76518435       0.54403462
H        1.63050749      -0.89133599       0.82083734
H       -1.65513010      -1.78226819       0.24389852
H       -0.97230534       0.37574815       1.63783392
H       -1.26216893       2.05508332      -0.40289331
12
Frame=3 idx=007981 GeodesicLength=0.32753595591736345 rxn_smarts="[N:1]([c:2]1[n:3][c:4]([H:10])[c:5]([H:11])[c:6]([H:12])[n:7]1)([H:8])[H:9]>>[N:1]([C:5]1([H:11])[C:4]([H:10])=[N+:3]=[C-:2][N:7]=[C:6]1[H:12])([H:8])[H:9]"
N        1.29156324      -0.07516763       0.34365816
C        0.93212022      -0.27809707      -1.08774255
N       -0.00855463      -1.39779843      -0.95982199
C       -0.84614508      -1.11730704      -0.03084780
C       -0.56946623       0.16921850       0.65496848
C       -0.60936518       1.19181925      -0.41942889
N        0.23614444       0.98521503      -1.36044899
H        1.82335845       0.76348295       0.54900607
H        1.65052764      -0.89208634       0.82567896
H       -1.64526188      -1.79378922       0.25462629
H       -1.00504835       0.37720296       1.62647640
H       -1.24987264       2.06730703      -0.39612414
12
Frame=4 idx=007981 GeodesicLength=0.436679603540575 rxn_smarts="[N:1]([c:2]1[n:3][c:4]([H:10])[c:5]([H:11])[c:6]([H:12])[n:7]1)([H:8])[H:9]>>[N:1]([C:5]1([H:11])[C:4]([H:10])=[N+:3]=[C-:2][N:7]=[C:6]1[H:12])([H:8])[H:9]"
N        1.30966634      -0.07569292       0.35168164
C        0.91777260      -0.27838440      -1.09817965
N       -0.01432094      -1.39220312      -0.96557622
C       -0.85217481      -1.11543015      -0.03248707
C       -0.57881247       0.16999596       0.65394699
C       -0.61567097       1.19076308      -0.42056911
N        0.22920200       0.97928464      -1.36427661
H        1.84361853       0.76166324       0.55405458
H        1.67094203      -0.89277474       0.83056693
H       -1.63490723      -1.80524707       0.26553550
H       -1.03821194       0.37858830       1.61444823
H       -1.23710313       2.07943719      -0.38914521
12
Frame=5 idx=007981 GeodesicLength=0.5458211229772372 rxn_smarts="[N:1]([c:2]1[n:3][c:4]([H:10])[c:5]([H:11])[c:6]([H:12])[n:7]1)([H:8])[H:9]>>[N:1]([C:5]1([H:11])[C:4]([H:10])=[N+:3]=[C-:2][N:7]=[C:6]1[H:12])([H:8])[H:9]"
N        1.32800415      -0.07622345       0.35981182
C        0.90315451      -0.27866141      -1.10871166
N       -0.02027088      -1.38668877      -0.97119512
C       -0.85847058      -1.11353571      -0.03412591
C       -0.58852887       0.17081226       0.65293728
C       -0.62223894       1.18974233      -0.42171053
N        0.22210011       0.97350892      -1.36800894
H        1.86428505       0.75972534       0.55918285
H        1.69178312      -0.89340579       0.83550610
H       -1.62413117      -1.81655222       0.27655525
H       -1.07174281       0.37989960       1.60175525
H       -1.22394369       2.09137890      -0.38199639
12
Frame=6 idx=007981 GeodesicLength=0.6549820452306572 rxn_smarts="[N:1]([c:2]1[n:3][c:4]([H:10])[c:5]([H:11])[c:6]([H:12])[n:7]1)([H:8])[H:9]>>[N:1]([C:5]1([H:11])[C:4]([H:10])=[N+:3]=[C-:2][N:7]=[C:6]1[H:12])([H:8])[H:9]"
N        1.34659447      -0.07675678       0.36808040
C        0.88825242      -0.27892779      -1.11935169
N       -0.02640712      -1.38125578      -0.97667653
C       -0.86503371      -1.11162689      -0.03575720
C       -0.59863012       0.17166974       0.65193829
C       -0.62907285       1.18876174      -0.42284985
N        0.21483552       0.96788935      -1.37164393
H        1.88538446       0.75767052       0.56439282
H        1.71307730      -0.89398647       0.84050061
H       -1.61295516      -1.82765398       0.28765817
H       -1.10561951       0.38113365       1.58839688
H       -1.21042569       2.10308270      -0.37468796
12
Frame=7 idx=007981 GeodesicLength=0.7641552214526343 rxn_smarts="[N:1]([c:2]1[n:3][c:4]([H:10])[c:5]([H:11])[c:6]([H:12])[n:7]1)([H:8])[H:9]>>[N:1]([C:5]1([H:11])[C:4]([H:10])=[N+:3]=[C-:2][N:7]=[C:6]1[H:12])([H:8])[H:9]"
N        1.36547706      -0.07729355       0.37650591
C        0.87305628      -0.27918305      -1.13010235
N       -0.03272682      -1.37590316      -0.98200578
C       -0.87185292      -1.10970674      -0.03735625
C       -0.60911674       0.17257106       0.65096533
C       -0.63616073       1.18782924      -0.42396519
N        0.20741264       0.96242784      -1.37516562
H        1.90695602       0.75549844       0.56969306
H        1.73486710      -0.89452207       0.84555411
H       -1.60147506      -1.83845701       0.29875886
H       -1.13977356       0.38228793       1.57439088
H       -1.19666327       2.11445105      -0.36727296
12
Frame=8 idx=007981 GeodesicLength=0.87336599382724 rxn_smarts="[N:1]([c:2]1[n:3][c:4]([H:10])[c:5]([H:11])[c:6]([H:12])[n:7]1)([H:8])[H:9]>>[N:1]([C:5]1([H:11])[C:4]([H:10])=[N+:3]=[C-:2][N:7]=[C:6]1[H:12])([H:8])[H:9]"
N        1.38468119      -0.07783081       0.38512357
C        0.85755296      -0.27942889      -1.14097510
N       -0.03922534      -1.37062965      -0.98717336
C       -0.87892489      -1.10777614      -0.03891371
C       -0.61999547       0.17351770       0.65002200
C       -0.64349447       1.18695162      -0.42504536
N        0.19983740       0.95712784      -1.37856643
H        1.92904213       0.75320787       0.57508343
H        1.75719187      -0.89502106       0.85066693
H       -1.58975638      -1.84890054       0.30980829
H       -1.17417051       0.38336170       1.55975202
H       -1.18273849       2.12542037      -0.35978227
12
Frame=9 idx=007981 GeodesicLength=0.982609168721266 rxn_smarts="[N:1]([c:2]1[n:3][c:4]([H:10])[c:5]([H:11])[c:6]([H:12])[n:7]1)([H:8])[H:9]>>[N:1]([C:5]1([H:11])[C:4]([H:10])=[N+:3]=[C-:2][N:7]=[C:6]1[H:12])([H:8])[H:9]"
N        1.40426674      -0.07837007       0.39396629
C        0.84175199      -0.27966218      -1.15195751
N       -0.04588690      -1.36543528      -0.99215361
C       -0.88623089      -1.10583774      -0.04039886
C       -0.63126710       0.17451117       0.64911903
C       -0.65105998       1.18613340      -0.42606466
N        0.19212302       0.95199236      -1.38181964
H        1.95172437       0.75078760       0.58054337
H        1.78013381      -0.89549404       0.85582362
H       -1.57795525      -1.85889497       0.32069283
H       -1.20877892       0.38436231       1.54454540
H       -1.16882087       2.13590743      -0.35229625
12
Frame=10 idx=007981 GeodesicLength=1.091885127547055 rxn_smarts="[N:1]([c:2]1[n:3][c:4]([H:10])[c:5]([H:11])[c:6]([H:12])[n:7]1)([H:8])[H:9]>>[N:1]([C:5]1([H:11])[C:4]([H:10])=[N+:3]=[C-:2][N:7]=[C:6]1[H:12])([H:8])[H:9]"
N        1.42425358      -0.07890830       0.40306255
C        0.82563208      -0.27988575      -1.16307134
N       -0.05271120      -1.36032008      -0.99694754
C       -0.89376516      -1.10389270      -0.04180801
C       -0.64293263       0.17555300       0.64826453
C       -0.65884673       1.18537897      -0.42701651
N        0.18427061       0.94702332      -1.38492900
H        1.97501748       0.74824338       0.58608892
H        1.80370530      -0.89594390       0.86104321
H       -1.56612078      -1.86839759       0.33138852
H       -1.24353247       0.38527877       1.52875148
H       -1.15497007       2.14587088      -0.34482680
12
Frame=11 idx=007981 GeodesicLength=1.2011946016903339 rxn_smarts="[N:1]([c:2]1[n:3][c:4]([H:10])[c:5]([H:11])[c:6]([H:12])[n:7]1)([H:8])[H:9]>>[N:1]([C:5]1([H:11])[C:4]([H:10])=[N+:3]=[C-:2][N:7]=[C:6]1[H:12])([H:8])[H:9]"
N        1.44468937      -0.07944551       0.41244216
C        0.80918522      -0.28009993      -1.17432518
N       -0.05968828      -1.35528428      -1.00154195
C       -0.90150991      -1.10194166      -0.04312160
C       -0.65498699       0.17664482       0.64746923
C       -0.66683526       1.18469263      -0.42788201
N        0.17629538       0.94222399      -1.38787710
H        1.99897436       0.74557226       0.59172588
H        1.82796047      -0.89637940       0.86632457
H       -1.55438153      -1.87734585       0.34181738
H       -1.27837155       0.38611280       1.51240537
H       -1.14133128       2.15525012      -0.33743675
12
Frame=12 idx=007981 GeodesicLength=1.3105359558474599 rxn_smarts="[N:1]([c:2]1[n:3][c:4]([H:10])[c:5]([H:11])[c:6]([H:12])[n:7]1)([H:8])[H:9]>>[N:1]([C:5]1([H:11])[C:4]([H:10])=[N+:3]=[C-:2][N:7]=[C:6]1[H:12])([H:8])[H:9]"
N        1.46561390      -0.07997904       0.42214266
C        0.79240447      -0.28030560      -1.18572858
N       -0.06680477      -1.35033097      -1.00592641
C       -0.90945259      -1.09998612      -0.04432955
C       -0.66743313       0.17778677       0.64673541
C       -0.67501676       1.18407323      -0.42865391
N        0.16820472       0.93759491      -1.39065891
H        2.02364445       0.74277207       0.59744927
H        1.85294783      -0.89680592       0.87167049
H       -1.54284173      -1.88570731       0.35192736
H       -1.31325967       0.38686354       1.49553204
H       -1.12800673       2.16402445      -0.33015986
12
Frame=13 idx=007981 GeodesicLength=1.4198899693619962 rxn_smarts="[N:1]([c:2]1[n:3][c:4]([H:10])[c:5]([H:11])[c:6]([H:12])[n:7]1)([H:8])[H:9]>>[N:1]([C:5]1([H:11])[C:4]([H:10])=[N+:3]=[C-:2][N:7]=[C:6]1[H:12])([H:8])[H:9]"
N        1.48707562      -0.08050776       0.43219405
C        0.77528424      -0.28050345      -1.19728635
N       -0.07404678      -1.34546144      -1.01008781
C       -0.91757865      -1.09802614      -0.04541921
C       -0.68027147       0.17897955       0.64606984
C       -0.68337584       1.18352123      -0.42931925
N        0.16001402       0.93313802      -1.39326084
H        2.04908090       0.73984005       0.60325820
H        1.87871988      -0.89722984       0.87708002
H       -1.53162700      -1.89344725       0.36165609
H       -1.34814859       0.38753035       1.47816370
H       -1.11512633       2.17216667      -0.32304843
12
Frame=14 idx=007981 GeodesicLength=1.5292560795153074 rxn_smarts="[N:1]([c:2]1[n:3][c:4]([H:10])[c:5]([H:11])[c:6]([H:12])[n:7]1)([H:8])[H:9]>>[N:1]([C:5]1([H:11])[C:4]([H:10])=[N+:3]=[C-:2][N:7]=[C:6]1[H:12])([H:8])[H:9]"
N        1.50910893      -0.08103049       0.44263512
C        0.75781072      -0.28069462      -1.20901489
N       -0.08140730      -1.34067682      -1.01402583
C       -0.92588814      -1.09605977      -0.04639744
C       -0.69351751       0.18022378       0.64546212
C       -0.69190940       1.18303641      -0.42988225
N        0.15173332       0.92885554      -1.39568232
H        2.07532433       0.73677183       0.60915329
H        1.90531989      -0.89765908       0.88254947
H       -1.52078952      -1.90058096       0.37100363
H       -1.38304055       0.38811682       1.46031375
H       -1.10274477       2.17969736      -0.31611465
12
Frame=15 idx=007981 GeodesicLength=1.6386132018207964 rxn_smarts="[N:1]([c:2]1[n:3][c:4]([H:10])[c:5]([H:11])[c:6]([H:12])[n:7]1)([H:8])[H:9]>>[N:1]([C:5]1([H:11])[C:4]([H:10])=[N+:3]=[C-:2][N:7]=[C:6]1[H:12])([H:8])[H:9]"
N        1.53176193      -0.08154755       0.45349946
C        0.73997498      -0.28087899      -1.22092300
N       -0.08887313      -1.33597754      -1.01773142
C       -0.93437206      -1.09408473      -0.04725959
C       -0.70717836       0.18152091       0.64491217
C       -0.70060788       1.18261814      -0.43033707
N        0.14337850       0.92475026      -1.39791290
H        2.10242664       0.73356148       0.61513323
H        1.93279834      -0.89810243       0.88807533
H       -1.51042913      -1.90710049       0.37993359
H       -1.41791055       0.38862684       1.44200734
H       -1.09096928       2.18661411      -0.30939715
12
Frame=16 idx=007981 GeodesicLength=1.7479526859297765 rxn_smarts="[N:1]([c:2]1[n:3][c:4]([H:10])[c:5]([H:11])[c:6]([H:12])[n:7]1)([H:8])[H:9]>>[N:1]([C:5]1([H:11])[C:4]([H:10])=[N+:3]=[C-:2][N:7]=[C:6]1[H:12])([H:8])[H:9]"
N        1.55507230      -0.08205519       0.46482899
C        0.72175938      -0.28105806      -1.23302838
N       -0.09643200      -1.33136665      -1.02119919
C       -0.94302974      -1.09210109      -0.04801078
C       -0.72127184       0.18287044       0.64440975
C       -0.70947384       1.18226204      -0.43068960
N        0.13495879       0.92082213      -1.39994971
H        2.13043204       0.73020618       0.62118868
H        1.96119923      -0.89856493       0.89365416
H       -1.50060084      -1.91302559       0.38844409
H       -1.45277092       0.38906152       1.42325245
H       -1.07984259       2.19294921      -0.30290047
