13
Frame=0 idx=010139 GeodesicLength=0.0 rxn_smarts="[O:1]=[C:2]1[N:3]([H:8])[C:4]([H:9])([H:10])[C@@:5]2([H:11])[C:6]([H:12])([H:13])[N:7]12>>[O:1]=[C:2]=[N:7][C:5]1([H:11])[C:4]([H:9])([H:10])[N:3]([H:8])[C:6]1([H:12])[H:13]"
O        1.61809682       2.12740119      -0.12475809
C        0.80444084       1.24826959      -0.25999423
N        0.88751400       0.02787679       0.59977527
C        0.42821504      -1.05102896      -0.27312138
C       -0.78337696      -0.22415025      -0.70234685
C       -1.25578971       0.14544571       0.64879867
N       -0.25325201       1.09035705      -1.05758576
H        1.76132838      -0.06492420       1.10278736
H        0.15078693      -1.94734141       0.28604944
H        1.13280966      -1.29858942      -1.07248639
H       -1.49230805      -0.63342317      -1.41835429
H       -1.80552618       1.07386604       0.75006999
H       -1.19293880      -0.49375890       1.52116628
13
Frame=1 idx=010139 GeodesicLength=0.0851634044261113 rxn_smarts="[O:1]=[C:2]1[N:3]([H:8])[C:4]([H:9])([H:10])[C@@:5]2([H:11])[C:6]([H:12])([H:13])[N:7]12>>[O:1]=[C:2]=[N:7][C:5]1([H:11])[C:4]([H:9])([H:10])[N:3]([H:8])[C:6]1([H:12])[H:13]"
O        1.61743177       2.14281859      -0.14019912
C        0.81014877       1.25928951      -0.27203206
N        0.88797770       0.02025455       0.60342238
C        0.43121684      -1.05553462      -0.27471345
C       -0.78032001      -0.22769788      -0.70327134
C       -1.24378053       0.15424099       0.64864417
N       -0.26273242       1.09411892      -1.04603061
H        1.74994858      -0.08032827       1.12392011
H        0.15375714      -1.95598145       0.27791383
H        1.13529015      -1.30094779      -1.07495815
H       -1.49250414      -0.63447795      -1.41653539
H       -1.80983897       1.07240643       0.75399353
H       -1.19659489      -0.48816102       1.51984610
13
Frame=2 idx=010139 GeodesicLength=0.17031819723211294 rxn_smarts="[O:1]=[C:2]1[N:3]([H:8])[C:4]([H:9])([H:10])[C@@:5]2([H:11])[C:6]([H:12])([H:13])[N:7]12>>[O:1]=[C:2]=[N:7][C:5]1([H:11])[C:4]([H:9])([H:10])[N:3]([H:8])[C:6]1([H:12])[H:13]"
O        1.61627165       2.15879671      -0.15601965
C        0.81576344       1.27057259      -0.28445110
N        0.88855733       0.01244155       0.60722336
C        0.43420904      -1.06005521      -0.27624876
C       -0.77716126      -0.23104208      -0.70407736
C       -1.23164617       0.16304308       0.64855994
N       -0.27172142       1.09767476      -1.03452357
H        1.73801505      -0.09629394       1.14525427
H        0.15663287      -1.96464835       0.26966368
H        1.13778387      -1.30336051      -1.07733022
H       -1.49260400      -0.63532081      -1.41457082
H       -1.81383334       1.07066497       0.75812908
H       -1.20026706      -0.48247277       1.51839115
13
Frame=3 idx=010139 GeodesicLength=0.25546385373914077 rxn_smarts="[O:1]=[C:2]1[N:3]([H:8])[C:4]([H:9])([H:10])[C@@:5]2([H:11])[C:6]([H:12])([H:13])[N:7]12>>[O:1]=[C:2]=[N:7][C:5]1([H:11])[C:4]([H:9])([H:10])[N:3]([H:8])[C:6]1([H:12])[H:13]"
O        1.61472148       2.17526619      -0.17236647
C        0.82124243       1.28216173      -0.29721939
N        0.88924097       0.00444232       0.61121877
C        0.43720842      -1.06457236      -0.27772815
C       -0.77390458      -0.23418200      -0.70475987
C       -1.21940746       0.17183573       0.64856388
N       -0.28024353       1.10105241      -1.02304872
H        1.72546819      -0.11285099       1.16684695
H        0.15943995      -1.97333747       0.26127339
H        1.14032800      -1.30577269      -1.07960608
H       -1.49260315      -0.63595611      -1.41246982
H       -1.81752421       1.06863525       0.76248942
H       -1.20396652      -0.47672201       1.51680609
13
Frame=4 idx=010139 GeodesicLength=0.340599661874849 rxn_smarts="[O:1]=[C:2]1[N:3]([H:8])[C:4]([H:9])([H:10])[C@@:5]2([H:11])[C:6]([H:12])([H:13])[N:7]12>>[O:1]=[C:2]=[N:7][C:5]1([H:11])[C:4]([H:9])([H:10])[N:3]([H:8])[C:6]1([H:12])[H:13]"
O        1.61286494       2.19216766      -0.18938241
C        0.82654154       1.29409996      -0.31030500
N        0.89001335      -0.00374608       0.61544285
C        0.44022696      -1.06906794      -0.27914920
C       -0.77054562      -0.23711591      -0.70530769
C       -1.20707215       0.18060055       0.64867030
N       -0.28831647       1.10427838      -1.01158665
H        1.71222802      -0.13003008       1.18874463
H        0.16219664      -1.98204468       0.25271700
H        1.14294756      -1.30812709      -1.08178074
H       -1.49248714      -0.63638346      -1.41022772
H       -1.82090294       1.06630915       0.76707681
H       -1.20769469      -0.47094045       1.51508782
13
Frame=5 idx=010139 GeodesicLength=0.4257243191424052 rxn_smarts="[O:1]=[C:2]1[N:3]([H:8])[C:4]([H:9])([H:10])[C@@:5]2([H:11])[C:6]([H:12])([H:13])[N:7]12>>[O:1]=[C:2]=[N:7][C:5]1([H:11])[C:4]([H:9])([H:10])[N:3]([H:8])[C:6]1([H:12])[H:13]"
O        1.61076726       2.20945618      -0.20718990
C        0.83162231       1.30642439      -0.32368371
N        0.89086336      -0.01213009       0.61992987
C        0.44327800      -1.07352739      -0.28051017
C       -0.76708015      -0.23984360      -0.70571144
C       -1.19464740       0.18932375       0.64889417
N       -0.29595687       1.10737472      -1.00012099
H        1.69821858      -0.14786625       1.21098462
H        0.16492151      -1.99076675       0.24396915
H        1.14566912      -1.31037514      -1.08385093
H       -1.49224450      -0.63660467      -1.40784140
H       -1.82395806       1.06368800       0.77189495
H       -1.21145316      -0.46515314       1.51323577
13
Frame=6 idx=010139 GeodesicLength=0.5108366602204425 rxn_smarts="[O:1]=[C:2]1[N:3]([H:8])[C:4]([H:9])([H:10])[C@@:5]2([H:11])[C:6]([H:12])([H:13])[N:7]12>>[O:1]=[C:2]=[N:7][C:5]1([H:11])[C:4]([H:9])([H:10])[N:3]([H:8])[C:6]1([H:12])[H:13]"
O        1.60846980       2.22710383      -0.22588831
C        0.83645244       1.31916582      -0.33734124
N        0.89178217      -0.02072030       0.62471302
C        0.44637443      -1.07793961      -0.28180859
C       -0.76350246      -0.24236626      -0.70596224
C       -1.18213664       0.19799515       0.64924960
N       -0.30317800       1.11035931      -0.98863843
H        1.68336560      -0.16639938       1.23359185
H        0.16763112      -1.99950171       0.23500646
H        1.14851736      -1.31247613      -1.08581209
H       -1.49186421      -0.63662315      -1.40530633
H       -1.82666962       1.06078241       0.77694662
H       -1.21524199      -0.45937998       1.51124969
13
Frame=7 idx=010139 GeodesicLength=0.5959365586947712 rxn_smarts="[O:1]=[C:2]1[N:3]([H:8])[C:4]([H:9])([H:10])[C@@:5]2([H:11])[C:6]([H:12])([H:13])[N:7]12>>[O:1]=[C:2]=[N:7][C:5]1([H:11])[C:4]([H:9])([H:10])[N:3]([H:8])[C:6]1([H:12])[H:13]"
O        1.60598752       2.24510009      -0.24555200
C        0.84100634       1.33234875      -0.35127373
N        0.89276377      -0.02953188       0.62982432
C        0.44952862      -1.08229769      -0.28304136
C       -0.75980549      -0.24468669      -0.70605179
C       -1.16953888       0.20660864       0.64974968
N       -0.30998889       1.11324579      -0.97712927
H        1.66759738      -0.18567396       1.25657899
H        0.17033969      -2.00824963       0.22580778
H        1.15151477      -1.31439826      -1.08765872
H       -1.49133632      -0.63644377      -1.40261654
H       -1.82900964       1.05761309       0.78223262
H       -1.21905886      -0.45363447       1.50913001
13
Frame=8 idx=010139 GeodesicLength=0.681022376496872 rxn_smarts="[O:1]=[C:2]1[N:3]([H:8])[C:4]([H:9])([H:10])[C@@:5]2([H:11])[C:6]([H:12])([H:13])[N:7]12>>[O:1]=[C:2]=[N:7][C:5]1([H:11])[C:4]([H:9])([H:10])[N:3]([H:8])[C:6]1([H:12])[H:13]"
O        1.60330517       2.26345229      -0.26622961
C        0.84526678       1.34599067      -0.36548352
N        0.89380429      -0.03858899       0.63529326
C        0.45275230      -1.08659977      -0.28420513
C       -0.75598003      -0.24681012      -0.70597150
C       -1.15684899       0.21516199       0.65040626
N       -0.31639109       1.11604056      -0.96558687
H        1.65084375      -0.20573337       1.27994233
H        0.17305668      -2.01701077       0.21635255
H        1.15468290      -1.31611992      -1.08938404
H       -1.49065170      -0.63607204      -1.39976329
H       -1.83093999       1.05421006       0.78775137
H       -1.22290008      -0.44792057       1.50687820
13
Frame=9 idx=010139 GeodesicLength=0.7660953693960296 rxn_smarts="[O:1]=[C:2]1[N:3]([H:8])[C:4]([H:9])([H:10])[C@@:5]2([H:11])[C:6]([H:12])([H:13])[N:7]12>>[O:1]=[C:2]=[N:7][C:5]1([H:11])[C:4]([H:9])([H:10])[N:3]([H:8])[C:6]1([H:12])[H:13]"
O        1.60039667       2.28217354      -0.28796012
C        0.84921720       1.36010650      -0.37998197
N        0.89489843      -0.04791458       0.64115486
C        0.45605686      -1.09084510      -0.28529371
C       -0.75201659      -0.24874159      -0.70571367
C       -1.14406052       0.22365428       0.65123023
N       -0.32238581       1.11875147      -0.95400534
H        1.63304318      -0.22662956       1.30366710
H        0.17579244      -2.02578874       0.20662364
H        1.15804307      -1.31762128      -1.09097708
H       -1.48979989      -0.63551451      -1.39674007
H       -1.83242184       1.05061222       0.79350120
H       -1.22676320      -0.44224264       1.50449494
13
Frame=10 idx=010139 GeodesicLength=0.8511562762215314 rxn_smarts="[O:1]=[C:2]1[N:3]([H:8])[C:4]([H:9])([H:10])[C@@:5]2([H:11])[C:6]([H:12])([H:13])[N:7]12>>[O:1]=[C:2]=[N:7][C:5]1([H:11])[C:4]([H:9])([H:10])[N:3]([H:8])[C:6]1([H:12])[H:13]"
O        1.59722199       2.30128354      -0.31077460
C        0.85284560       1.37470831      -0.39478044
N        0.89603954      -0.05753951       0.64744591
C        0.45945332      -1.09503570      -0.28629986
C       -0.74790410      -0.25048726      -0.70526999
C       -1.13116609       0.23208532       0.65223221
N       -0.32796849       1.12138253      -0.94237786
H        1.61413819      -0.24840955       1.32772456
H        0.17855351      -2.03458701       0.19660292
H        1.16161816      -1.31888650      -1.09242415
H       -1.48877017      -0.63477657      -1.39353976
H       -1.83341325       1.04686281       0.79947945
H       -1.23064822      -0.43660043       1.50198162
13
Frame=11 idx=010139 GeodesicLength=0.9362072243702243 rxn_smarts="[O:1]=[C:2]1[N:3]([H:8])[C:4]([H:9])([H:10])[C@@:5]2([H:11])[C:6]([H:12])([H:13])[N:7]12>>[O:1]=[C:2]=[N:7][C:5]1([H:11])[C:4]([H:9])([H:10])[N:3]([H:8])[C:6]1([H:12])[H:13]"
O        1.59373957       2.32080378      -0.33470277
C        0.85614502       1.38980697      -0.40989248
N        0.89722087      -0.06749832       0.65421030
C        0.46295354      -1.09917470      -0.28721581
C       -0.74363276      -0.25205399      -0.70463445
C       -1.11816173       0.24045456       0.65342544
N       -0.33313168       1.12393628      -0.93069877
H        1.59408353      -0.27111628       1.35207920
H        0.18134438      -2.04340976       0.18627199
H        1.16543617      -1.31990037      -1.09371252
H       -1.48755565      -0.63386374      -1.39016102
H       -1.83387804       1.04300842       0.80568628
H       -1.23456322      -0.43099285       1.49934460
13
Frame=12 idx=010139 GeodesicLength=1.0212517877868872 rxn_smarts="[O:1]=[C:2]1[N:3]([H:8])[C:4]([H:9])([H:10])[C@@:5]2([H:11])[C:6]([H:12])([H:13])[N:7]12>>[O:1]=[C:2]=[N:7][C:5]1([H:11])[C:4]([H:9])([H:10])[N:3]([H:8])[C:6]1([H:12])[H:13]"
O        1.58992400       2.34073625      -0.35981248
C        0.85907984       1.40541941      -0.42530688
N        0.89839914      -0.07783371       0.66149301
C        0.46656213      -1.10326580      -0.28802490
C       -0.73918115      -0.25344340      -0.70378833
C       -1.10503719       0.24875635       0.65481107
N       -0.33787262       1.12642612      -0.91892745
H        1.57282731      -0.29478204       1.37666376
H        0.18417761      -2.05226554       0.17560287
H        1.16951201      -1.32064195      -1.09479877
H       -1.48611568      -0.63277124      -1.38658842
H       -1.83376948       1.03909315       0.81211727
H       -1.23850593      -0.42542760       1.49655924
13
Frame=13 idx=010139 GeodesicLength=1.1062695402929883 rxn_smarts="[O:1]=[C:2]1[N:3]([H:8])[C:4]([H:9])([H:10])[C@@:5]2([H:11])[C:6]([H:12])([H:13])[N:7]12>>[O:1]=[C:2]=[N:7][C:5]1([H:11])[C:4]([H:9])([H:10])[N:3]([H:8])[C:6]1([H:12])[H:13]"
O        1.58569906       2.36107987      -0.38614083
C        0.86165264       1.42154195      -0.44104754
N        0.89958191      -0.08858212       0.66934684
C        0.47030312      -1.10730223      -0.28872051
C       -0.73453796      -0.25465823      -0.70272558
C       -1.09179102       0.25699438       0.65641180
N       -0.34217535       1.12884409      -0.90706388
H        1.55031367      -0.31947628       1.40144191
H        0.18706179      -2.06114272       0.16457018
H        1.17389916      -1.32108285      -1.09567531
H       -1.48444976      -0.63149961      -1.38281775
H       -1.83306124       1.03517485       0.81877919
H       -1.24249601      -0.41989109       1.49364148
13
Frame=14 idx=010139 GeodesicLength=1.191302962854831 rxn_smarts="[O:1]=[C:2]1[N:3]([H:8])[C:4]([H:9])([H:10])[C@@:5]2([H:11])[C:6]([H:12])([H:13])[N:7]12>>[O:1]=[C:2]=[N:7][C:5]1([H:11])[C:4]([H:9])([H:10])[N:3]([H:8])[C:6]1([H:12])[H:13]"
O        1.58106426       2.38185768      -0.41378397
C        0.86384209       1.43820803      -0.45710163
N        0.90073127      -0.09979724       0.67784123
C        0.47418182      -1.11129574      -0.28928800
C       -0.72969155      -0.25570171      -0.70144120
C       -1.07842490       0.26515743       0.65824191
N       -0.34603237       1.13121326      -0.89507777
H        1.52652896      -0.34522119       1.42637017
H        0.19000168      -2.07006598       0.15314466
H        1.17862407      -1.32120372      -1.09631119
H       -1.48254032      -0.63004563      -1.37886565
H       -1.83173170       1.03129651       0.82567832
H       -1.24655330      -0.41440170       1.49059315
13
Frame=15 idx=010139 GeodesicLength=1.2763298109016783 rxn_smarts="[O:1]=[C:2]1[N:3]([H:8])[C:4]([H:9])([H:10])[C@@:5]2([H:11])[C:6]([H:12])([H:13])[N:7]12>>[O:1]=[C:2]=[N:7][C:5]1([H:11])[C:4]([H:9])([H:10])[N:3]([H:8])[C:6]1([H:12])[H:13]"
O        1.57594774       2.40307299      -0.44278211
C        0.86563664       1.45542104      -0.47347055
N        0.90180890      -0.11153947       0.68702549
C        0.47820237      -1.11524736      -0.28970938
C       -0.72461957      -0.25657690      -0.69991640
C       -1.06492739       0.27323779       0.66030865
N       -0.34941293       1.13352783      -0.88293899
H        1.50145036      -0.37203970       1.45135811
H        0.19299132      -2.07902934       0.14129875
H        1.18371114      -1.32097744      -1.09666321
H       -1.48035950      -0.62839994      -1.37471229
H       -1.82973538       1.02750484       0.83280238
H       -1.25069371      -0.40895434       1.48739956
13
Frame=16 idx=010139 GeodesicLength=1.361363908516466 rxn_smarts="[O:1]=[C:2]1[N:3]([H:8])[C:4]([H:9])([H:10])[C@@:5]2([H:11])[C:6]([H:12])([H:13])[N:7]12>>[O:1]=[C:2]=[N:7][C:5]1([H:11])[C:4]([H:9])([H:10])[N:3]([H:8])[C:6]1([H:12])[H:13]"
O        1.57030343       2.42472050      -0.47322189
C        0.86701404       1.47319809      -0.49015026
N        0.90277308      -0.12386892       0.69697673
C        0.48237964      -1.11916389      -0.28996750
C       -0.71930737      -0.25728008      -0.69814570
C       -1.05130464       0.28123602       0.66263154
N       -0.35230593       1.13580313      -0.87061670
H        1.47509359      -0.39998640       1.47633977
H        0.19604587      -2.08804018       0.12900220
H        1.18920942      -1.32038493      -1.09669369
H       -1.47788512      -0.62654951      -1.37037506
H       -1.82706768       1.02386118       0.84015895
H       -1.25494830      -0.40354501       1.48406160
