16
Frame=0 idx=001104 GeodesicLength=0.0 rxn_smarts="[C:1]([O:2][C:3]([C:4]1([H:12])[C:5]([H:13])([H:14])[C:6]1([H:15])[H:16])([H:10])[H:11])([H:7])([H:8])[H:9]>>[C:1]([O:2][C:6]([C:5]([C:4](=[C:3]([H:10])[H:11])[H:12])([H:13])[H:14])([H:15])[H:16])([H:7])([H:8])[H:9]"
C        1.92180353      -0.76471113      -0.21905829
O        0.89032011       0.19953511      -0.35627729
C        0.29996532       0.79908553       0.96533275
C       -1.05204862       1.12898284       0.65097325
C       -1.81283177      -0.04840885       0.06714799
C       -0.87668633      -0.33896856      -1.02128731
H        1.61705522      -1.58264114       0.44603680
H        2.15248556      -1.16529996      -1.20634213
H        2.82201086      -0.29660402       0.18480016
H        0.43332743      -0.03978181       1.66243953
H        0.93237087       1.64053729       1.24379475
H       -1.24004836       2.10031786       0.20522547
H       -2.78619772       0.27127698      -0.30681831
H       -1.94573966      -0.88206802       0.76051767
H       -0.44876482      -1.32348514      -1.18563003
H       -0.90702166       0.30223306      -1.89085499
16
Frame=1 idx=001104 GeodesicLength=0.0885225349218161 rxn_smarts="[C:1]([O:2][C:3]([C:4]1([H:12])[C:5]([H:13])([H:14])[C:6]1([H:15])[H:16])([H:10])[H:11])([H:7])([H:8])[H:9]>>[C:1]([O:2][C:6]([C:5]([C:4](=[C:3]([H:10])[H:11])[H:12])([H:13])[H:14])([H:15])[H:16])([H:7])([H:8])[H:9]"
C        1.93432712      -0.77104483      -0.22625355
O        0.89802649       0.18709651      -0.35298761
C        0.29416471       0.80638115       0.98157225
C       -1.04967622       1.13044663       0.63269358
C       -1.81878552      -0.04890429       0.07055536
C       -0.87601468      -0.33035869      -1.01771650
H        1.63277818      -1.59932274       0.42755993
H        2.16960198      -1.15816084      -1.21813285
H        2.83162757      -0.30341778       0.18487029
H        0.41356506      -0.03037404       1.68323641
H        0.92131055       1.64997384       1.26535158
H       -1.23267366       2.09966911       0.18059383
H       -2.79378828       0.26630457      -0.30209596
H       -1.93997236      -0.87844200       0.77034457
H       -0.46991628      -1.32357476      -1.18681183
H       -0.91457467       0.30372817      -1.89277951
16
Frame=2 idx=001104 GeodesicLength=0.17705402478991666 rxn_smarts="[C:1]([O:2][C:3]([C:4]1([H:12])[C:5]([H:13])([H:14])[C:6]1([H:15])[H:16])([H:10])[H:11])([H:7])([H:8])[H:9]>>[C:1]([O:2][C:6]([C:5]([C:4](=[C:3]([H:10])[H:11])[H:12])([H:13])[H:14])([H:15])[H:16])([H:7])([H:8])[H:9]"
C        1.94735071      -0.77733911      -0.23395328
O        0.90556852       0.17388055      -0.34948300
C        0.28791593       0.81374178       0.99813200
C       -1.04693036       1.13156560       0.61463910
C       -1.82484963      -0.04893416       0.07388510
C       -0.87533930      -0.32252392      -1.01383843
H        1.64955622      -1.61654382       0.40775862
H        2.18747337      -1.14987369      -1.23058209
H        2.84138259      -0.31002174       0.18489371
H        0.39296483      -0.02055285       1.70451117
H        0.90956025       1.65959893       1.28721429
H       -1.22469670       2.09871172       0.15628470
H       -2.80108791       0.26251954      -0.29788507
H       -1.93540668      -0.87397392       0.78016630
H       -0.49152864      -1.32418154      -1.18708061
H       -0.92193319       0.30392664      -1.89466253
16
Frame=3 idx=001104 GeodesicLength=0.265598949687894 rxn_smarts="[C:1]([O:2][C:3]([C:4]1([H:12])[C:5]([H:13])([H:14])[C:6]1([H:15])[H:16])([H:10])[H:11])([H:7])([H:8])[H:9]>>[C:1]([O:2][C:6]([C:5]([C:4](=[C:3]([H:10])[H:11])[H:12])([H:13])[H:14])([H:15])[H:16])([H:7])([H:8])[H:9]"
C        1.96086035      -0.78363204      -0.24215619
O        0.91295606       0.15982592      -0.34573895
C        0.28120912       0.82120823       1.01500304
C       -1.04378775       1.13233672       0.59680343
C       -1.83100603      -0.04851194       0.07715362
C       -0.87465191      -0.31544939      -1.00967167
H        1.66737554      -1.63434984       0.38652973
H        2.20608227      -1.14037965      -1.24367201
H        2.85123947      -0.31652626       0.18494734
H        0.37150542      -0.01021224       1.72630450
H        0.89708689       1.66947805       1.30931955
H       -1.21611235       2.09742465       0.13226757
H       -2.80811065       0.25986018      -0.29413827
H       -1.93196209      -0.86870018       0.78999622
H       -0.51360391      -1.32526852      -1.18648553
H       -0.92908044       0.30289632      -1.89646239
16
Frame=4 idx=001104 GeodesicLength=0.35415916486134286 rxn_smarts="[C:1]([O:2][C:3]([C:4]1([H:12])[C:5]([H:13])([H:14])[C:6]1([H:15])[H:16])([H:10])[H:11])([H:7])([H:8])[H:9]>>[C:1]([O:2][C:6]([C:5]([C:4](=[C:3]([H:10])[H:11])[H:12])([H:13])[H:14])([H:15])[H:16])([H:7])([H:8])[H:9]"
C        1.97484142      -0.78996164      -0.25086285
O        0.92019597       0.14486188      -0.34172420
C        0.27403169       0.82882315       1.03217736
C       -1.04022275       1.13275245       0.57918453
C       -1.83723318      -0.04765008       0.08037410
C       -0.87394745      -0.30912970      -1.00522554
H        1.68623153      -1.65278411       0.36373923
H        2.22540689      -1.12959008      -1.25737606
H        2.86116182      -0.32304839       0.18511195
H        0.34915521       0.00075640       1.74865396
H        0.88385564       1.67967893       1.33160337
H       -1.20690510       2.09577801       0.10851279
H       -2.81485905       0.25827251      -0.29081557
H       -1.92956584      -0.86264517       0.79984673
H       -0.53614849      -1.32680493      -1.18506448
H       -0.93599831       0.30069076      -1.89813532
16
Frame=5 idx=001104 GeodesicLength=0.4427436036129487 rxn_smarts="[C:1]([O:2][C:3]([C:4]1([H:12])[C:5]([H:13])([H:14])[C:6]1([H:15])[H:16])([H:10])[H:11])([H:7])([H:8])[H:9]>>[C:1]([O:2][C:6]([C:5]([C:4](=[C:3]([H:10])[H:11])[H:12])([H:13])[H:14])([H:15])[H:16])([H:7])([H:8])[H:9]"
C        1.98928510      -0.79635908      -0.26007539
O        0.92729291       0.12891684      -0.33740419
C        0.26636952       0.83662944       1.04965257
C       -1.03621963       1.13280256       0.56178516
C       -1.84351941      -0.04635889       0.08356030
C       -0.87321557      -0.30356021      -1.00051157
H        1.70614400      -1.67188695       0.33928325
H        2.24541987      -1.11743526      -1.27167842
H        2.87111290      -0.32969267       0.18544671
H        0.32587790       0.01245340       1.77159353
H        0.86984744       1.69026519       1.35401003
H       -1.19706813       2.09374960       0.08499479
H       -2.82134588       0.25771782      -0.28788179
H       -1.92815694      -0.85584330       0.80973342
H       -0.55916430      -1.32876507      -1.18285860
H       -0.94265980       0.29736658      -1.89964980
16
Frame=6 idx=001104 GeodesicLength=0.5313631398364944 rxn_smarts="[C:1]([O:2][C:3]([C:4]1([H:12])[C:5]([H:13])([H:14])[C:6]1([H:15])[H:16])([H:10])[H:11])([H:7])([H:8])[H:9]>>[C:1]([O:2][C:6]([C:5]([C:4](=[C:3]([H:10])[H:11])[H:12])([H:13])[H:14])([H:15])[H:16])([H:7])([H:8])[H:9]"
C        2.00418308      -0.80285616      -0.26980819
O        0.93425012       0.11189888      -0.33272582
C        0.25820637       0.84467435       1.06742954
C       -1.03175171       1.13247380       0.54460472
C       -1.84984603      -0.04464630       0.08672295
C       -0.87244937      -0.29875472      -0.99552098
H        1.72712954      -1.69169589       0.31297215
H        2.26608584      -1.10377794      -1.28654806
H        2.88106542      -0.33658394       0.18602139
H        0.30161413       0.02498907       1.79515846
H        0.85502611       1.70130631       1.37649232
H       -1.18656753       2.09129802       0.06168062
H       -2.82756014       0.25816062      -0.28531879
H       -1.92768969      -0.84829664       0.81966773
H       -0.58266361      -1.33113315      -1.17986911
H       -0.94903254       0.29294371      -1.90095892
16
Frame=7 idx=001104 GeodesicLength=0.6200365596898038 rxn_smarts="[C:1]([O:2][C:3]([C:4]1([H:12])[C:5]([H:13])([H:14])[C:6]1([H:15])[H:16])([H:10])[H:11])([H:7])([H:8])[H:9]>>[C:1]([O:2][C:6]([C:5]([C:4](=[C:3]([H:10])[H:11])[H:12])([H:13])[H:14])([H:15])[H:16])([H:7])([H:8])[H:9]"
C        2.01953160      -0.80947591      -0.28008004
O        0.94106795       0.09371401      -0.32763403
C        0.24952650       0.85300307       1.08551361
C       -1.02679744       1.13174885       0.52764709
C       -1.85620383      -0.04251561       0.08987238
C       -0.87163810      -0.29472702      -0.99024492
H        1.74922864      -1.71224352       0.28464656
H        2.28737093      -1.08851198      -1.30196436
H        2.89099332      -0.34383647       0.18688153
H        0.27629549       0.03847129       1.81938098
H        0.83936216       1.71286909       1.39901311
H       -1.17537781       2.08838792       0.03854294
H       -2.83349839       0.25957682      -0.28311379
H       -1.92812888      -0.84001572       0.82966378
H       -0.60665170      -1.33389509      -1.17610189
H       -0.95508047       0.28745028      -1.90202295
16
Frame=8 idx=001104 GeodesicLength=0.7087828148495164 rxn_smarts="[C:1]([O:2][C:3]([C:4]1([H:12])[C:5]([H:13])([H:14])[C:6]1([H:15])[H:16])([H:10])[H:11])([H:7])([H:8])[H:9]>>[C:1]([O:2][C:6]([C:5]([C:4](=[C:3]([H:10])[H:11])[H:12])([H:13])[H:14])([H:15])[H:16])([H:7])([H:8])[H:9]"
C        2.03532770      -0.81624930      -0.29091109
O        0.94774311       0.07425085      -0.32205643
C        0.24030767       0.86166671       1.10391196
C       -1.02132833       1.13060313       0.51091653
C       -1.86258111      -0.03996827       0.09301478
C       -0.87077524      -0.29150451      -0.98465784
H        1.77249530      -1.73355501       0.25406797
H        2.30923577      -1.07147126      -1.31788568
H        2.90087042      -0.35158665       0.18809308
H        0.24983870       0.05302061       1.84428977
H        0.82283272       1.72502397       1.42152811
H       -1.16345652       2.08496868       0.01554965
H       -2.83915263       0.26195371      -0.28126606
H       -1.92945427      -0.83099498       0.83973954
H       -0.63114141      -1.33704416      -1.17153956
H       -0.96076187       0.28088649      -1.90279473
16
Frame=9 idx=001104 GeodesicLength=0.7975452746325119 rxn_smarts="[C:1]([O:2][C:3]([C:4]1([H:12])[C:5]([H:13])([H:14])[C:6]1([H:15])[H:16])([H:10])[H:11])([H:7])([H:8])[H:9]>>[C:1]([O:2][C:6]([C:5]([C:4](=[C:3]([H:10])[H:11])[H:12])([H:13])[H:14])([H:15])[H:16])([H:7])([H:8])[H:9]"
C        2.05158880      -0.82309311      -0.30248529
O        0.95422411       0.05307027      -0.31555420
C        0.23051988       0.87067809       1.12273948
C       -1.01531948       1.12908287       0.49436619
C       -1.86901435      -0.03688871       0.09615272
C       -0.86985596      -0.28938566      -0.97854401
H        1.79710725      -1.75561396       0.22016354
H        2.33158241      -1.05165139      -1.33425628
H        2.91071892      -0.36015678       0.18977550
H        0.22190208       0.06879104       1.86999316
H        0.80546166       1.73775133       1.44413054
H       -1.15053879       2.08101124      -0.00758463
H       -2.84441412       0.26549525      -0.27996581
H       -1.93193615      -0.82095871       0.85004171
H       -0.65621417      -1.34094039      -1.16577143
H       -0.96581209       0.27280863      -1.90320120
16
Frame=10 idx=001104 GeodesicLength=0.8863444324141354 rxn_smarts="[C:1]([O:2][C:3]([C:4]1([H:12])[C:5]([H:13])([H:14])[C:6]1([H:15])[H:16])([H:10])[H:11])([H:7])([H:8])[H:9]>>[C:1]([O:2][C:6]([C:5]([C:4](=[C:3]([H:10])[H:11])[H:12])([H:13])[H:14])([H:15])[H:16])([H:7])([H:8])[H:9]"
C        2.06828573      -0.83007640      -0.31470290
O        0.96052620       0.03022933      -0.30826641
C        0.22013523       0.88008488       1.14191837
C       -1.00869667       1.12708246       0.47804204
C       -1.87546616      -0.03334427       0.09929248
C       -0.86886577      -0.28822924      -0.97200864
H        1.82307498      -1.77840719       0.18328788
H        2.35431381      -1.02938434      -1.35099859
H        2.92048224      -0.36956497       0.19191231
H        0.19259495       0.08586820       1.89643332
H        0.78716357       1.75116150       1.46664771
H       -1.13666432       2.07640854      -0.03070275
H       -2.84932833       0.27007597      -0.27909787
H       -1.93538998      -0.81006789       0.86048595
H       -0.68185228      -1.34533851      -1.15903348
H       -0.97031320       0.26350193      -1.90320944
16
Frame=11 idx=001104 GeodesicLength=0.9751678329402781 rxn_smarts="[C:1]([O:2][C:3]([C:4]1([H:12])[C:5]([H:13])([H:14])[C:6]1([H:15])[H:16])([H:10])[H:11])([H:7])([H:8])[H:9]>>[C:1]([O:2][C:6]([C:5]([C:4](=[C:3]([H:10])[H:11])[H:12])([H:13])[H:14])([H:15])[H:16])([H:7])([H:8])[H:9]"
C        2.08542429      -0.83718502      -0.32760233
O        0.96662428       0.00550464      -0.30001702
C        0.20912204       0.88989832       1.16147960
C       -1.00140735       1.12457139       0.46193681
C       -1.88195119      -0.02929540       0.10243643
C       -0.86778932      -0.28813436      -0.96498049
H        1.85055516      -1.80188507       0.14306952
H        2.37729021      -1.00430231      -1.36805828
H        2.93014429      -0.37996668       0.19452220
H        0.16178432       0.10435403       1.92363505
H        0.76791905       1.76527310       1.48905685
H       -1.12169955       2.07109293      -0.05388743
H       -2.85387289       0.27577595      -0.27872489
H       -1.93990432      -0.79823962       0.87110949
H       -0.70809044      -1.35031803      -1.15120474
H       -0.97414858       0.25285612      -1.90277076
16
Frame=12 idx=001104 GeodesicLength=1.0640154641875659 rxn_smarts="[C:1]([O:2][C:3]([C:4]1([H:12])[C:5]([H:13])([H:14])[C:6]1([H:15])[H:16])([H:10])[H:11])([H:7])([H:8])[H:9]>>[C:1]([O:2][C:6]([C:5]([C:4](=[C:3]([H:10])[H:11])[H:12])([H:13])[H:14])([H:15])[H:16])([H:7])([H:8])[H:9]"
C        2.10300156      -0.84437744      -0.34124300
O        0.97248058      -0.02137564      -0.29058755
C        0.19743689       0.90013194       1.18146176
C       -0.99337906       1.12150073       0.44604746
C       -1.88848202      -0.02468768       0.10557333
C       -0.86661534      -0.28921825      -0.95737200
H        1.87972694      -1.82596392       0.09906245
H        2.40033438      -0.97597508      -1.38533340
H        2.93970819      -0.39154598       0.19759923
H        0.12930880       0.12436537       1.95162132
H        0.74770175       1.78010765       1.51133503
H       -1.10545745       2.06495861      -0.07722355
H       -2.85799798       0.28269244      -0.27894018
H       -1.94559517      -0.78536135       0.88194726
H       -0.73498421      -1.35596772      -1.14212652
H       -0.97718787       0.24071631      -1.90182163
16
Frame=13 idx=001104 GeodesicLength=1.1528623617093892 rxn_smarts="[C:1]([O:2][C:3]([C:4]1([H:12])[C:5]([H:13])([H:14])[C:6]1([H:15])[H:16])([H:10])[H:11])([H:7])([H:8])[H:9]>>[C:1]([O:2][C:6]([C:5]([C:4](=[C:3]([H:10])[H:11])[H:12])([H:13])[H:14])([H:15])[H:16])([H:7])([H:8])[H:9]"
C        2.12100883      -0.85160096      -0.35566186
O        0.97805071      -0.05072212      -0.27971645
C        0.18505378       0.91078703       1.20191103
C       -0.98456249       1.11781015       0.43038029
C       -1.89508681      -0.01946879       0.10868049
C       -0.86530881      -0.29158526      -0.94906856
H        1.91080765      -1.85044682       0.05087544
H        2.42320462      -0.94409610      -1.40269564
H        2.94920242      -0.40445998       0.20099046
H        0.09498038       0.14602654       1.98038990
H        0.72651898       1.79565327       1.53348316
H       -1.08777119       2.05790099      -0.10078600
H       -2.86167921       0.29092381      -0.27986934
H       -1.95260722      -0.77132845       0.89300454
H       -0.76255258      -1.36235092      -1.13164222
H       -0.97925907       0.22695761      -1.90027525
16
Frame=14 idx=001104 GeodesicLength=1.2417165543792679 rxn_smarts="[C:1]([O:2][C:3]([C:4]1([H:12])[C:5]([H:13])([H:14])[C:6]1([H:15])[H:16])([H:10])[H:11])([H:7])([H:8])[H:9]>>[C:1]([O:2][C:6]([C:5]([C:4](=[C:3]([H:10])[H:11])[H:12])([H:13])[H:14])([H:15])[H:16])([H:7])([H:8])[H:9]"
C        2.13941583      -0.85874488      -0.37095748
O        0.98326986      -0.08304880      -0.26698562
C        0.17191181       0.92183496       1.22289155
C       -0.97478876       1.11339336       0.41491166
C       -1.90178035      -0.01351837       0.11170970
C       -0.86385421      -0.29549056      -0.93988981
H        1.94411872      -1.87512678      -0.00223943
H        2.44541148      -0.90779330      -1.41995708
H        2.95864330      -0.41893659       0.20465409
H        0.05853926       0.16946859       2.00997768
H        0.70434293       1.81188291       1.55548137
H       -1.06821317       2.04969505      -0.12474665
H       -2.86478715       0.30071030      -0.28174683
H       -1.96119525      -0.75586414       0.90431941
H       -0.79092667      -1.36967776      -1.11940367
H       -0.98010766       0.21121602      -1.89801889
16
Frame=15 idx=001104 GeodesicLength=1.3305627589447182 rxn_smarts="[C:1]([O:2][C:3]([C:4]1([H:12])[C:5]([H:13])([H:14])[C:6]1([H:15])[H:16])([H:10])[H:11])([H:7])([H:8])[H:9]>>[C:1]([O:2][C:6]([C:5]([C:4](=[C:3]([H:10])[H:11])[H:12])([H:13])[H:14])([H:15])[H:16])([H:7])([H:8])[H:9]"
C        2.15817168      -0.86566014      -0.38721088
O        0.98805495      -0.11897334      -0.25188994
C        0.15796478       0.93322209       1.24447401
C       -0.96389448       1.10812631       0.39962559
C       -1.90859850      -0.00669553       0.11460236
C       -0.86220496      -0.30121073      -0.92962121
H        1.97999983      -1.89960498      -0.06104662
H        2.46635876      -0.86623874      -1.43685525
H        2.96807648      -0.43518221       0.20840095
H        0.01969934       0.19482053       2.04038825
H        0.68119795       1.82871446       1.57732341
H       -1.04631674       2.04009860      -0.14929321
H       -2.86720560       0.31233882      -0.28484900
H       -1.97168495      -0.73868103       0.91592848
H       -0.82021751      -1.37817553      -1.10505151
H       -0.97940102       0.19310141      -1.89492543
16
Frame=16 idx=001104 GeodesicLength=1.4193814726733518 rxn_smarts="[C:1]([O:2][C:3]([C:4]1([H:12])[C:5]([H:13])([H:14])[C:6]1([H:15])[H:16])([H:10])[H:11])([H:7])([H:8])[H:9]>>[C:1]([O:2][C:6]([C:5]([C:4](=[C:3]([H:10])[H:11])[H:12])([H:13])[H:14])([H:15])[H:16])([H:7])([H:8])[H:9]"
C        2.17715822      -0.87211592      -0.40452436
O        0.99228398      -0.15935687      -0.23376366
C        0.14318090       0.94487806       1.26673722
C       -0.95163283       1.10188191       0.38450024
C       -1.91557645       0.00119068       0.11730835
C       -0.86031505      -0.30919455      -0.91800237
H        2.01874501      -1.92335688      -0.12679974
H        2.48534826      -0.81808845      -1.45294937
H        2.97756745      -0.45354396       0.21216454
H       -0.02191568       0.22227555       2.07162803
H        0.65715888       1.84605200       1.59896306
H       -1.02139978       2.02883671      -0.17471152
H       -2.86874450       0.32620986      -0.28950358
H       -1.98452388      -0.71937116       0.92795366
H       -0.85062844      -1.38827409      -1.08809875
H       -0.97670608       0.17197713      -1.89090176
