13
Frame=0 idx=009975 GeodesicLength=0.0 rxn_smarts="[C:1]([C@@:2]([O:3][H:12])([C:4](=[O:5])[C:6]#[C:7][H:13])[H:11])([H:8])([H:9])[H:10]>>[C:1]([C@@:2]1([H:11])[O:3][C:6](=[C:7]([H:12])[H:13])[C:4]1=[O:5])([H:8])([H:9])[H:10]"
C       -1.81421009       0.68973743      -0.17505015
C       -0.37062607       0.48890653       0.19866895
O       -0.11642526      -0.82266548       0.77518724
C        0.60997035       0.21836070      -0.95086740
O        0.84550466       0.75126632      -1.98466127
C        1.18712822      -0.95264959      -0.22084076
C        2.12317604      -1.36132384       0.57595351
H       -2.43716013       0.74946712       0.71724718
H       -2.16682252      -0.13384722      -0.79594340
H       -1.91254947       1.61899269      -0.73846982
H        0.01251333       1.27531766       0.85472476
H        0.86209907      -1.06794631       1.38672503
H        3.17740193      -1.45361596       0.35732619
13
Frame=1 idx=009975 GeodesicLength=0.10138379787879691 rxn_smarts="[C:1]([C@@:2]([O:3][H:12])([C:4](=[O:5])[C:6]#[C:7][H:13])[H:11])([H:8])([H:9])[H:10]>>[C:1]([C@@:2]1([H:11])[O:3][C:6](=[C:7]([H:12])[H:13])[C:4]1=[O:5])([H:8])([H:9])[H:10]"
C       -1.81483833       0.70531657      -0.17439092
C       -0.37478038       0.47895197       0.19775788
O       -0.13091900      -0.83855287       0.75812014
C        0.60426675       0.21732540      -0.95343088
O        0.80212135       0.69503382      -2.02183921
C        1.22519803      -0.92192732      -0.21746441
C        2.14793570      -1.34278231       0.58396484
H       -2.43753916       0.76077065       0.71831817
H       -2.18054955      -0.10349541      -0.80697081
H       -1.89622577       1.64448084      -0.72416980
H        0.00830855       1.25268510       0.86946279
H        0.84108264      -1.12410584       1.38943416
H        3.20593916      -1.42370059       0.38120804
13
Frame=2 idx=009975 GeodesicLength=0.20255000053539043 rxn_smarts="[C:1]([C@@:2]([O:3][H:12])([C:4](=[O:5])[C:6]#[C:7][H:13])[H:11])([H:8])([H:9])[H:10]>>[C:1]([C@@:2]1([H:11])[O:3][C:6](=[C:7]([H:12])[H:13])[C:4]1=[O:5])([H:8])([H:9])[H:10]"
C       -1.81528688       0.72100859      -0.17377677
C       -0.37911462       0.46989629       0.19698494
O       -0.14488102      -0.85319713       0.74112533
C        0.59911378       0.21755949      -0.95554913
O        0.75829578       0.63356025      -2.05619735
C        1.26312581      -0.88711664      -0.21220673
C        2.17228650      -1.32402857       0.59170820
H       -2.43814224       0.77175814       0.71905517
H       -2.19319326      -0.07286915      -0.81795711
H       -1.87984246       1.66955010      -0.70976328
H        0.00287881       1.23081230       0.88450127
H        0.82115151      -1.18251952       1.38738166
H        3.23360830      -1.39441416       0.40469381
13
Frame=3 idx=009975 GeodesicLength=0.3037996212169601 rxn_smarts="[C:1]([C@@:2]([O:3][H:12])([C:4](=[O:5])[C:6]#[C:7][H:13])[H:11])([H:8])([H:9])[H:10]>>[C:1]([C@@:2]1([H:11])[O:3][C:6](=[C:7]([H:12])[H:13])[C:4]1=[O:5])([H:8])([H:9])[H:10]"
C       -1.81586645       0.73663270      -0.17338678
C       -0.38381825       0.46191921       0.19641126
O       -0.15823243      -0.86615201       0.72491513
C        0.59423823       0.21880964      -0.95725690
O        0.71542892       0.56759948      -2.08638924
C        1.30082995      -0.84781883      -0.20454027
C        2.19647692      -1.30502730       0.59899372
H       -2.43937042       0.78252812       0.71925936
H       -2.20498219      -0.04249275      -0.82877475
H       -1.86390302       1.69384071      -0.69581265
H       -0.00413474       1.21020831       0.89963629
H        0.80286868      -1.24246762       1.38051662
H        3.26046481      -1.36757965       0.42642820
13
Frame=4 idx=009975 GeodesicLength=0.4051529173180658 rxn_smarts="[C:1]([C@@:2]([O:3][H:12])([C:4](=[O:5])[C:6]#[C:7][H:13])[H:11])([H:8])([H:9])[H:10]>>[C:1]([C@@:2]1([H:11])[O:3][C:6](=[C:7]([H:12])[H:13])[C:4]1=[O:5])([H:8])([H:9])[H:10]"
C       -1.81643708       0.75249526      -0.17314092
C       -0.38879249       0.45487333       0.19608948
O       -0.17119039      -0.87764382       0.70978245
C        0.58944160       0.22039219      -0.95870517
O        0.67378253       0.49663753      -2.11189475
C        1.33768657      -0.80468456      -0.19461746
C        2.21995233      -1.28831603       0.60437578
H       -2.44099066       0.79380355       0.71908040
H       -2.21606369      -0.01215871      -0.83914843
H       -1.84805948       1.71767172      -0.68241200
H       -0.01238978       1.19079775       0.91472234
H        0.78630459      -1.30468388       1.36807037
H        3.28675594      -1.33918433       0.44779792
13
Frame=5 idx=009975 GeodesicLength=0.5058179532326561 rxn_smarts="[C:1]([C@@:2]([O:3][H:12])([C:4](=[O:5])[C:6]#[C:7][H:13])[H:11])([H:8])([H:9])[H:10]>>[C:1]([C@@:2]1([H:11])[O:3][C:6](=[C:7]([H:12])[H:13])[C:4]1=[O:5])([H:8])([H:9])[H:10]"
C       -1.81735384       0.76750005      -0.17360428
C       -0.39443290       0.44936112       0.19636539
O       -0.18347255      -0.88618558       0.69731122
C        0.58446928       0.22248898      -0.95888073
O        0.63603606       0.42331124      -2.13027976
C        1.37384157      -0.75574068      -0.18061363
C        2.24322317      -1.27089290       0.60842502
H       -2.44363248       0.80474438       0.71746864
H       -2.22615840       0.01615367      -0.84906344
H       -1.83317072       1.73937738      -0.67080963
H       -0.02298335       1.17409786       0.92953094
H        0.77207482      -1.36650413       1.35068464
H        3.31155932      -1.31771138       0.46346563
13
Frame=6 idx=009975 GeodesicLength=0.606454899150327 rxn_smarts="[C:1]([C@@:2]([O:3][H:12])([C:4](=[O:5])[C:6]#[C:7][H:13])[H:11])([H:8])([H:9])[H:10]>>[C:1]([C@@:2]1([H:11])[O:3][C:6](=[C:7]([H:12])[H:13])[C:4]1=[O:5])([H:8])([H:9])[H:10]"
C       -1.81856832       0.78226188      -0.17469044
C       -0.40066657       0.44505405       0.19743113
O       -0.19545174      -0.89245838       0.68820738
C        0.57933586       0.22401587      -0.95788166
O        0.60234094       0.34751574      -2.14177517
C        1.40839920      -0.70279426      -0.16303388
C        2.26590858      -1.25674380       0.60894351
H       -2.44726481       0.81664259       0.71473267
H       -2.23551881       0.04291865      -0.85827788
H       -1.81885359       1.75973256      -0.66134021
H       -0.03552968       1.15987866       0.94405970
H        0.76023270      -1.42911261       1.32797348
H        3.33563625      -1.29691096       0.47565137
13
Frame=7 idx=009975 GeodesicLength=0.7074327450740916 rxn_smarts="[C:1]([C@@:2]([O:3][H:12])([C:4](=[O:5])[C:6]#[C:7][H:13])[H:11])([H:8])([H:9])[H:10]>>[C:1]([C@@:2]1([H:11])[O:3][C:6](=[C:7]([H:12])[H:13])[C:4]1=[O:5])([H:8])([H:9])[H:10]"
C       -1.82099828       0.79555537      -0.17737710
C       -0.40814801       0.44305534       0.20018678
O       -0.20650211      -0.89455361       0.68480660
C        0.57476265       0.22624434      -0.95372773
O        0.57557942       0.27142267      -2.14453753
C        1.44260668      -0.64238996      -0.13859275
C        2.28928922      -1.24100726       0.60788082
H       -2.45373192       0.82821822       0.70929622
H       -2.24353199       0.06573240      -0.86774552
H       -1.80693408       1.77708831      -0.65581615
H       -0.05226938       1.15040056       0.95912795
H        0.75143738      -1.48984655       1.30124757
H        3.35844043      -1.28991984       0.47525084
13
Frame=8 idx=009975 GeodesicLength=0.808127277237545 rxn_smarts="[C:1]([C@@:2]([O:3][H:12])([C:4](=[O:5])[C:6]#[C:7][H:13])[H:11])([H:8])([H:9])[H:10]>>[C:1]([C@@:2]1([H:11])[O:3][C:6](=[C:7]([H:12])[H:13])[C:4]1=[O:5])([H:8])([H:9])[H:10]"
C       -1.82400516       0.80747434      -0.18173206
C       -0.41669492       0.44277254       0.20491584
O       -0.21730542      -0.89319757       0.68778706
C        0.57102004       0.22814162      -0.94560056
O        0.55622277       0.19520891      -2.13780636
C        1.47499865      -0.57652041      -0.10732950
C        2.31283727      -1.22281986       0.60550979
H       -2.46246797       0.83995742       0.70079579
H       -2.24972545       0.08468980      -0.87748930
H       -1.79612971       1.79166820      -0.65434335
H       -0.07274676       1.14508611       0.97470871
H        0.74508490      -1.54905516       1.26994723
H        3.37891177      -1.29340593       0.46063670
13
Frame=9 idx=009975 GeodesicLength=0.9099814844301396 rxn_smarts="[C:1]([C@@:2]([O:3][H:12])([C:4](=[O:5])[C:6]#[C:7][H:13])[H:11])([H:8])([H:9])[H:10]>>[C:1]([C@@:2]1([H:11])[O:3][C:6](=[C:7]([H:12])[H:13])[C:4]1=[O:5])([H:8])([H:9])[H:10]"
C       -1.82661174       0.81953140      -0.18666702
C       -0.42546689       0.44254620       0.21114835
O       -0.22947586      -0.89061956       0.69635442
C        0.56753031       0.22667828      -0.93506675
O        0.54187180       0.11710095      -2.12361266
C        1.50390232      -0.51121797      -0.07302195
C        2.33539773      -1.20492263       0.60000565
H       -2.47157760       0.85436235       0.69106381
H       -2.25559819       0.10249072      -0.88628353
H       -1.78372543       1.80516022      -0.65563698
H       -0.09347001       1.14124952       0.99010130
H        0.73902921      -1.61083155       1.23028658
H        3.39819435      -1.29152792       0.44132879
13
Frame=10 idx=009975 GeodesicLength=1.010593345058648 rxn_smarts="[C:1]([C@@:2]([O:3][H:12])([C:4](=[O:5])[C:6]#[C:7][H:13])[H:11])([H:8])([H:9])[H:10]>>[C:1]([C@@:2]1([H:11])[O:3][C:6](=[C:7]([H:12])[H:13])[C:4]1=[O:5])([H:8])([H:9])[H:10]"
C       -1.82780152       0.83156151      -0.19144555
C       -0.43393465       0.44139218       0.21844219
O       -0.24283019      -0.88789360       0.70908628
C        0.56391109       0.22069408      -0.92294283
O        0.53168239       0.03799637      -2.10328343
C        1.52876220      -0.44996957      -0.03889913
C        2.35536398      -1.18410953       0.59318193
H       -2.47916851       0.87142336       0.68120046
H       -2.26053380       0.11939260      -0.89360837
H       -1.76883710       1.81739374      -0.65818103
H       -0.11314726       1.13760885       1.00500176
H        0.73213816      -1.67324467       1.18091188
H        3.41439520      -1.28224532       0.42053583
13
Frame=11 idx=009975 GeodesicLength=1.1118934972387338 rxn_smarts="[C:1]([C@@:2]([O:3][H:12])([C:4](=[O:5])[C:6]#[C:7][H:13])[H:11])([H:8])([H:9])[H:10]>>[C:1]([C@@:2]1([H:11])[O:3][C:6](=[C:7]([H:12])[H:13])[C:4]1=[O:5])([H:8])([H:9])[H:10]"
C       -1.82776868       0.84436780      -0.19540736
C       -0.44189543       0.43798043       0.22581865
O       -0.25817993      -0.88753376       0.72329247
C        0.55950281       0.21004742      -0.91154026
O        0.52212484      -0.04140737      -2.08012832
C        1.54967225      -0.39624322      -0.00945624
C        2.37344543      -1.16212344       0.58545326
H       -2.48481747       0.89113654       0.67263235
H       -2.26637871       0.13778899      -0.89949039
H       -1.75081584       1.82995298      -0.66024260
H       -0.12971441       1.13151755       1.01893249
H        0.72403848      -1.73426078       1.12410007
H        3.43078666      -1.26122313       0.40603588
13
Frame=12 idx=009975 GeodesicLength=1.2135275409086896 rxn_smarts="[C:1]([C@@:2]([O:3][H:12])([C:4](=[O:5])[C:6]#[C:7][H:13])[H:11])([H:8])([H:9])[H:10]>>[C:1]([C@@:2]1([H:11])[O:3][C:6](=[C:7]([H:12])[H:13])[C:4]1=[O:5])([H:8])([H:9])[H:10]"
C       -1.82671513       0.85730254      -0.19882819
C       -0.44959860       0.43238920       0.23311154
O       -0.27502051      -0.88964873       0.73754012
C        0.55445972       0.19628173      -0.90087885
O        0.51323987      -0.11955560      -2.05480196
C        1.56769487      -0.34809913       0.01520521
C        2.38994908      -1.13858971       0.57742883
H       -2.48895657       0.91179393       0.66489776
H       -2.27252930       0.15733755      -0.90494588
H       -1.73044427       1.84242883      -0.66124992
H       -0.14421823       1.12278733       1.03238602
H        0.71539756      -1.79003137       1.06477683
H        3.44674151      -1.23439657       0.39535849
13
Frame=13 idx=009975 GeodesicLength=1.3150561330923607 rxn_smarts="[C:1]([C@@:2]([O:3][H:12])([C:4](=[O:5])[C:6]#[C:7][H:13])[H:11])([H:8])([H:9])[H:10]>>[C:1]([C@@:2]1([H:11])[O:3][C:6](=[C:7]([H:12])[H:13])[C:4]1=[O:5])([H:8])([H:9])[H:10]"
C       -1.82455985       0.87026710      -0.20189457
C       -0.45727117       0.42441973       0.23999323
O       -0.29356537      -0.89488782       0.75010875
C        0.54857858       0.18017874      -0.89112014
O        0.50454614      -0.19566218      -2.02792568
C        1.58303635      -0.30462355       0.03482939
C        2.40519874      -1.11345637       0.56914083
H       -2.49155582       0.93252340       0.65758927
H       -2.27862130       0.17849824      -0.91072211
H       -1.70765755       1.85503523      -0.66050886
H       -0.15720103       1.11065922       1.04556131
H        0.70694751      -1.83925406       1.00764772
H        3.46212477      -1.20369770       0.38730087
13
Frame=14 idx=009975 GeodesicLength=1.4168107169308441 rxn_smarts="[C:1]([C@@:2]([O:3][H:12])([C:4](=[O:5])[C:6]#[C:7][H:13])[H:11])([H:8])([H:9])[H:10]>>[C:1]([C@@:2]1([H:11])[O:3][C:6](=[C:7]([H:12])[H:13])[C:4]1=[O:5])([H:8])([H:9])[H:10]"
C       -1.82166041       0.88315538      -0.20487470
C       -0.46510034       0.41451047       0.24659197
O       -0.31362054      -0.90271810       0.76113770
C        0.54218093       0.16241604      -0.88204839
O        0.49673944      -0.26949829      -1.99986897
C        1.59660017      -0.26404082       0.05042283
C        2.41966194      -1.08650196       0.56093991
H       -2.49332349       0.95300565       0.65040079
H       -2.28453954       0.20106506      -0.91729417
H       -1.68311394       1.86760904      -0.65833247
H       -0.16940664       1.09563551       1.05885110
H        0.69890461      -1.88297608       0.95468773
H        3.47667779      -1.17166189       0.37938668
13
Frame=15 idx=009975 GeodesicLength=1.5186544320237763 rxn_smarts="[C:1]([C@@:2]([O:3][H:12])([C:4](=[O:5])[C:6]#[C:7][H:13])[H:11])([H:8])([H:9])[H:10]>>[C:1]([C@@:2]1([H:11])[O:3][C:6](=[C:7]([H:12])[H:13])[C:4]1=[O:5])([H:8])([H:9])[H:10]"
C       -1.81796643       0.89600748      -0.20782022
C       -0.47317139       0.40285742       0.25290475
O       -0.33525014      -0.91288200       0.77058775
C        0.53521608       0.14316509      -0.87353123
O        0.48976912      -0.34132217      -1.97076312
C        1.60854453      -0.22542115       0.06238650
C        2.43342849      -1.05762830       0.55284410
H       -2.49423602       0.97331505       0.64319885
H       -2.29008006       0.22505004      -0.92466281
H       -1.65679753       1.88009212      -0.65478355
H       -0.18110017       1.07793496       1.07224916
H        0.69128192      -1.92268290       0.90631585
H        3.49036160      -1.13848563       0.37107397
13
Frame=16 idx=009975 GeodesicLength=1.6205755434332139 rxn_smarts="[C:1]([C@@:2]([O:3][H:12])([C:4](=[O:5])[C:6]#[C:7][H:13])[H:11])([H:8])([H:9])[H:10]>>[C:1]([C@@:2]1([H:11])[O:3][C:6](=[C:7]([H:12])[H:13])[C:4]1=[O:5])([H:8])([H:9])[H:10]"
C       -1.81345476       0.90885659      -0.21073182
C       -0.48152655       0.38964996       0.25896370
O       -0.35847245      -0.92507540       0.77862953
C        0.52768655       0.12250109      -0.86546019
O        0.48364701      -0.41144453      -1.94071953
C        1.61903921      -0.18802004       0.07100279
C        2.44651136      -1.02677506       0.54484520
H       -2.49427873       0.99359934       0.63596710
H       -2.29511804       0.25041153      -0.93272754
H       -1.62873019       1.89237933      -0.64998041
H       -0.19242014       1.05783283       1.08572779
H        0.68395380      -1.95975077       0.86230006
H        3.50316293      -1.10416486       0.36218332
