14
Frame=0 idx=006047 GeodesicLength=0.0 rxn_smarts="[C:1]([O:2][C:3]([C:4]#[C:5][C:6]([H:12])([H:13])[H:14])([H:10])[H:11])([H:7])([H:8])[H:9]>>[C:1](=[O:2])([H:7])[H:8].[C:3](=[C:4]=[C:5]([C:6]([H:12])([H:13])[H:14])[H:9])([H:10])[H:11]"
C       -1.67954885       0.38536939       0.42822234
O       -1.97174680      -0.65312864      -0.26273662
C       -0.56744159      -1.61048386      -1.06122603
C        0.54161784      -0.91673762      -0.68892018
C        0.85296923       0.09779933      -0.01504792
C        1.92658866       0.97772219       0.49242460
H       -1.92121671       1.36764674      -0.00010444
H       -1.77521283       0.31457604       1.52026062
H       -0.33214485       0.51239949       0.38682902
H       -0.77516192      -2.56095992      -0.58436883
H       -0.92147844      -1.52481343      -2.08167935
H        1.93259178       0.99948207       1.58341722
H        2.89299964       0.61065803       0.14816691
H        1.79718481       2.00047021       0.13476268
14
Frame=1 idx=006047 GeodesicLength=0.08179241508073841 rxn_smarts="[C:1]([O:2][C:3]([C:4]#[C:5][C:6]([H:12])([H:13])[H:14])([H:10])[H:11])([H:7])([H:8])[H:9]>>[C:1](=[O:2])([H:7])[H:8].[C:3](=[C:4]=[C:5]([C:6]([H:12])([H:13])[H:14])[H:9])([H:10])[H:11]"
C       -1.70162711       0.38519607       0.42102460
O       -1.98744776      -0.67470436      -0.24162571
C       -0.56474197      -1.60789722      -1.05510378
C        0.54239759      -0.91353065      -0.67233969
C        0.85800560       0.09572439       0.00751385
C        1.94476048       0.97416624       0.48947425
H       -1.92719788       1.35200838      -0.05013712
H       -1.84108778       0.35403350       1.51016223
H       -0.33718903       0.50875428       0.43134284
H       -0.74988065      -2.57727586      -0.60734675
H       -0.92490922      -1.49853788      -2.07163424
H        1.99628595       0.97174009       1.57953100
H        2.90025031       0.62654912       0.09761978
H        1.79238148       2.00377391       0.16151872
14
Frame=2 idx=006047 GeodesicLength=0.162779016304431 rxn_smarts="[C:1]([O:2][C:3]([C:4]#[C:5][C:6]([H:12])([H:13])[H:14])([H:10])[H:11])([H:7])([H:8])[H:9]>>[C:1](=[O:2])([H:7])[H:8].[C:3](=[C:4]=[C:5]([C:6]([H:12])([H:13])[H:14])[H:9])([H:10])[H:11]"
C       -1.72283712       0.38476118       0.41365974
O       -2.00349764      -0.69363309      -0.22326068
C       -0.56225712      -1.60537585      -1.04807381
C        0.54319081      -0.91101165      -0.65450953
C        0.86313432       0.09340443       0.03063060
C        1.96225872       0.97092970       0.48614502
H       -1.92999239       1.33603306      -0.09691571
H       -1.90626461       0.39075614       1.49673552
H       -0.34262086       0.50443163       0.47657189
H       -0.72599971      -2.59174347      -0.62937551
H       -0.92733833      -1.47351015      -2.06068693
H        2.06001884       0.94450414       1.57279985
H        2.90444777       0.64386415       0.04700621
H        1.78775732       2.00658981       0.18927335
14
Frame=3 idx=006047 GeodesicLength=0.24298905000341162 rxn_smarts="[C:1]([O:2][C:3]([C:4]#[C:5][C:6]([H:12])([H:13])[H:14])([H:10])[H:11])([H:7])([H:8])[H:9]>>[C:1](=[O:2])([H:7])[H:8].[C:3](=[C:4]=[C:5]([C:6]([H:12])([H:13])[H:14])[H:9])([H:10])[H:11]"
C       -1.74329486       0.38407411       0.40633105
O       -2.01991287      -0.71038444      -0.20717750
C       -0.55994634      -1.60291746      -1.04023519
C        0.54395512      -0.90895084      -0.63573763
C        0.86833605       0.09107850       0.05394817
C        1.97912421       0.96788302       0.48254739
H       -1.93076028       1.31976224      -0.14030495
H       -1.96975510       0.42476159       1.48053304
H       -0.34856694       0.50031358       0.52129476
H       -0.70301376      -2.60457703      -0.65061680
H       -0.92899363      -1.44962587      -2.04891492
H        2.12289482       0.91805359       1.56335681
H        2.90573376       0.66179344      -0.00265476
H        1.78419982       2.00873557       0.21763053
14
Frame=4 idx=006047 GeodesicLength=0.3225777507695816 rxn_smarts="[C:1]([O:2][C:3]([C:4]#[C:5][C:6]([H:12])([H:13])[H:14])([H:10])[H:11])([H:7])([H:8])[H:9]>>[C:1](=[O:2])([H:7])[H:8].[C:3](=[C:4]=[C:5]([C:6]([H:12])([H:13])[H:14])[H:9])([H:10])[H:11]"
C       -1.76316909       0.38324335       0.39899240
O       -2.03668854      -0.72546827      -0.19283231
C       -0.55776884      -1.60057969      -1.03158788
C        0.54464498      -0.90709887      -0.61633180
C        0.87361217       0.08884707       0.07735552
C        1.99544360       0.96486897       0.47884213
H       -1.93012917       1.30316310      -0.18094562
H       -2.03136244       0.45676906       1.46181381
H       -0.35507512       0.49686222       0.56503256
H       -0.68040774      -2.61601776      -0.67108573
H       -0.93012136      -1.42695152      -2.03628512
H        2.18509572       0.89164034       1.55130413
H        2.90413298       0.68048611      -0.05156785
H        1.78179285       2.01023590       0.24729576
14
Frame=5 idx=006047 GeodesicLength=0.40168773612648023 rxn_smarts="[C:1]([O:2][C:3]([C:4]#[C:5][C:6]([H:12])([H:13])[H:14])([H:10])[H:11])([H:7])([H:8])[H:9]>>[C:1](=[O:2])([H:7])[H:8].[C:3](=[C:4]=[C:5]([C:6]([H:12])([H:13])[H:14])[H:9])([H:10])[H:11]"
C       -1.78262797       0.38215419       0.39182698
O       -2.05384599      -0.73894326      -0.18035332
C       -0.55571585      -1.59829392      -1.02226998
C        0.54524891      -0.90556957      -0.59609474
C        0.87899020       0.08668696       0.10088947
C        2.01127451       0.96193257       0.47486378
H       -1.92861243       1.28639057      -0.21840948
H       -2.09123155       0.48647195       1.44097201
H       -0.36214766       0.49412875       0.60792478
H       -0.65818199      -2.62621049      -0.69122895
H       -0.93057349      -1.40510820      -2.02298794
H        2.24626019       0.86628851       1.53662999
H        2.90006036       0.69921718      -0.09878854
H        1.78110276       2.01085477       0.27702594
14
Frame=6 idx=006047 GeodesicLength=0.4804056328242095 rxn_smarts="[C:1]([O:2][C:3]([C:4]#[C:5][C:6]([H:12])([H:13])[H:14])([H:10])[H:11])([H:7])([H:8])[H:9]>>[C:1](=[O:2])([H:7])[H:8].[C:3](=[C:4]=[C:5]([C:6]([H:12])([H:13])[H:14])[H:9])([H:10])[H:11]"
C       -1.80180287       0.38097627       0.38466422
O       -2.07137228      -0.75131127      -0.16909599
C       -0.55374555      -1.59614314      -1.01219958
C        0.54571900      -0.90402297      -0.57540334
C        0.88446631       0.08471694       0.12447269
C        2.02671007       0.95892381       0.47081409
H       -1.92640738       1.26932761      -0.25374516
H       -2.14937885       0.51471115       1.41808902
H       -0.36978876       0.49240033       0.64978144
H       -0.63577194      -2.63524682      -0.71086364
H       -0.93067368      -1.38432826      -2.00890430
H        2.30674450       0.84069670       1.51937683
H        2.89333124       0.71856678      -0.14510835
H        1.78197019       2.01073286       0.30812208
14
Frame=7 idx=006047 GeodesicLength=0.5587594647139902 rxn_smarts="[C:1]([O:2][C:3]([C:4]#[C:5][C:6]([H:12])([H:13])[H:14])([H:10])[H:11])([H:7])([H:8])[H:9]>>[C:1](=[O:2])([H:7])[H:8].[C:3](=[C:4]=[C:5]([C:6]([H:12])([H:13])[H:14])[H:9])([H:10])[H:11]"
C       -1.82076793       0.37969332       0.37758022
O       -2.08929976      -0.76263393      -0.15911638
C       -0.55184046      -1.59410365      -1.00145150
C        0.54605333      -0.90258890      -0.55403028
C        0.89007937       0.08278955       0.14832312
C        2.04177795       0.95584432       0.46660075
H       -1.92356481       1.25211375      -0.28689375
H       -2.20590612       0.54135345       1.39342517
H       -0.37796210       0.49159164       0.69086732
H       -0.61320204      -2.64316317      -0.73032720
H       -0.93026519      -1.36430233      -1.99414690
H        2.36626023       0.81543233       1.49955463
H        2.88407592       0.73818635      -0.19023895
H        1.78456161       2.00978726       0.33985375
14
Frame=8 idx=006047 GeodesicLength=0.6368170365948803 rxn_smarts="[C:1]([O:2][C:3]([C:4]#[C:5][C:6]([H:12])([H:13])[H:14])([H:10])[H:11])([H:7])([H:8])[H:9]>>[C:1](=[O:2])([H:7])[H:8].[C:3](=[C:4]=[C:5]([C:6]([H:12])([H:13])[H:14])[H:9])([H:10])[H:11]"
C       -1.83961734       0.37833005       0.37050915
O       -2.10761798      -0.77313466      -0.15017398
C       -0.54999225      -1.59221512      -0.99000100
C        0.54621659      -0.90106436      -0.53221705
C        0.89582054       0.08106575       0.17226076
C        2.05653078       0.95266331       0.46227599
H       -1.92025733       1.23468037      -0.31821659
H       -2.26095334       0.56675291       1.36703832
H       -0.38665895       0.49176496       0.73122236
H       -0.59017622      -2.64997503      -0.74952619
H       -0.92954304      -1.34517711      -1.97868484
H        2.42490158       0.79000888       1.47711864
H        2.87230493       0.75828205      -0.23423152
H        1.78904203       2.00801800       0.37262594
14
Frame=9 idx=006047 GeodesicLength=0.714660987592136 rxn_smarts="[C:1]([O:2][C:3]([C:4]#[C:5][C:6]([H:12])([H:13])[H:14])([H:10])[H:11])([H:7])([H:8])[H:9]>>[C:1](=[O:2])([H:7])[H:8].[C:3](=[C:4]=[C:5]([C:6]([H:12])([H:13])[H:14])[H:9])([H:10])[H:11]"
C       -1.85844691       0.37677448       0.36359304
O       -2.12632951      -0.78287594      -0.14232293
C       -0.54822233      -1.59040860      -0.97794217
C        0.54618625      -0.89944213      -0.50996395
C        0.90167846       0.07961126       0.19618335
C        2.07098424       0.94940927       0.45772411
H       -1.91671157       1.21707265      -0.34745039
H       -2.31478057       0.59076555       1.33912995
H       -0.39586910       0.49279999       0.77111352
H       -0.56666498      -2.65567476      -0.76874807
H       -0.92851969      -1.32674406      -1.96260918
H        2.48235997       0.76513018       1.45211904
H        2.85859642       0.77829017      -0.27631715
H        1.79573931       2.00529193       0.40549084
14
Frame=10 idx=006047 GeodesicLength=0.7922776506976542 rxn_smarts="[C:1]([O:2][C:3]([C:4]#[C:5][C:6]([H:12])([H:13])[H:14])([H:10])[H:11])([H:7])([H:8])[H:9]>>[C:1](=[O:2])([H:7])[H:8].[C:3](=[C:4]=[C:5]([C:6]([H:12])([H:13])[H:14])[H:9])([H:10])[H:11]"
C       -1.87724133       0.37518593       0.35663293
O       -2.14543873      -0.79194592      -0.13543485
C       -0.54649832      -1.58879776      -0.96516855
C        0.54595734      -0.89771912      -0.48722015
C        0.90770279       0.07827063       0.22033753
C        2.08513671       0.94603435       0.45304790
H       -1.91263337       1.19932246      -0.37517726
H       -2.36737619       0.61378181       1.30957612
H       -0.40556755       0.49465320       0.81066064
H       -0.54256477      -2.66025980      -0.78780229
H       -0.92717756      -1.30914318      -1.94586361
H        2.53899225       0.73996058       1.42438364
H        2.84237559       0.79897250      -0.31731894
H        1.80433314       2.00168432       0.43934689
14
Frame=11 idx=006047 GeodesicLength=0.8697025702036016 rxn_smarts="[C:1]([O:2][C:3]([C:4]#[C:5][C:6]([H:12])([H:13])[H:14])([H:10])[H:11])([H:7])([H:8])[H:9]>>[C:1](=[O:2])([H:7])[H:8].[C:3](=[C:4]=[C:5]([C:6]([H:12])([H:13])[H:14])[H:9])([H:10])[H:11]"
C       -1.89602989       0.37350063       0.34969649
O       -2.16493653      -0.80039340      -0.12955856
C       -0.54481065      -1.58734969      -0.95175154
C        0.54552498      -0.89591773      -0.46393432
C        0.91391784       0.07705085       0.24468052
C        2.09899127       0.94255655       0.44814273
H       -1.90811703       1.18151114      -0.40124123
H       -2.41877091       0.63566722       1.27860589
H       -0.41571326       0.49724023       0.85005441
H       -0.51784728      -2.66363899      -0.80688245
H       -0.92547577      -1.29220428      -1.92851849
H        2.59427425       0.71494521       1.39406830
H        2.82395869       0.81986439      -0.35679934
H        1.81503430       1.99716783       0.47343760
14
Frame=12 idx=006047 GeodesicLength=0.9469677554516129 rxn_smarts="[C:1]([O:2][C:3]([C:4]#[C:5][C:6]([H:12])([H:13])[H:14])([H:10])[H:11])([H:7])([H:8])[H:9]>>[C:1](=[O:2])([H:7])[H:8].[C:3](=[C:4]=[C:5]([C:6]([H:12])([H:13])[H:14])[H:9])([H:10])[H:11]"
C       -1.91483325       0.37176094       0.34270122
O       -2.18481608      -0.80829876      -0.12461368
C       -0.54316375      -1.58612201      -0.93764673
C        0.54486993      -0.89394425      -0.44023714
C        0.92033860       0.07597419       0.26919425
C        2.11255787       0.93896166       0.44306843
H       -1.90310417       1.16358903      -0.42589584
H       -2.46903810       0.65665366       1.24611933
H       -0.42631283       0.50051634       0.88937625
H       -0.49242357      -2.66578775      -0.82582070
H       -0.92352312      -1.27606766      -1.91054576
H        2.64840372       0.68971081       1.36097986
H        2.80320421       0.84137281      -0.39485689
H        1.82784053       1.99168099       0.50817739
14
Frame=13 idx=006047 GeodesicLength=1.0241826354723467 rxn_smarts="[C:1]([O:2][C:3]([C:4]#[C:5][C:6]([H:12])([H:13])[H:14])([H:10])[H:11])([H:7])([H:8])[H:9]>>[C:1](=[O:2])([H:7])[H:8].[C:3](=[C:4]=[C:5]([C:6]([H:12])([H:13])[H:14])[H:9])([H:10])[H:11]"
C       -1.93371640       0.36985720       0.33576058
O       -2.20509145      -0.81574167      -0.12063239
C       -0.54157872      -1.58506032      -0.92295418
C        0.54396111      -0.89177182      -0.41615646
C        0.92695966       0.07509297       0.29376818
C        2.12583932       0.93525981       0.43776660
H       -1.89775061       1.14558773      -0.44892952
H       -2.51826096       0.67663658       1.21229833
H       -0.43736880       0.50436394       0.92885371
H       -0.46627965      -2.66663761      -0.84485416
H       -0.92136200      -1.26054501      -1.89202261
H        2.70099040       0.66486961       1.32532863
H        2.78076099       0.86290328      -0.43087325
H        1.84289709       1.98518531       0.54264653
14
Frame=14 idx=006047 GeodesicLength=1.1012922193949946 rxn_smarts="[C:1]([O:2][C:3]([C:4]#[C:5][C:6]([H:12])([H:13])[H:14])([H:10])[H:11])([H:7])([H:8])[H:9]>>[C:1](=[O:2])([H:7])[H:8].[C:3](=[C:4]=[C:5]([C:6]([H:12])([H:13])[H:14])[H:9])([H:10])[H:11]"
C       -1.95265473       0.36778817       0.32889212
O       -2.22574893      -0.82276620      -0.11763668
C       -0.54001851      -1.58416308      -0.90772585
C        0.54281492      -0.88946602      -0.39159570
C        0.93383433       0.07434056       0.31845346
C        2.13882890       0.93144466       0.43216572
H       -1.89200908       1.12759613      -0.47033469
H       -2.56629379       0.69547926       1.17732646
H       -0.44880926       0.50873264       0.96856629
H       -0.43944228      -2.66599966      -0.86406752
H       -0.91891644      -1.24548952      -1.87298383
H        2.75152512       0.64053232       1.28747816
H        2.75675007       0.88413852      -0.46486155
H        1.86013968       1.97783222       0.57632359
14
Frame=15 idx=006047 GeodesicLength=1.1783355736107048 rxn_smarts="[C:1]([O:2][C:3]([C:4]#[C:5][C:6]([H:12])([H:13])[H:14])([H:10])[H:11])([H:7])([H:8])[H:9]>>[C:1](=[O:2])([H:7])[H:8].[C:3](=[C:4]=[C:5]([C:6]([H:12])([H:13])[H:14])[H:9])([H:10])[H:11]"
C       -1.97160532       0.36566675       0.32185395
O       -2.24675489      -0.82935432      -0.11566850
C       -0.53844718      -1.58356446      -0.89181219
C        0.54143931      -0.88698150      -0.36659236
C        0.94100695       0.07361319       0.34341814
C        2.15147425       0.92752359       0.42636886
H       -1.88559807       1.10956204      -0.49051521
H       -2.61329488       0.71368304       1.14079011
H       -0.46068844       0.51351183       1.00863275
H       -0.41191514      -2.66393017      -0.88292527
H       -0.91617849      -1.23123650      -1.85336502
H        2.80079257       0.61578970       1.24660758
H        2.73035509       0.90632612      -0.49734799
H        1.87941425       1.96939070       0.61055514
14
Frame=16 idx=006047 GeodesicLength=1.2553725504702553 rxn_smarts="[C:1]([O:2][C:3]([C:4]#[C:5][C:6]([H:12])([H:13])[H:14])([H:10])[H:11])([H:7])([H:8])[H:9]>>[C:1](=[O:2])([H:7])[H:8].[C:3](=[C:4]=[C:5]([C:6]([H:12])([H:13])[H:14])[H:9])([H:10])[H:11]"
C       -1.99056330       0.36348547       0.31461969
O       -2.26811213      -0.83553091      -0.11478525
C       -0.53685903      -1.58327599      -0.87523203
C        0.53983150      -0.88432192      -0.34114898
C        0.94851522       0.07286481       0.36866454
C        2.16375204       0.92349618       0.42033031
H       -1.87845279       1.09150755      -0.50948358
H       -2.65920757       0.73127315       1.10265698
H       -0.47298885       0.51859614       1.04919112
H       -0.38376525      -2.66038195      -0.90131630
H       -0.91314371      -1.21776900      -1.83319762
H        2.84861557       0.59077560       1.20253711
H        2.70160089       0.92953821      -0.52811571
H        1.90077741       1.95974267       0.64527969
