13
Frame=0 idx=003716 GeodesicLength=0.0 rxn_smarts="[C:1](/[C:2](=[N:3]/[O:4][H:10])[C:5]([O:6][H:13])([H:11])[H:12])([H:7])([H:8])[H:9]>>[C:1]([C@@:2]([N:3])([O:4][H:10])[C:5]([O:6][H:13])([H:11])[H:12])([H:7])([H:8])[H:9]"
C       -0.74198508       1.29291563      -0.06642860
C       -0.25132139      -0.01736323       0.47269311
N       -0.98342393      -0.70737313       1.36915987
O       -0.87550273      -1.59413838       0.08219180
C        1.21213842      -0.33352849       0.22926016
O        1.60676881      -0.23461630      -1.12003162
H       -1.68601450       1.15034575      -0.59406723
H       -0.96650742       1.92140281       0.80031399
H       -0.02507183       1.78496488      -0.72157081
H       -1.73403606      -1.40522293      -0.31168780
H        1.44234795      -1.30578571       0.67145003
H        1.77735976       0.42875104       0.77694873
H        1.22524796      -0.98035194      -1.58823158
13
Frame=1 idx=003716 GeodesicLength=0.03166191539479602 rxn_smarts="[C:1](/[C:2](=[N:3]/[O:4][H:10])[C:5]([O:6][H:13])([H:11])[H:12])([H:7])([H:8])[H:9]>>[C:1]([C@@:2]([N:3])([O:4][H:10])[C:5]([O:6][H:13])([H:11])[H:12])([H:7])([H:8])[H:9]"
C       -0.74439763       1.29694359      -0.06132117
C       -0.25308016      -0.01773406       0.46641793
N       -0.99129125      -0.71531199       1.34981113
O       -0.87206604      -1.59681565       0.06477274
C        1.21306135      -0.32845064       0.23354852
O        1.61076194      -0.24684294      -1.11607199
H       -1.70670793       1.16617561      -0.55794447
H       -0.92889863       1.93443158       0.80821141
H       -0.04374744       1.77797242      -0.74194637
H       -1.73288261      -1.42052850      -0.32984532
H        1.44713233      -1.29469457       0.68725442
H        1.77483684       0.44157309       0.77322559
H        1.22727924      -0.99671794      -1.57611242
13
Frame=2 idx=003716 GeodesicLength=0.0630997745881979 rxn_smarts="[C:1](/[C:2](=[N:3]/[O:4][H:10])[C:5]([O:6][H:13])([H:11])[H:12])([H:7])([H:8])[H:9]>>[C:1]([C@@:2]([N:3])([O:4][H:10])[C:5]([O:6][H:13])([H:11])[H:12])([H:7])([H:8])[H:9]"
C       -0.74676301       1.30092905      -0.05617774
C       -0.25475211      -0.01799005       0.46024502
N       -0.99886145      -0.72295650       1.33053679
O       -0.86873355      -1.59920619       0.04750984
C        1.21387863      -0.32342934       0.23772738
O        1.61466907      -0.25887592      -1.11196219
H       -1.72587718       1.18173685      -0.52173981
H       -0.89183981       1.94668620       0.81461963
H       -0.06300194       1.77111104      -0.76129278
H       -1.73178542      -1.43574964      -0.34759952
H        1.45150850      -1.28362778       0.70272474
H        1.77240092       0.45400055       0.76940250
H        1.22915735      -1.01262828      -1.56399386
13
Frame=3 idx=003716 GeodesicLength=0.09441717558071402 rxn_smarts="[C:1](/[C:2](=[N:3]/[O:4][H:10])[C:5]([O:6][H:13])([H:11])[H:12])([H:7])([H:8])[H:9]>>[C:1]([C@@:2]([N:3])([O:4][H:10])[C:5]([O:6][H:13])([H:11])[H:12])([H:7])([H:8])[H:9]"
C       -0.74910555       1.30492271      -0.05098077
C       -0.25637010      -0.01814254       0.45416052
N       -1.00622890      -0.73036388       1.31131007
O       -0.86551663      -1.60138512       0.03034626
C        1.21462156      -0.31846841       0.24180757
O        1.61858552      -0.27073925      -1.10770946
H       -1.74370555       1.19713173      -0.48529488
H       -0.85524304       1.95836085       0.81961066
H       -0.08287192       1.76437040      -0.77975392
H       -1.73076249      -1.45098529      -0.36501331
H        1.45551638      -1.27261958       0.71790057
H        1.77006907       0.46608649       0.76549298
H        1.23101164      -1.02816811      -1.55187630
13
Frame=4 idx=003716 GeodesicLength=0.12568199876304997 rxn_smarts="[C:1](/[C:2](=[N:3]/[O:4][H:10])[C:5]([O:6][H:13])([H:11])[H:12])([H:7])([H:8])[H:9]>>[C:1]([C@@:2]([N:3])([O:4][H:10])[C:5]([O:6][H:13])([H:11])[H:12])([H:7])([H:8])[H:9]"
C       -0.75142811       1.30891123      -0.04571340
C       -0.25794479      -0.01820241       0.44813651
N       -1.01341015      -0.73755529       1.29206116
O       -0.86239703      -1.60333358       0.01320257
C        1.21527819      -0.31355230       0.24580915
O        1.62249866      -0.28245215      -1.10329006
H       -1.76030487       1.21240010      -0.44843418
H       -0.81894331       1.96952572       0.82321620
H       -0.10344265       1.75766003      -0.79744359
H       -1.72977245      -1.46623566      -0.38219453
H        1.45915896      -1.26162250       0.73284376
H        1.76780903       0.47786264       0.76150878
H        1.23289852      -1.04340582      -1.53970236
13
Frame=5 idx=003716 GeodesicLength=0.156959248269172 rxn_smarts="[C:1](/[C:2](=[N:3]/[O:4][H:10])[C:5]([O:6][H:13])([H:11])[H:12])([H:7])([H:8])[H:9]>>[C:1]([C@@:2]([N:3])([O:4][H:10])[C:5]([O:6][H:13])([H:11])[H:12])([H:7])([H:8])[H:9]"
C       -0.75373211       1.31291728      -0.04036183
C       -0.25949531      -0.01817301       0.44213989
N       -1.02044055      -0.74455985       1.27273440
O       -0.85936814      -1.60506381      -0.00398964
C        1.21583882      -0.30866222       0.24973541
O        1.62640634      -0.29404063      -1.09870188
H       -1.77575633       1.22759655      -0.41102016
H       -0.78281936       1.98021732       0.82549330
H       -0.12477430       1.75096796      -0.81444052
H       -1.72879264      -1.48153096      -0.39921767
H        1.46243719      -1.25059873       0.74760664
H        1.76559223       0.48938460       0.75743147
H        1.23490415      -1.05845449      -1.52740942
13
Frame=6 idx=003716 GeodesicLength=0.18820144509888953 rxn_smarts="[C:1](/[C:2](=[N:3]/[O:4][H:10])[C:5]([O:6][H:13])([H:11])[H:12])([H:7])([H:8])[H:9]>>[C:1]([C@@:2]([N:3])([O:4][H:10])[C:5]([O:6][H:13])([H:11])[H:12])([H:7])([H:8])[H:9]"
C       -0.75600726       1.31693369      -0.03493301
C       -0.26100612      -0.01805215       0.43619272
N       -1.02730579      -0.75135470       1.25336622
O       -0.85642722      -1.60657075      -0.02119163
C        1.21632039      -0.30382364       0.25358802
O        1.63031509      -0.30550485      -1.09395817
H       -1.78998586       1.24266209      -0.37322822
H       -0.74706872       1.99047507       0.82642515
H       -0.14677139       1.74436722      -0.83063406
H       -1.72782928      -1.49689330      -0.41601604
H        1.46536797      -1.23959925       0.76215970
H        1.76345062       0.50060630       0.75328749
H        1.23694755      -1.07324574      -1.51505819
13
Frame=7 idx=003716 GeodesicLength=0.2193729414653776 rxn_smarts="[C:1](/[C:2](=[N:3]/[O:4][H:10])[C:5]([O:6][H:13])([H:11])[H:12])([H:7])([H:8])[H:9]>>[C:1]([C@@:2]([N:3])([O:4][H:10])[C:5]([O:6][H:13])([H:11])[H:12])([H:7])([H:8])[H:9]"
C       -0.75823550       1.32096129      -0.02943402
C       -0.26246812      -0.01783611       0.43030381
N       -1.03400810      -0.75792226       1.23397635
O       -0.85357975      -1.60785673      -0.03837555
C        1.21673486      -0.29904943       0.25736610
O        1.63423254      -0.31684632      -1.08906805
H       -1.80294803       1.25754453      -0.33519538
H       -0.71183010       2.00031830       0.82603433
H       -0.16934600       1.73792437      -0.84595661
H       -1.72688815      -1.51235332      -0.43253954
H        1.46796248      -1.22865615       0.77648288
H        1.76140376       0.51150913       0.74909247
H        1.23897010      -1.08773731      -1.50268681
13
Frame=8 idx=003716 GeodesicLength=0.2505461999908686 rxn_smarts="[C:1](/[C:2](=[N:3]/[O:4][H:10])[C:5]([O:6][H:13])([H:11])[H:12])([H:7])([H:8])[H:9]>>[C:1]([C@@:2]([N:3])([O:4][H:10])[C:5]([O:6][H:13])([H:11])[H:12])([H:7])([H:8])[H:9]"
C       -0.76042588       1.32501303      -0.02385381
C       -0.26389666      -0.01752895       0.42443601
N       -1.04057106      -0.76428479       1.21449945
O       -0.85082484      -1.60892743      -0.05561443
C        1.21707581      -0.29432121       0.26107575
O        1.63815126      -0.32808991      -1.08401743
H       -1.81472981       1.27228463      -0.29678022
H       -0.67696650       2.00978662       0.82435233
H       -0.19256723       1.73163105      -0.86046798
H       -1.72595536      -1.52794151      -0.44886282
H        1.47022270      -1.21772695       0.79062625
H        1.75943802       0.52214148       0.74483424
H        1.24104955      -1.10203607      -1.49022734
13
Frame=9 idx=003716 GeodesicLength=0.2816476345577811 rxn_smarts="[C:1](/[C:2](=[N:3]/[O:4][H:10])[C:5]([O:6][H:13])([H:11])[H:12])([H:7])([H:8])[H:9]>>[C:1]([C@@:2]([N:3])([O:4][H:10])[C:5]([O:6][H:13])([H:11])[H:12])([H:7])([H:8])[H:9]"
C       -0.76255087       1.32907090      -0.01819277
C       -0.26528021      -0.01712533       0.41860229
N       -1.04698736      -0.77039871       1.19495689
O       -0.84813994      -1.60975752      -0.07288157
C        1.21733485      -0.28965373       0.26472004
O        1.64206991      -0.33924081      -1.07881486
H       -1.82525326       1.28684347      -0.25810099
H       -0.64262373       2.01889478       0.82140502
H       -0.21635235       1.72547197      -0.87412110
H       -1.72498655      -1.54367129      -0.46493873
H        1.47213275      -1.20683373       0.80456664
H        1.75753151       0.53246987       0.74053814
H        1.24310525      -1.11606989      -1.47773900
13
Frame=10 idx=003716 GeodesicLength=0.3126588898615288 rxn_smarts="[C:1](/[C:2](=[N:3]/[O:4][H:10])[C:5]([O:6][H:13])([H:11])[H:12])([H:7])([H:8])[H:9]>>[C:1]([C@@:2]([N:3])([O:4][H:10])[C:5]([O:6][H:13])([H:11])[H:12])([H:7])([H:8])[H:9]"
C       -0.76461401       1.33315617      -0.01246730
C       -0.26661278      -0.01662274       0.41280428
N       -1.05326415      -0.77626112       1.17537295
O       -0.84554990      -1.61037249      -0.09014039
C        1.21754255      -0.28506181       0.26829326
O        1.64600305      -0.35030382      -1.07347463
H       -1.83452992       1.30115064      -0.21935156
H       -0.60893565       2.02766240       0.81724404
H       -0.24058092       1.71961480      -0.88682861
H       -1.72402424      -1.55959491      -0.48069320
H        1.47372956      -1.19602553       0.81828433
H        1.75573917       0.54248207       0.73620919
H        1.24509725      -1.12982366      -1.46525235
13
Frame=11 idx=003716 GeodesicLength=0.3436296997870679 rxn_smarts="[C:1](/[C:2](=[N:3]/[O:4][H:10])[C:5]([O:6][H:13])([H:11])[H:12])([H:7])([H:8])[H:9]>>[C:1]([C@@:2]([N:3])([O:4][H:10])[C:5]([O:6][H:13])([H:11])[H:12])([H:7])([H:8])[H:9]"
C       -0.76660948       1.33727518      -0.00666574
C       -0.26790571      -0.01602600       0.40701650
N       -1.05943307      -0.78188804       1.15568925
O       -0.84304692      -1.61076769      -0.10746387
C        1.21769071      -0.28053441       0.27181361
O        1.64996499      -0.36129370      -1.06797647
H       -1.84260667       1.31528149      -0.18034095
H       -0.57577514       2.03614318       0.81186644
H       -0.26536009       1.71396748      -0.89869533
H       -1.72303214      -1.57574599      -0.49620625
H        1.47500056      -1.18527435       0.83183287
H        1.75403477       0.55221120       0.73186028
H        1.24707819      -1.14334835      -1.45273034
13
Frame=12 idx=003716 GeodesicLength=0.37461013938510157 rxn_smarts="[C:1](/[C:2](=[N:3]/[O:4][H:10])[C:5]([O:6][H:13])([H:11])[H:12])([H:7])([H:8])[H:9]>>[C:1]([C@@:2]([N:3])([O:4][H:10])[C:5]([O:6][H:13])([H:11])[H:12])([H:7])([H:8])[H:9]"
C       -0.76855116       1.34142686      -0.00077409
C       -0.26917189      -0.01533665       0.40121986
N       -1.06551824      -0.78728810       1.13584309
O       -0.84061539      -1.61091945      -0.12492192
C        1.21776861      -0.27606873       0.27529293
O        1.65396175      -0.37223307      -1.06229386
H       -1.84952461       1.32926378      -0.14086815
H       -0.54302696       2.04440092       0.80521882
H       -0.29080464       1.70847243      -0.90978809
H       -1.72196289      -1.59211346      -0.51155353
H        1.47593377      -1.17456302       0.84524127
H        1.75239094       0.56166687       0.72749722
H        1.24912070      -1.15670837      -1.44011355
13
Frame=13 idx=003716 GeodesicLength=0.40564807675983994 rxn_smarts="[C:1](/[C:2](=[N:3]/[O:4][H:10])[C:5]([O:6][H:13])([H:11])[H:12])([H:7])([H:8])[H:9]>>[C:1]([C@@:2]([N:3])([O:4][H:10])[C:5]([O:6][H:13])([H:11])[H:12])([H:7])([H:8])[H:9]"
C       -0.77043733       1.34563406       0.00521504
C       -0.27042564      -0.01455317       0.39538218
N       -1.07155577      -0.79247408       1.11578250
O       -0.83826215      -1.61083289      -0.14257755
C        1.21777172      -0.27164869       0.27874070
O        1.65800300      -0.38313903      -1.05642147
H       -1.85529806       1.34315822      -0.10077502
H       -0.51058590       2.05244684       0.79729887
H       -0.31702209       1.70309556      -0.92016624
H       -1.72079475      -1.60873703      -0.52680990
H        1.47651855      -1.16385573       0.85856740
H        1.75080172       0.57089073       0.72311617
H        1.25128669      -1.16998480      -1.42735267
13
Frame=14 idx=003716 GeodesicLength=0.4367007939307273 rxn_smarts="[C:1](/[C:2](=[N:3]/[O:4][H:10])[C:5]([O:6][H:13])([H:11])[H:12])([H:7])([H:8])[H:9]>>[C:1]([C@@:2]([N:3])([O:4][H:10])[C:5]([O:6][H:13])([H:11])[H:12])([H:7])([H:8])[H:9]"
C       -0.77225610       1.34989102       0.01129285
C       -0.27165694      -0.01367312       0.38950871
N       -1.07754041      -0.79742116       1.09551768
O       -0.83598613      -1.61049793      -0.16041130
C        1.21770590      -0.26729040       0.28215878
O        1.66208936      -0.39401397      -1.05035774
H       -1.85986189       1.35690889      -0.06017949
H       -0.47858514       2.06030304       0.78809538
H       -0.34393675       1.69790066      -0.92975100
H       -1.71951383      -1.62564662      -0.54191437
H        1.47675401      -1.15318887       0.87178700
H        1.74927592       0.57985456       0.71873780
H        1.25351201      -1.18312610      -1.41448431
13
Frame=15 idx=003716 GeodesicLength=0.4677315238975639 rxn_smarts="[C:1](/[C:2](=[N:3]/[O:4][H:10])[C:5]([O:6][H:13])([H:11])[H:12])([H:7])([H:8])[H:9]>>[C:1]([C@@:2]([N:3])([O:4][H:10])[C:5]([O:6][H:13])([H:11])[H:12])([H:7])([H:8])[H:9]"
C       -0.77399381       1.35420460       0.01745081
C       -0.27285950      -0.01268956       0.38359391
N       -1.08347355      -0.80210055       1.07505376
O       -0.83379232      -1.60991192      -0.17840419
C        1.21757581      -0.26300150       0.28554583
O        1.66621959      -0.40486477      -1.04410559
H       -1.86317479       1.37047104      -0.01920454
H       -0.44712575       2.06796720       0.77764737
H       -0.37147791       1.69294731      -0.93848289
H       -1.71810346      -1.64288150      -0.55681635
H        1.47664040      -1.14258307       0.88488514
H        1.74782140       0.58854777       0.71437420
H        1.25574390      -1.19610504      -1.40153747
13
Frame=16 idx=003716 GeodesicLength=0.4986957256638088 rxn_smarts="[C:1](/[C:2](=[N:3]/[O:4][H:10])[C:5]([O:6][H:13])([H:11])[H:12])([H:7])([H:8])[H:9]>>[C:1]([C@@:2]([N:3])([O:4][H:10])[C:5]([O:6][H:13])([H:11])[H:12])([H:7])([H:8])[H:9]"
C       -0.77563503       1.35858020       0.02368160
C       -0.27402950      -0.01159400       0.37762427
N       -1.08935438      -0.80647441       1.05439331
O       -0.83168169      -1.60906243      -0.19654261
C        1.21738097      -0.25878676       0.28889588
O        1.67039027      -0.41570231      -1.03767218
H       -1.86520296       1.38380476       0.02200673
H       -0.41631305       2.07541950       0.76602684
H       -0.39955121       1.68829492      -0.94630262
H       -1.71654379      -1.66049365      -0.57144141
H        1.47617098      -1.13204961       0.89784483
H        1.74643576       0.59696088       0.71003057
H        1.25793363      -1.20889710      -1.38854523
