10
Frame=0 idx=004801 GeodesicLength=0.0 rxn_smarts="[O:1]=[c:2]1[n:3]([H:7])[c:4]([H:8])[c:5]([H:9])[n:6]1[H:10]>>[N:3](=[C:4]=[C:5]([H:8])[H:9])[H:7].[O:1]=[C:2]=[N:6][H:10]"
O        2.59067649       0.84172418       0.76194220
C        1.65364273       1.21353595       0.19991074
N        0.19642521      -1.66356824      -0.34352948
C       -0.78273618      -0.93522258      -0.03755615
C       -1.34237577       0.30046275       0.01159114
N        0.60827560       1.63069430      -0.26211423
H       -0.01482477      -2.65366183      -0.31799555
H       -1.87386423      -1.27270930       0.20723879
H       -1.51797371       0.69052033       1.01634363
H        0.48275463       1.84822445      -1.23583111
10
Frame=1 idx=004801 GeodesicLength=0.11124418998954383 rxn_smarts="[O:1]=[c:2]1[n:3]([H:7])[c:4]([H:8])[c:5]([H:9])[n:6]1[H:10]>>[N:3](=[C:4]=[C:5]([H:8])[H:9])[H:7].[O:1]=[C:2]=[N:6][H:10]"
O        2.61154246       0.81500795       0.73024862
C        1.65595821       1.13542424       0.16382145
N        0.22542772      -1.61949691      -0.31685731
C       -0.78093231      -0.92805482      -0.00321597
C       -1.34461684       0.30414448       0.01658763
N        0.60396678       1.60518572      -0.24228681
H        0.05457297      -2.61733059      -0.30260148
H       -1.90515315      -1.25038746       0.15345944
H       -1.56755233       0.70663499       1.00602022
H        0.44678649       1.84887240      -1.20517581
10
Frame=2 idx=004801 GeodesicLength=0.22247693938067148 rxn_smarts="[O:1]=[c:2]1[n:3]([H:7])[c:4]([H:8])[c:5]([H:9])[n:6]1[H:10]>>[N:3](=[C:4]=[C:5]([H:8])[H:9])[H:7].[O:1]=[C:2]=[N:6][H:10]"
O        2.62978889       0.78969636       0.69453388
C        1.65366360       1.06467175       0.13507759
N        0.25098200      -1.57741659      -0.29160032
C       -0.78085047      -0.92221841       0.02801266
C       -1.34562483       0.30730888       0.02249053
N        0.59967487       1.57997600      -0.22290014
H        0.12028017      -2.58108836      -0.28746832
H       -1.93125346      -1.22685268       0.10177743
H       -1.61274273       0.72073949       0.99537735
H        0.41608196       1.84518356      -1.17530067
10
Frame=3 idx=004801 GeodesicLength=0.33356183395086203 rxn_smarts="[O:1]=[c:2]1[n:3]([H:7])[c:4]([H:8])[c:5]([H:9])[n:6]1[H:10]>>[N:3](=[C:4]=[C:5]([H:8])[H:9])[H:7].[O:1]=[C:2]=[N:6][H:10]"
O        2.64670368       0.76390993       0.65389064
C        1.64816032       1.00011991       0.11203539
N        0.27323054      -1.53732367      -0.26876844
C       -0.78236520      -0.91736692       0.05355062
C       -1.34581585       0.31028302       0.02919117
N        0.59506277       1.55574949      -0.20306261
H        0.18361417      -2.54527116      -0.26641801
H       -1.95343664      -1.20202642       0.04919109
H       -1.65383619       0.73159303       0.98546513
H        0.38868240       1.84033279      -1.14507498
10
Frame=4 idx=004801 GeodesicLength=0.4446994174062195 rxn_smarts="[O:1]=[c:2]1[n:3]([H:7])[c:4]([H:8])[c:5]([H:9])[n:6]1[H:10]>>[N:3](=[C:4]=[C:5]([H:8])[H:9])[H:7].[O:1]=[C:2]=[N:6][H:10]"
O        2.66187406       0.73847724       0.61055996
C        1.64040330       0.94097534       0.09352470
N        0.29326495      -1.49967719      -0.24623613
C       -0.78471673      -0.91335554       0.07466377
C       -1.34524985       0.31306387       0.03674047
N        0.59006659       1.53234695      -0.18348862
H        0.24390096      -2.51014737      -0.24342551
H       -1.97200819      -1.17572579      -0.00310538
H       -1.69137171       0.74006226       0.97624963
H        0.36383662       1.83398023      -1.11548289
10
Frame=5 idx=004801 GeodesicLength=0.5561931388365897 rxn_smarts="[O:1]=[c:2]1[n:3]([H:7])[c:4]([H:8])[c:5]([H:9])[n:6]1[H:10]>>[N:3](=[C:4]=[C:5]([H:8])[H:9])[H:7].[O:1]=[C:2]=[N:6][H:10]"
O        2.67444489       0.71444045       0.56763585
C        1.63115603       0.88660017       0.07864783
N        0.31192237      -1.46452510      -0.22264831
C       -0.78725914      -0.91007557       0.09316491
C       -1.34385587       0.31553188       0.04531836
N        0.58476230       1.50951150      -0.16526594
H        0.30048193      -2.47568254      -0.22315430
H       -1.98725707      -1.14800388      -0.05323663
H       -1.72552254       0.74717479       0.96762063
H        0.34112711       1.82502829      -1.08808240
10
Frame=6 idx=004801 GeodesicLength=0.6676712320744334 rxn_smarts="[O:1]=[c:2]1[n:3]([H:7])[c:4]([H:8])[c:5]([H:9])[n:6]1[H:10]>>[N:3](=[C:4]=[C:5]([H:8])[H:9])[H:7].[O:1]=[C:2]=[N:6][H:10]"
O        2.68488207       0.69070272       0.52394654
C        1.62103417       0.83616345       0.06621124
N        0.32899326      -1.43160106      -0.20081781
C       -0.79005814      -0.90753124       0.10771963
C       -1.34190676       0.31773246       0.05475637
N        0.57925349       1.48754454      -0.14750574
H        0.35470444      -2.44217777      -0.20004518
H       -2.00006818      -1.11873479      -0.10297911
H       -1.75667739       0.75223982       0.96016826
H        0.31984304       1.81566189      -1.06145419
10
Frame=7 idx=004801 GeodesicLength=0.7792452256273642 rxn_smarts="[O:1]=[c:2]1[n:3]([H:7])[c:4]([H:8])[c:5]([H:9])[n:6]1[H:10]>>[N:3](=[C:4]=[C:5]([H:8])[H:9])[H:7].[O:1]=[C:2]=[N:6][H:10]"
O        2.69307060       0.66788328       0.48064906
C        1.61035447       0.78919742       0.05581105
N        0.34493812      -1.40088493      -0.17961195
C       -0.79277698      -0.90562153       0.11949678
C       -1.33937174       0.31957443       0.06502160
N        0.57355416       1.46622225      -0.13059806
H        0.40628220      -2.40969955      -0.17666083
H       -2.01057930      -1.08790059      -0.15151866
H       -1.78521414       0.75588014       0.95350911
H        0.29974261       1.80534908      -1.03609810
10
Frame=8 idx=004801 GeodesicLength=0.8907996893088882 rxn_smarts="[O:1]=[c:2]1[n:3]([H:7])[c:4]([H:8])[c:5]([H:9])[n:6]1[H:10]>>[N:3](=[C:4]=[C:5]([H:8])[H:9])[H:7].[O:1]=[C:2]=[N:6][H:10]"
O        2.69940264       0.64552212       0.43726666
C        1.59930697       0.74520203       0.04688512
N        0.35983196      -1.37227581      -0.15941946
C       -0.79533610      -0.90443648       0.12825117
C       -1.33634315       0.32097899       0.07600804
N        0.56760906       1.44560894      -0.11421528
H        0.45562442      -2.37808941      -0.15146328
H       -2.01906361      -1.05541584      -0.19954151
H       -1.81146586       0.75796596       0.94773889
H        0.28043367       1.79493949      -1.01151034
10
Frame=9 idx=004801 GeodesicLength=1.0024226353154098 rxn_smarts="[O:1]=[c:2]1[n:3]([H:7])[c:4]([H:8])[c:5]([H:9])[n:6]1[H:10]>>[N:3](=[C:4]=[C:5]([H:8])[H:9])[H:7].[O:1]=[C:2]=[N:6][H:10]"
O        2.70386855       0.62423858       0.39471788
C        1.58811968       0.70390873       0.03927655
N        0.37403658      -1.34567435      -0.13904699
C       -0.79755268      -0.90386327       0.13506249
C       -1.33281889       0.32187951       0.08773616
N        0.56144955       1.42553153      -0.09872131
H        0.50241390      -2.34757640      -0.12687309
H       -2.02555401      -1.02129790      -0.24644738
H       -1.83573805       0.75903810       0.94250842
H        0.26177538       1.78381546      -0.98821274
10
Frame=10 idx=004801 GeodesicLength=1.1140795636221832 rxn_smarts="[O:1]=[c:2]1[n:3]([H:7])[c:4]([H:8])[c:5]([H:9])[n:6]1[H:10]>>[N:3](=[C:4]=[C:5]([H:8])[H:9])[H:7].[O:1]=[C:2]=[N:6][H:10]"
O        2.70685870       0.60379471       0.35192413
C        1.57690103       0.66492695       0.03263488
N        0.38763841      -1.32101807      -0.11835880
C       -0.79948892      -0.90390825       0.13981363
C       -1.32891222       0.32221056       0.10012389
N        0.55507556       1.40592393      -0.08365711
H        0.54698756      -2.31813866      -0.10162770
H       -2.03010423      -0.98531419      -0.29312696
H       -1.85848139       0.75893471       0.93772062
H        0.24352550       1.77258833      -0.96544658
10
Frame=11 idx=004801 GeodesicLength=1.2257843862507745 rxn_smarts="[O:1]=[c:2]1[n:3]([H:7])[c:4]([H:8])[c:5]([H:9])[n:6]1[H:10]>>[N:3](=[C:4]=[C:5]([H:8])[H:9])[H:7].[O:1]=[C:2]=[N:6][H:10]"
O        2.70845652       0.58414755       0.30884483
C        1.56572412       0.62800093       0.02664455
N        0.40076103      -1.29819632      -0.09696727
C       -0.80110246      -0.90456699       0.14268810
C       -1.32467529       0.32189891       0.11317284
N        0.54846478       1.38673279      -0.06899431
H        0.58943501      -2.28980038      -0.07582493
H       -2.03264297      -0.94730543      -0.33975383
H       -1.87990806       0.75771739       0.93330654
H        0.22548734       1.76137153      -0.94311651
10
Frame=12 idx=004801 GeodesicLength=1.3375591563977385 rxn_smarts="[O:1]=[c:2]1[n:3]([H:7])[c:4]([H:8])[c:5]([H:9])[n:6]1[H:10]>>[N:3](=[C:4]=[C:5]([H:8])[H:9])[H:7].[O:1]=[C:2]=[N:6][H:10]"
O        2.70870437       0.56528118       0.26537595
C        1.55464554       0.59289636       0.02086681
N        0.41351119      -1.27711912      -0.07433995
C       -0.80235407      -0.90580629       0.14381625
C       -1.32015031       0.32087914       0.12690428
N        0.54159744       1.36787229      -0.05469642
H        0.62981413      -2.26267163      -0.04950335
H       -2.03297976      -0.90702253      -0.38659583
H       -1.90022194       0.75539208       0.92919636
H        0.20743342       1.75029852      -0.92102411
10
Frame=13 idx=004801 GeodesicLength=1.4494074612919798 rxn_smarts="[O:1]=[c:2]1[n:3]([H:7])[c:4]([H:8])[c:5]([H:9])[n:6]1[H:10]>>[N:3](=[C:4]=[C:5]([H:8])[H:9])[H:7].[O:1]=[C:2]=[N:6][H:10]"
O        2.70754010       0.54715584       0.22169510
C        1.54368678       0.55939903       0.01474028
N        0.42595853      -1.25768168      -0.04991463
C       -0.80319384      -0.90761075       0.14330297
C       -1.31536654       0.31907283       0.14138205
N        0.53445430       1.34927217      -0.04084700
H        0.66817882      -2.23683651      -0.02282789
H       -2.03084772      -0.86417750      -0.43382967
H       -1.91952680       0.75194743       0.92541012
H        0.18911638       1.73945916      -0.89911133
10
Frame=14 idx=004801 GeodesicLength=1.561347579063771 rxn_smarts="[O:1]=[c:2]1[n:3]([H:7])[c:4]([H:8])[c:5]([H:9])[n:6]1[H:10]>>[N:3](=[C:4]=[C:5]([H:8])[H:9])[H:7].[O:1]=[C:2]=[N:6][H:10]"
O        2.70496145       0.52953449       0.17697073
C        1.53278336       0.52728331       0.00810548
N        0.43812873      -1.23975093      -0.02307960
C       -0.80363626      -0.90998579       0.14109125
C       -1.31042948       0.31636450       0.15656315
N        0.52702199       1.33086844      -0.02719126
H        0.70476661      -2.21223890       0.00456800
H       -2.02587679      -0.81840519      -0.48183967
H       -1.93814621       0.74726575       0.92177220
H        0.17042660       1.72906432      -0.87696028
10
Frame=15 idx=004801 GeodesicLength=1.673450737497173 rxn_smarts="[O:1]=[c:2]1[n:3]([H:7])[c:4]([H:8])[c:5]([H:9])[n:6]1[H:10]>>[N:3](=[C:4]=[C:5]([H:8])[H:9])[H:7].[O:1]=[C:2]=[N:6][H:10]"
O        2.70083948       0.51217528       0.13109923
C        1.52184722       0.49626688      -0.00005019
N        0.45000312      -1.22323387       0.00693759
C       -0.80360476      -0.91292552       0.13709152
C       -1.30538276       0.31262178       0.17250060
N        0.51928193       1.31253445      -0.01370240
H        0.73971341      -2.18886646       0.03300830
H       -2.01746122      -0.76918655      -0.53100314
H       -1.95625166       0.74115793       0.91825798
H        0.15101523       1.71945608      -0.85413949
10
Frame=16 idx=004801 GeodesicLength=1.7858298125022105 rxn_smarts="[O:1]=[c:2]1[n:3]([H:7])[c:4]([H:8])[c:5]([H:9])[n:6]1[H:10]>>[N:3](=[C:4]=[C:5]([H:8])[H:9])[H:7].[O:1]=[C:2]=[N:6][H:10]"
O        2.69500106       0.49470551       0.08373364
C        1.51065830       0.46605660      -0.01048029
N        0.46149424      -1.20794300       0.04094814
C       -0.80297040      -0.91641695       0.13130571
C       -1.30030516       0.30768482       0.18912492
N        0.51121602       1.29416301      -0.00025512
H        0.77323482      -2.16654912       0.06260052
H       -2.00487755      -0.71610829      -0.58139309
H       -1.97410671       0.73350951       0.91457723
H        0.13065539       1.71089791      -0.83016166
