12
Frame=0 idx=004668 GeodesicLength=0.0 rxn_smarts="[O:1]=[C:2]1[C:3]([H:7])([H:8])[C@@:4]2([H:9])[C:5]([H:10])([H:11])[C@@:6]12[H:12]>>[O:1]=[C:2]=[C:6]([C:5]([C:4](=[C:3]([H:7])[H:8])[H:9])([H:10])[H:11])[H:12]"
O       -1.54782726       1.72432701       0.74687655
C       -0.63559612       1.04911274       0.38330377
C       -1.09235034      -0.34101135      -0.76292386
C       -0.13768861      -0.97685694       0.01710850
C        1.21717888      -0.40151876      -0.10745766
C        0.70589751       0.82507296       0.60585100
H       -2.14546022      -0.53573911      -0.61114194
H       -0.80664266       0.01910980      -1.74571026
H       -0.38578849      -1.62057133       0.85138742
H        1.56137140      -0.26109666      -1.13527045
H        1.97929676      -0.91880502       0.47346765
H        1.28760919       1.43797662       1.28450928
12
Frame=1 idx=004668 GeodesicLength=0.05447516466120611 rxn_smarts="[O:1]=[C:2]1[C:3]([H:7])([H:8])[C@@:4]2([H:9])[C:5]([H:10])([H:11])[C@@:6]12[H:12]>>[O:1]=[C:2]=[C:6]([C:5]([C:4](=[C:3]([H:7])[H:8])[H:9])([H:10])[H:11])[H:12]"
O       -1.53658360       1.75951812       0.72914515
C       -0.63322620       1.06654204       0.37994791
C       -1.09556541      -0.34807099      -0.76321552
C       -0.13491656      -0.97436608       0.02091693
C        1.21846984      -0.39649153      -0.11099796
C        0.70166196       0.81641694       0.62096700
H       -2.14702386      -0.55122997      -0.60871483
H       -0.81680293      -0.00344112      -1.75375385
H       -0.37856516      -1.62373737       0.85209587
H        1.55362594      -0.24180340      -1.13934100
H        1.98503492      -0.91739991       0.46047394
H        1.28389105       1.41406327       1.31247637
12
Frame=2 idx=004668 GeodesicLength=0.10892894080643581 rxn_smarts="[O:1]=[C:2]1[C:3]([H:7])([H:8])[C@@:4]2([H:9])[C:5]([H:10])([H:11])[C@@:6]12[H:12]>>[O:1]=[C:2]=[C:6]([C:5]([C:4](=[C:3]([H:7])[H:8])[H:9])([H:10])[H:11])[H:12]"
O       -1.52430306       1.79475623       0.71167560
C       -0.63047544       1.08409045       0.37675116
C       -1.09884104      -0.35502875      -0.76350420
C       -0.13218985      -0.97195868       0.02443624
C        1.21963971      -0.39128177      -0.11436080
C        0.69707655       0.80767601       0.63588750
H       -2.14853646      -0.56673420      -0.60618159
H       -0.82703810      -0.02633820      -1.76160529
H       -0.37128454      -1.62733193       0.85220626
H        1.54583672      -0.22241575      -1.14295291
H        1.99052071      -0.91556909       0.44784286
H        1.27959480       1.39013568       1.33980518
12
Frame=3 idx=004668 GeodesicLength=0.16334866622405134 rxn_smarts="[O:1]=[C:2]1[C:3]([H:7])([H:8])[C@@:4]2([H:9])[C:5]([H:10])([H:11])[C@@:6]12[H:12]>>[O:1]=[C:2]=[C:6]([C:5]([C:4](=[C:3]([H:7])[H:8])[H:9])([H:10])[H:11])[H:12]"
O       -1.51105932       1.82982154       0.69481323
C       -0.62734936       1.10178433       0.37371070
C       -1.10215944      -0.36185441      -0.76384980
C       -0.12954519      -0.96961322       0.02768123
C        1.22067855      -0.38591823      -0.11751716
C        0.69214583       0.79889373       0.65054258
H       -2.14998421      -0.58224760      -0.60368385
H       -0.83727129      -0.04956221      -1.76929638
H       -0.36402202      -1.63129045       0.85174418
H        1.53802920      -0.20305026      -1.14608875
H        1.99571723      -0.91333123       0.43566942
H        1.27482002       1.36636800       1.36627459
12
Frame=4 idx=004668 GeodesicLength=0.21777869687977688 rxn_smarts="[O:1]=[C:2]1[C:3]([H:7])([H:8])[C@@:4]2([H:9])[C:5]([H:10])([H:11])[C@@:6]12[H:12]>>[O:1]=[C:2]=[C:6]([C:5]([C:4](=[C:3]([H:7])[H:8])[H:9])([H:10])[H:11])[H:12]"
O       -1.49692867       1.86466532       0.67871059
C       -0.62386808       1.11963681       0.37085186
C       -1.10552716      -0.36854002      -0.76428858
C       -0.12700418      -0.96733441       0.03066673
C        1.22159190      -0.38041913      -0.12045304
C        0.68688174       0.79010408       0.66489562
H       -2.15138325      -0.59780268      -0.60131507
H       -0.84747003      -0.07308975      -1.77683558
H       -0.35681009      -1.63560553       0.85073104
H        1.53022182      -0.18376400      -1.14875006
H        2.00063576      -0.91071261       0.42400099
H        1.26966023       1.34286192       1.39178548
12
Frame=5 idx=004668 GeodesicLength=0.272073193451215 rxn_smarts="[O:1]=[C:2]1[C:3]([H:7])([H:8])[C@@:4]2([H:9])[C:5]([H:10])([H:11])[C@@:6]12[H:12]>>[O:1]=[C:2]=[C:6]([C:5]([C:4](=[C:3]([H:7])[H:8])[H:9])([H:10])[H:11])[H:12]"
O       -1.48182718       1.89916234       0.66355398
C       -0.62002041       1.13762286       0.36819976
C       -1.10888342      -0.37508419      -0.76484226
C       -0.12458025      -0.96506968       0.03340438
C        1.22232335      -0.37478994      -0.12317619
C        0.68123557       0.78132684       0.67889302
H       -2.15262427      -0.61341473      -0.59914034
H       -0.85756156      -0.09694886      -1.78422062
H       -0.34967093      -1.64013808       0.84918610
H        1.52236260      -0.16465354      -1.15095849
H        2.00517992      -0.90768358       0.41284153
H        1.26406658       1.31967056       1.41625913
12
Frame=6 idx=004668 GeodesicLength=0.32645299341320455 rxn_smarts="[O:1]=[C:2]1[C:3]([H:7])([H:8])[C@@:4]2([H:9])[C:5]([H:10])([H:11])[C@@:6]12[H:12]>>[O:1]=[C:2]=[C:6]([C:5]([C:4](=[C:3]([H:7])[H:8])[H:9])([H:10])[H:11])[H:12]"
O       -1.46578891       1.93373022       0.64886255
C       -0.61587908       1.15572625       0.36584760
C       -1.11233113      -0.38153242      -0.76547362
C       -0.12224736      -0.96289943       0.03590799
C        1.22294557      -0.36899757      -0.12572144
C        0.67525811       0.77257265       0.69258272
H       -2.15385266      -0.62919113      -0.59707206
H       -0.86767792      -0.12111995      -1.79141378
H       -0.34250787      -1.64506118       0.84713015
H        1.51447073      -0.14556212      -1.15277914
H        2.00954050      -0.90425410       0.40210467
H        1.25807002       1.29658877       1.44002434
12
Frame=7 idx=004668 GeodesicLength=0.38081677803115527 rxn_smarts="[O:1]=[C:2]1[C:3]([H:7])([H:8])[C@@:4]2([H:9])[C:5]([H:10])([H:11])[C@@:6]12[H:12]>>[O:1]=[C:2]=[C:6]([C:5]([C:4](=[C:3]([H:7])[H:8])[H:9])([H:10])[H:11])[H:12]"
O       -1.44853816       1.96879601       0.63410450
C       -0.61147236       1.17384034       0.36394762
C       -1.11583782      -0.38795839      -0.76609110
C       -0.11994723      -0.96082118       0.03815518
C        1.22338311      -0.36297651      -0.12816010
C        0.66888559       0.76378534       0.70602803
H       -2.15493612      -0.64522175      -0.59493391
H       -0.87786352      -0.14569473      -1.79830149
H       -0.33514073      -1.65035701       0.84448722
H        1.50637069      -0.12637038      -1.15427648
H        2.01367300      -0.90031015       0.39159620
H        1.25142355       1.27328842       1.46344433
12
Frame=8 idx=004668 GeodesicLength=0.43528282583847655 rxn_smarts="[O:1]=[C:2]1[C:3]([H:7])([H:8])[C@@:4]2([H:9])[C:5]([H:10])([H:11])[C@@:6]12[H:12]>>[O:1]=[C:2]=[C:6]([C:5]([C:4](=[C:3]([H:7])[H:8])[H:9])([H:10])[H:11])[H:12]"
O       -1.43016301       2.00420166       0.61952636
C       -0.60683934       1.19202812       0.36246986
C       -1.11945204      -0.39434054      -0.76676047
C       -0.11771813      -0.95884506       0.04018139
C        1.22369363      -0.35674978      -0.13046450
C        0.66216054       0.75502964       0.71916827
H       -2.15598103      -0.66153026      -0.59285300
H       -0.88811515      -0.17062693      -1.80494744
H       -0.32765608      -1.65603470       0.84133895
H        1.49815957      -0.10712935      -1.15545308
H        2.01765863      -0.89590452       0.38141443
H        1.24425241       1.24990172       1.48637924
12
Frame=9 idx=004668 GeodesicLength=0.48972507460708875 rxn_smarts="[O:1]=[C:2]1[C:3]([H:7])([H:8])[C@@:4]2([H:9])[C:5]([H:10])([H:11])[C@@:6]12[H:12]>>[O:1]=[C:2]=[C:6]([C:5]([C:4](=[C:3]([H:7])[H:8])[H:9])([H:10])[H:11])[H:12]"
O       -1.41056771       2.03969335       0.60547894
C       -0.60195456       1.21030348       0.36140158
C       -1.12311363      -0.40067220      -0.76753816
C       -0.11558867      -0.95690329       0.04199370
C        1.22381099      -0.35033149      -0.13263157
C        0.65504342       0.74635551       0.73193300
H       -2.15688038      -0.67812177      -0.59094285
H       -0.89833934      -0.19597543      -1.81137347
H       -0.32010819      -1.66191562       0.83771504
H        1.48978824      -0.08796983      -1.15631164
H        2.02137356      -0.89101679       0.37160266
H        1.23653628       1.22655410       1.50867276
12
Frame=10 idx=004668 GeodesicLength=0.5442361258977975 rxn_smarts="[O:1]=[C:2]1[C:3]([H:7])([H:8])[C@@:4]2([H:9])[C:5]([H:10])([H:11])[C@@:6]12[H:12]>>[O:1]=[C:2]=[C:6]([C:5]([C:4](=[C:3]([H:7])[H:8])[H:9])([H:10])[H:11])[H:12]"
O       -1.38968141       2.07571139       0.59135942
C       -0.59690158       1.22862205       0.36087099
C       -1.12688797      -0.40700281      -0.76834251
C       -0.11352104      -0.95505508       0.04359832
C        1.22376495      -0.34366886      -0.13470330
C        0.64756671       0.73771634       0.74441630
H       -2.15768548      -0.69509853      -0.58906018
H       -0.90864178      -0.22172916      -1.81749366
H       -0.31237303      -1.66813965       0.83358270
H        1.48121118      -0.06869147      -1.15690172
H        2.02494311      -0.88561869       0.36201673
H        1.22820633       1.20295447       1.53065691
12
Frame=11 idx=004668 GeodesicLength=0.5987936095679942 rxn_smarts="[O:1]=[C:2]1[C:3]([H:7])([H:8])[C@@:4]2([H:9])[C:5]([H:10])([H:11])[C@@:6]12[H:12]>>[O:1]=[C:2]=[C:6]([C:5]([C:4](=[C:3]([H:7])[H:8])[H:9])([H:10])[H:11])[H:12]"
O       -1.36755386       2.11180956       0.57791370
C       -0.59166956       1.24705930       0.36080130
C       -1.13072709      -0.41330741      -0.76930950
C       -0.11157825      -0.95323713       0.04501677
C        1.22351977      -0.33682281      -0.13664084
C        0.63970685       0.72920004       0.75648555
H       -2.15834919      -0.71243790      -0.58744600
H       -0.91886833      -0.24791753      -1.82340800
H       -0.30459549      -1.67451129       0.82903919
H        1.47246982      -0.04952626      -1.15720485
H        2.02825221      -0.87976056       0.35282254
H        1.21939312       1.17945198       1.55193013
12
Frame=12 idx=004668 GeodesicLength=0.6533866212532788 rxn_smarts="[O:1]=[C:2]1[C:3]([H:7])([H:8])[C@@:4]2([H:9])[C:5]([H:10])([H:11])[C@@:6]12[H:12]>>[O:1]=[C:2]=[C:6]([C:5]([C:4](=[C:3]([H:7])[H:8])[H:9])([H:10])[H:11])[H:12]"
O       -1.34397958       2.14839216       0.56446613
C       -0.58632264       1.26553524       0.36134926
C       -1.13467380      -0.41964274      -0.77033766
C       -0.10972082      -0.95148963       0.04624653
C        1.22306924      -0.32972237      -0.13848780
C        0.63145988       0.72074146       0.76826992
H       -2.15886950      -0.73024210      -0.58593498
H       -0.92912765      -0.27454015      -1.82900469
H       -0.29664224      -1.68114700       0.82401055
H        1.46346531      -0.03025032      -1.15725703
H        2.03137941      -0.87337299       0.34384606
H        1.20996239       1.15573845       1.57283371
12
Frame=13 idx=004668 GeodesicLength=0.7080352136167436 rxn_smarts="[O:1]=[C:2]1[C:3]([H:7])([H:8])[C@@:4]2([H:9])[C:5]([H:10])([H:11])[C@@:6]12[H:12]>>[O:1]=[C:2]=[C:6]([C:5]([C:4](=[C:3]([H:7])[H:8])[H:9])([H:10])[H:11])[H:12]"
O       -1.31903583       2.18514193       0.55157103
C       -0.58087731       1.28411305       0.36246280
C       -1.13870902      -0.42599841      -0.77154449
C       -0.10800108      -0.94978212       0.04730767
C        1.22240815      -0.32242100      -0.14021561
C        0.62281808       0.71241091       0.77967225
H       -2.15924878      -0.74851009      -0.58470888
H       -0.93931039      -0.30158864      -1.83436792
H       -0.28863947      -1.68792921       0.81859909
H        1.45426107      -0.01103140      -1.15705598
H        2.03426959      -0.86651381       0.33522447
H        1.20006498       1.13210879       1.59305557
12
Frame=14 idx=004668 GeodesicLength=0.7627242096423145 rxn_smarts="[O:1]=[C:2]1[C:3]([H:7])([H:8])[C@@:4]2([H:9])[C:5]([H:10])([H:11])[C@@:6]12[H:12]>>[O:1]=[C:2]=[C:6]([C:5]([C:4](=[C:3]([H:7])[H:8])[H:9])([H:10])[H:11])[H:12]"
O       -1.29241731       2.22236432       0.53869736
C       -0.57540539       1.30271020       0.36430833
C       -1.14286176      -0.43244556      -0.77285620
C       -0.10638542      -0.94812599       0.04819122
C        1.22148605      -0.31484544      -0.14185807
C        0.61375513       0.70414562       0.79079505
H       -2.15943110      -0.76732940      -0.58365694
H       -0.94949235      -0.32910870      -1.83941611
H       -0.28044094      -1.69488532       0.81272571
H        1.44470883       0.00830822      -1.15662018
H        2.03693316      -0.85908415       0.32681141
H        1.18955109       1.10829621       1.61287842
12
Frame=15 idx=004668 GeodesicLength=0.817453715612093 rxn_smarts="[O:1]=[C:2]1[C:3]([H:7])([H:8])[C@@:4]2([H:9])[C:5]([H:10])([H:11])[C@@:6]12[H:12]>>[O:1]=[C:2]=[C:6]([C:5]([C:4](=[C:3]([H:7])[H:8])[H:9])([H:10])[H:11])[H:12]"
O       -1.26424085       2.25978949       0.52624564
C       -0.56990494       1.32140961       0.36680828
C       -1.14711881      -0.43897340      -0.77435342
C       -0.10491728      -0.94649594       0.04892764
C        1.22031503      -0.30703740      -0.14340428
C        0.60428387       0.69601464       0.80155900
H       -2.15943479      -0.78668566      -0.58289153
H       -0.95958225      -0.35709054      -1.84420202
H       -0.27216190      -1.70193147       0.80649397
H        1.43487578       0.02765432      -1.15596351
H        2.03935356      -0.85114644       0.31868911
H        1.17853259       1.08449278       1.63209113
12
Frame=16 idx=004668 GeodesicLength=0.8721898507333015 rxn_smarts="[O:1]=[C:2]1[C:3]([H:7])([H:8])[C@@:4]2([H:9])[C:5]([H:10])([H:11])[C@@:6]12[H:12]>>[O:1]=[C:2]=[C:6]([C:5]([C:4](=[C:3]([H:7])[H:8])[H:9])([H:10])[H:11])[H:12]"
O       -1.23458417       2.29723208       0.51445484
C       -0.56436354       1.34025541       0.36992427
C       -1.15146738      -0.44559621      -0.77608711
C       -0.10362789      -0.94486209       0.04954204
C        1.21887894      -0.29902258      -0.14485043
C        0.59441916       0.68805527       0.81192474
H       -2.15923508      -0.80657384      -0.58249467
H       -0.96951021      -0.38553170      -1.84875029
H       -0.26386830      -1.70896679       0.79997340
H        1.42476837       0.04693246      -1.15509845
H        2.04149084      -0.84273852       0.31089307
H        1.16709925       1.06081650       1.65056859
