12
Frame=0 idx=011943 GeodesicLength=0.0 rxn_smarts="[N:1]([c:2]1[c:3]([H:10])[n:4]([H:11])[c:5]([O:6][H:12])[n:7]1)([H:8])[H:9]>>[N:1]([n+:7]1[c-:2][c:3]([H:10])[n:4]([H:11])[c:5]1[O:6][H:12])([H:8])[H:9]"
N        2.09011398       1.37946718      -0.49703210
C        0.89031273      -0.72729493      -0.01435036
C        0.02970267      -1.77335989       0.04055055
N       -1.24479871      -1.18157358       0.10315722
C       -1.04088500       0.14619325       0.08112658
O       -2.05777630       1.00865568       0.13703464
N        0.23833462       0.39686780       0.02492075
H        2.64295080       2.25672584      -0.49631200
H        2.14038006       1.07295527       0.47112462
H        0.15926708      -2.84058704       0.03492697
H       -2.14467439      -1.63209178       0.10053196
H       -1.70292759       1.89404217       0.01432117
12
Frame=1 idx=011943 GeodesicLength=0.08587452458121873 rxn_smarts="[N:1]([c:2]1[c:3]([H:10])[n:4]([H:11])[c:5]([O:6][H:12])[n:7]1)([H:8])[H:9]>>[N:1]([n+:7]1[c-:2][c:3]([H:10])[n:4]([H:11])[c:5]1[O:6][H:12])([H:8])[H:9]"
N        2.03989880       1.36306388      -0.47317701
C        0.89735199      -0.70623820       0.00317707
C        0.04100468      -1.75772412       0.01361066
N       -1.23899132      -1.17866950       0.08891861
C       -1.04666473       0.14988300       0.09999207
O       -2.06871234       1.00737733       0.11796393
N        0.23180343       0.41172879       0.10984883
H        2.66502330       2.18228568      -0.56561056
H        2.14577540       1.09607609       0.50193205
H        0.17922546      -2.82388773      -0.00091048
H       -2.13458977      -1.63697354       0.10143442
H       -1.71112492       1.89307832       0.00282041
12
Frame=2 idx=011943 GeodesicLength=0.17228033271527182 rxn_smarts="[N:1]([c:2]1[c:3]([H:10])[n:4]([H:11])[c:5]([O:6][H:12])[n:7]1)([H:8])[H:9]>>[N:1]([n+:7]1[c-:2][c:3]([H:10])[n:4]([H:11])[c:5]1[O:6][H:12])([H:8])[H:9]"
N        1.99106388       1.34835170      -0.44712887
C        0.90542063      -0.68598292       0.02756310
C        0.05361782      -1.74122764      -0.00795498
N       -1.23212938      -1.17493531       0.07251125
C       -1.05100091       0.15346786       0.11737574
O       -2.07532538       1.00781745       0.10241733
N        0.22460753       0.42333471       0.18250466
H        2.67715448       2.09610377      -0.63603405
H        2.14363056       1.12663422       0.53275786
H        0.19988477      -2.80598081      -0.03855727
H       -2.12318871      -1.64104955       0.09789255
H       -1.71373527       1.89346654      -0.00334731
12
Frame=3 idx=011943 GeodesicLength=0.25931136362321044 rxn_smarts="[N:1]([c:2]1[c:3]([H:10])[n:4]([H:11])[c:5]([O:6][H:12])[n:7]1)([H:8])[H:9]>>[N:1]([n+:7]1[c-:2][c:3]([H:10])[n:4]([H:11])[c:5]1[O:6][H:12])([H:8])[H:9]"
N        1.94339125       1.33649683      -0.42078839
C        0.91418339      -0.66607509       0.05286801
C        0.06749116      -1.72367437      -0.02573406
N       -1.22397173      -1.17037884       0.06000518
C       -1.05431096       0.15713446       0.13551578
O       -2.07913887       1.00945577       0.09210463
N        0.21722854       0.43349497       0.24631980
H        2.67949775       1.99910691      -0.70361189
H        2.13806877       1.16073441       0.56058066
H        0.22165691      -2.78676644      -0.07336762
H       -2.11081654      -1.64405745       0.08328319
H       -1.71327968       1.89452883      -0.00717529
12
Frame=4 idx=011943 GeodesicLength=0.346915169854638 rxn_smarts="[N:1]([c:2]1[c:3]([H:10])[n:4]([H:11])[c:5]([O:6][H:12])[n:7]1)([H:8])[H:9]>>[N:1]([n+:7]1[c-:2][c:3]([H:10])[n:4]([H:11])[c:5]1[O:6][H:12])([H:8])[H:9]"
N        1.89736121       1.33035988      -0.39377489
C        0.92314311      -0.64474700       0.07279221
C        0.08271781      -1.70441729      -0.04397528
N       -1.21470693      -1.16531926       0.04839874
C       -1.05765970       0.16102954       0.14989045
O       -2.08288247       1.01110706       0.08490905
N        0.20902980       0.44405315       0.29888891
H        2.67936572       1.88695285      -0.76179652
H        2.12853337       1.19796254       0.58615195
H        0.24564774      -2.76557875      -0.10563335
H       -2.09687686      -1.64731403       0.07240903
H       -1.71367280       1.89591130      -0.00826030
12
Frame=5 idx=011943 GeodesicLength=0.43590459999932873 rxn_smarts="[N:1]([c:2]1[c:3]([H:10])[n:4]([H:11])[c:5]([O:6][H:12])[n:7]1)([H:8])[H:9]>>[N:1]([n+:7]1[c-:2][c:3]([H:10])[n:4]([H:11])[c:5]1[O:6][H:12])([H:8])[H:9]"
N        1.85489951       1.32150374      -0.37008315
C        0.93309631      -0.62577834       0.09725641
C        0.09836483      -1.68539234      -0.05884823
N       -1.20450366      -1.15928355       0.03690038
C       -1.05911117       0.16510537       0.16468412
O       -2.08313814       1.01432501       0.07873769
N        0.20245007       0.45322412       0.34774334
H        2.66117197       1.77571880      -0.81335222
H        2.12009676       1.23510734       0.60598861
H        0.26898268      -2.74445100      -0.13516914
H       -2.08262596      -1.64844693       0.05384707
H       -1.70968321       1.89836777      -0.00770487
12
Frame=6 idx=011943 GeodesicLength=0.5263701728300209 rxn_smarts="[N:1]([c:2]1[c:3]([H:10])[n:4]([H:11])[c:5]([O:6][H:12])[n:7]1)([H:8])[H:9]>>[N:1]([n+:7]1[c-:2][c:3]([H:10])[n:4]([H:11])[c:5]1[O:6][H:12])([H:8])[H:9]"
N        1.81545948       1.31171347      -0.34917945
C        0.94336225      -0.60778681       0.12421570
C        0.11441187      -1.66590913      -0.07120431
N       -1.19367402      -1.15288590       0.02899075
C       -1.05998871       0.16927993       0.17990013
O       -2.08221296       1.01810727       0.07490368
N        0.19640937       0.46257490       0.39157915
H        2.63473328       1.66128165      -0.85491363
H        2.11095961       1.27365548       0.62088918
H        0.29263736      -2.72183971      -0.17052481
H       -2.06782170      -1.64883866       0.03674663
H       -1.70427584       1.90064752      -0.01140303
12
Frame=7 idx=011943 GeodesicLength=0.6179391213345032 rxn_smarts="[N:1]([c:2]1[c:3]([H:10])[n:4]([H:11])[c:5]([O:6][H:12])[n:7]1)([H:8])[H:9]>>[N:1]([n+:7]1[c-:2][c:3]([H:10])[n:4]([H:11])[c:5]1[O:6][H:12])([H:8])[H:9]"
N        1.77879397       1.29906097      -0.33162699
C        0.95390768      -0.59212289       0.15357043
C        0.13027131      -1.64723978      -0.07961819
N       -1.18266811      -1.14641411       0.02458989
C       -1.06007878       0.17322396       0.19683765
O       -2.07943048       1.02276712       0.07233593
N        0.19150731       0.47115737       0.43270396
H        2.59824331       1.55249429      -0.88849642
H        2.10332139       1.31069041       0.62945038
H        0.31574343      -2.69902246      -0.20679633
H       -2.05352649      -1.64766790       0.01472852
H       -1.69608455       1.90307301      -0.01767882
12
Frame=8 idx=011943 GeodesicLength=0.7106741365377643 rxn_smarts="[N:1]([c:2]1[c:3]([H:10])[n:4]([H:11])[c:5]([O:6][H:12])[n:7]1)([H:8])[H:9]>>[N:1]([n+:7]1[c-:2][c:3]([H:10])[n:4]([H:11])[c:5]1[O:6][H:12])([H:8])[H:9]"
N        1.74535681       1.28357649      -0.31802815
C        0.96405288      -0.57789471       0.18413581
C        0.14592421      -1.62908431      -0.08542847
N       -1.17147498      -1.13994837       0.02024007
C       -1.05960085       0.17730066       0.20931747
O       -2.07617822       1.02710358       0.06895607
N        0.18682640       0.48019355       0.46756577
H        2.55899977       1.44639635      -0.91309495
H        2.09472518       1.34790749       0.63180968
H        0.33860195      -2.67585243      -0.24022080
H       -2.03895692      -1.64584660      -0.00836678
H       -1.68827622       1.90614831      -0.01688571
12
Frame=9 idx=011943 GeodesicLength=0.8043004469853601 rxn_smarts="[N:1]([c:2]1[c:3]([H:10])[n:4]([H:11])[c:5]([O:6][H:12])[n:7]1)([H:8])[H:9]>>[N:1]([n+:7]1[c-:2][c:3]([H:10])[n:4]([H:11])[c:5]1[O:6][H:12])([H:8])[H:9]"
N        1.71451009       1.26541013      -0.30698908
C        0.97384367      -0.56512196       0.21657661
C        0.16127371      -1.61187779      -0.08681837
N       -1.16053176      -1.13372838       0.01821775
C       -1.05904619       0.18130862       0.22062539
O       -2.07285894       1.03141468       0.06482179
N        0.18236471       0.48946450       0.49887616
H        2.51781603       1.34423072      -0.92986539
H        2.08632059       1.38417171       0.62859801
H        0.36159456      -2.65115748      -0.27804030
H       -2.02459048      -1.64354437      -0.02993273
H       -1.68069598       1.90942962      -0.01606986
12
Frame=10 idx=011943 GeodesicLength=0.8986767077933833 rxn_smarts="[N:1]([c:2]1[c:3]([H:10])[n:4]([H:11])[c:5]([O:6][H:12])[n:7]1)([H:8])[H:9]>>[N:1]([n+:7]1[c-:2][c:3]([H:10])[n:4]([H:11])[c:5]1[O:6][H:12])([H:8])[H:9]"
N        1.68492405       1.24596455      -0.29702554
C        0.98321208      -0.55398038       0.24767856
C        0.17580327      -1.59592446      -0.08610756
N       -1.14991182      -1.12787869       0.01800434
C       -1.05816230       0.18489256       0.23270716
O       -2.06844618       1.03594460       0.06207001
N        0.17851671       0.49795819       0.52827252
H        2.47310317       1.25007023      -0.94133882
H        2.07923454       1.41715554       0.62061576
H        0.38373113      -2.62641530      -0.31336967
H       -2.01053096      -1.64014648      -0.05451093
H       -1.67147371       1.91235965      -0.01699585
12
Frame=11 idx=011943 GeodesicLength=0.9935457279271063 rxn_smarts="[N:1]([c:2]1[c:3]([H:10])[n:4]([H:11])[c:5]([O:6][H:12])[n:7]1)([H:8])[H:9]>>[N:1]([n+:7]1[c-:2][c:3]([H:10])[n:4]([H:11])[c:5]1[O:6][H:12])([H:8])[H:9]"
N        1.65702055       1.22500437      -0.28797959
C        0.99209419      -0.54407498       0.27839819
C        0.18962720      -1.58126865      -0.08249728
N       -1.13977702      -1.12242130       0.01904089
C       -1.05724245       0.18823396       0.24392870
O       -2.06378639       1.04038681       0.05896483
N        0.17487401       0.50620507       0.55523134
H        2.42785215       1.16169044      -0.94765233
H        2.07261877       1.44790213       0.60849010
H        0.40545719      -2.60048279      -0.34970041
H       -1.99672133      -1.63632904      -0.07819608
H       -1.66201688       1.91515398      -0.01802835
12
Frame=12 idx=011943 GeodesicLength=1.0888499201491324 rxn_smarts="[N:1]([c:2]1[c:3]([H:10])[n:4]([H:11])[c:5]([O:6][H:12])[n:7]1)([H:8])[H:9]>>[N:1]([n+:7]1[c-:2][c:3]([H:10])[n:4]([H:11])[c:5]1[O:6][H:12])([H:8])[H:9]"
N        1.63055397       1.20289546      -0.27932590
C        1.00045585      -0.53526723       0.30841179
C        0.20269880      -1.56789606      -0.07667137
N       -1.13014378      -1.11739278       0.02101833
C       -1.05632152       0.19130958       0.25427350
O       -2.05887036       1.04469527       0.05534762
N        0.17135472       0.51414077       0.58006037
H        2.38269066       1.07880852      -0.94959763
H        2.06629376       1.47632823       0.59281779
H        0.42672300      -2.57311706      -0.38674128
H       -1.98313660      -1.63232674      -0.10041834
H       -1.65229851       1.91782204      -0.01917487
12
Frame=13 idx=011943 GeodesicLength=1.184546940425186 rxn_smarts="[N:1]([c:2]1[c:3]([H:10])[n:4]([H:11])[c:5]([O:6][H:12])[n:7]1)([H:8])[H:9]>>[N:1]([n+:7]1[c-:2][c:3]([H:10])[n:4]([H:11])[c:5]1[O:6][H:12])([H:8])[H:9]"
N        1.60530646       1.18001359      -0.27071994
C        1.00835960      -0.52745090       0.33738959
C        0.21505800      -1.55568646      -0.06951541
N       -1.12098894      -1.11278332       0.02362936
C       -1.05540943       0.19408973       0.26392041
O       -2.05371855       1.04887290       0.05148883
N        0.16796573       0.52167076       0.60309582
H        2.33785483       1.00118576      -0.94807421
H        2.06019231       1.50239649       0.57404062
H        0.44744733      -2.54451943      -0.42319587
H       -1.96974082      -1.62813324      -0.12179877
H       -1.64232651       1.92034414      -0.02026043
12
Frame=14 idx=011943 GeodesicLength=1.2806529004021778 rxn_smarts="[N:1]([c:2]1[c:3]([H:10])[n:4]([H:11])[c:5]([O:6][H:12])[n:7]1)([H:8])[H:9]>>[N:1]([n+:7]1[c-:2][c:3]([H:10])[n:4]([H:11])[c:5]1[O:6][H:12])([H:8])[H:9]"
N        1.58125081       1.15643510      -0.26199072
C        1.01578165      -0.52049095       0.36556946
C        0.22674073      -1.54454092      -0.06121508
N       -1.11229595      -1.10858217       0.02676957
C       -1.05453619       0.19660209       0.27275606
O       -2.04839678       1.05284770       0.04712567
N        0.16462696       0.52888016       0.62445315
H        2.29389707       0.92794391      -0.94344910
H        2.05403457       1.52635463       0.55243497
H        0.46770983      -2.51422519      -0.45958805
H       -1.95652106      -1.62396021      -0.14179640
H       -1.63229165       1.92273585      -0.02106952
12
Frame=15 idx=011943 GeodesicLength=1.3770937176364 rxn_smarts="[N:1]([c:2]1[c:3]([H:10])[n:4]([H:11])[c:5]([O:6][H:12])[n:7]1)([H:8])[H:9]>>[N:1]([n+:7]1[c-:2][c:3]([H:10])[n:4]([H:11])[c:5]1[O:6][H:12])([H:8])[H:9]"
N        1.55817474       1.13274672      -0.25267234
C        1.02286380      -0.51437249       0.39225568
C        0.23780710      -1.53423675      -0.05307544
N       -1.10402937      -1.10474867       0.03004460
C       -1.05366950       0.19879897       0.28108670
O       -2.04280780       1.05673543       0.04271374
N        0.16142851       0.53552587       0.64453398
H        2.25042463       0.85962972      -0.93657266
H        2.04796859       1.54794839       0.52870221
H        0.48723282      -2.48321461      -0.49413700
H       -1.94351870      -1.61974490      -0.16082682
H       -1.62187481       1.92493232      -0.02205266
12
Frame=16 idx=011943 GeodesicLength=1.4738413011266676 rxn_smarts="[N:1]([c:2]1[c:3]([H:10])[n:4]([H:11])[c:5]([O:6][H:12])[n:7]1)([H:8])[H:9]>>[N:1]([n+:7]1[c-:2][c:3]([H:10])[n:4]([H:11])[c:5]1[O:6][H:12])([H:8])[H:9]"
N        1.53601701       1.10921867      -0.24250932
C        1.02966860      -0.50903569       0.41736206
C        0.24830460      -1.52463912      -0.04547441
N       -1.09616112      -1.10124448       0.03328775
C       -1.05279937       0.20068502       0.28896182
O       -2.03690974       1.06056367       0.03824226
N        0.15836889       0.54155223       0.66356218
H        2.20740325       0.79611145      -0.92792893
H        2.04192097       1.56725781       0.50332962
H        0.50593586      -2.45178479      -0.52678379
H       -1.93080089      -1.61558498      -0.17858865
H       -1.61094804       1.92690022      -0.02346058
