10
Frame=0 idx=003195 GeodesicLength=0.0 rxn_smarts="[O:1]([C:2]([C:3](=[O:4])[H:9])([C:5](=[O:6])[H:10])[H:8])[H:7]>>[O:1](/[C:2](=[C:3](/[O:4][H:8])[H:9])[C:5](=[O:6])[H:10])[H:7]"
O       -0.21968666      -1.25396705      -1.16980930
C        0.10410276      -0.24357289      -0.32343028
C        1.11839072      -0.37609232       0.66934956
O        1.71386858       0.72718675       0.80957133
C       -1.01184193       0.63573746       0.04863107
O       -2.07166133       0.53570712      -0.53034728
H       -1.15921710      -1.12508146      -1.38099033
H        0.97777018       0.97446769      -0.24404020
H        1.38259177      -1.24521169       1.27104787
H       -0.83431698       1.37082638       0.85001756
10
Frame=1 idx=003195 GeodesicLength=0.034068968216718946 rxn_smarts="[O:1]([C:2]([C:3](=[O:4])[H:9])([C:5](=[O:6])[H:10])[H:8])[H:7]>>[O:1](/[C:2](=[C:3](/[O:4][H:8])[H:9])[C:5](=[O:6])[H:10])[H:7]"
O       -0.21692529      -1.25478474      -1.16005277
C        0.10399194      -0.23634465      -0.32072038
C        1.10819969      -0.37543997       0.68265550
O        1.71634156       0.72218574       0.82134178
C       -1.01867539       0.63789825       0.04732829
O       -2.07601754       0.53321451      -0.53453276
H       -1.15755589      -1.13351129      -1.36968173
H        0.98365796       0.98361342      -0.24040862
H        1.39776328      -1.26559555       1.24000947
H       -0.84078032       1.38876428       0.83406122
10
Frame=2 idx=003195 GeodesicLength=0.06817574691198344 rxn_smarts="[O:1]([C:2]([C:3](=[O:4])[H:9])([C:5](=[O:6])[H:10])[H:8])[H:7]>>[O:1](/[C:2](=[C:3](/[O:4][H:8])[H:9])[C:5](=[O:6])[H:10])[H:7]"
O       -0.21398782      -1.25520138      -1.15073129
C        0.10384929      -0.22940034      -0.31763829
C        1.09791192      -0.37528208       0.69628481
O        1.71864994       0.71668447       0.83337187
C       -1.02544326       0.63997088       0.04617477
O       -2.08022848       0.53074420      -0.53867581
H       -1.15592109      -1.14208047      -1.35789348
H        0.98980657       0.99231116      -0.23665548
H        1.41243126      -1.28417620       1.20792585
H       -0.84706833       1.40642975       0.81783706
10
Frame=3 idx=003195 GeodesicLength=0.10215842920625182 rxn_smarts="[O:1]([C:2]([C:3](=[O:4])[H:9])([C:5](=[O:6])[H:10])[H:8])[H:7]>>[O:1](/[C:2](=[C:3](/[O:4][H:8])[H:9])[C:5](=[O:6])[H:10])[H:7]"
O       -0.21088362      -1.25510421      -1.14207749
C        0.10377927      -0.22263713      -0.31444444
C        1.08786939      -0.37564352       0.70969484
O        1.72089458       0.71069978       0.84547189
C       -1.03203944       0.64182178       0.04522519
O       -2.08427706       0.52812815      -0.54255358
H       -1.15434425      -1.15074280      -1.34566335
H        0.99621326       1.00069546      -0.23285157
H        1.42581773      -1.30068354       1.17563426
H       -0.85302984       1.42346603       0.80156426
10
Frame=4 idx=003195 GeodesicLength=0.13655042590158128 rxn_smarts="[O:1]([C:2]([C:3](=[O:4])[H:9])([C:5](=[O:6])[H:10])[H:8])[H:7]>>[O:1](/[C:2](=[C:3](/[O:4][H:8])[H:9])[C:5](=[O:6])[H:10])[H:7]"
O       -0.20748104      -1.25448338      -1.13436540
C        0.10390344      -0.21597939      -0.31138180
C        1.07834028      -0.37666509       0.72251272
O        1.72318159       0.70427616       0.85748129
C       -1.03851515       0.64346488       0.04457568
O       -2.08827382       0.52536793      -0.54598160
H       -1.15277174      -1.15964628      -1.33295656
H        1.00291005       1.00902875      -0.22911497
H        1.43746196      -1.31525842       1.14380038
H       -0.85875558       1.43989484       0.78543027
10
Frame=5 idx=003195 GeodesicLength=0.1706199629639037 rxn_smarts="[O:1]([C:2]([C:3](=[O:4])[H:9])([C:5](=[O:6])[H:10])[H:8])[H:7]>>[O:1](/[C:2](=[C:3](/[O:4][H:8])[H:9])[C:5](=[O:6])[H:10])[H:7]"
O       -0.20401971      -1.25336741      -1.12736005
C        0.10413247      -0.20940056      -0.30841677
C        1.06928701      -0.37813538       0.73468407
O        1.72543827       0.69746512       0.86937575
C       -1.04475607       0.64477066       0.04419299
O       -2.09209112       0.52233748      -0.54899965
H       -1.15122897      -1.16846689      -1.32002912
H        1.00976034       1.01718457      -0.22540984
H        1.44753426      -1.32791627       1.11259800
H       -0.86405648       1.45552869       0.76936462
10
Frame=6 idx=003195 GeodesicLength=0.204623151178075 rxn_smarts="[O:1]([C:2]([C:3](=[O:4])[H:9])([C:5](=[O:6])[H:10])[H:8])[H:7]>>[O:1](/[C:2](=[C:3](/[O:4][H:8])[H:9])[C:5](=[O:6])[H:10])[H:7]"
O       -0.20052843      -1.25193894      -1.12096135
C        0.10448648      -0.20291348      -0.30560703
C        1.06085180      -0.38002942       0.74601110
O        1.72784679       0.69039517       0.88084192
C       -1.05081614       0.64570825       0.04419724
O       -2.09582653       0.51897495      -0.55140254
H       -1.14954788      -1.17698860      -1.30737473
H        1.01676193       1.02531841      -0.22190883
H        1.45577132      -1.33886827       1.08265678
H       -0.86899935       1.47034192       0.75354743
10
Frame=7 idx=003195 GeodesicLength=0.23871457226806334 rxn_smarts="[O:1]([C:2]([C:3](=[O:4])[H:9])([C:5](=[O:6])[H:10])[H:8])[H:7]>>[O:1](/[C:2](=[C:3](/[O:4][H:8])[H:9])[C:5](=[O:6])[H:10])[H:7]"
O       -0.19694446      -1.25017933      -1.11511558
C        0.10496769      -0.19648035      -0.30292885
C        1.05299088      -0.38232646       0.75661337
O        1.73040544       0.68305011       0.89192083
C       -1.05678380       0.64634947       0.04454538
O       -2.09958434       0.51532945      -0.55322873
H       -1.14771656      -1.18522573      -1.29490594
H        1.02391798       1.03345045      -0.21861141
H        1.46247153      -1.34846245       1.05388037
H       -0.87372437       1.48449483       0.73783058
10
Frame=8 idx=003195 GeodesicLength=0.2729070938759238 rxn_smarts="[O:1]([C:2]([C:3](=[O:4])[H:9])([C:5](=[O:6])[H:10])[H:8])[H:7]>>[O:1](/[C:2](=[C:3](/[O:4][H:8])[H:9])[C:5](=[O:6])[H:10])[H:7]"
O       -0.19327939      -1.24808676      -1.10984415
C        0.10554929      -0.19007075      -0.30037481
C        1.04559985      -0.38499418       0.76657679
O        1.73305219       0.67545987       0.90270942
C       -1.06265680       0.64676283       0.04519570
O       -2.10335458       0.51140621      -0.55451984
H       -1.14575294      -1.19329121      -1.28252090
H        1.03121797       1.04161549      -0.21546241
H        1.46786878      -1.35693511       1.02611699
H       -0.87824438       1.49813361       0.72212321
10
Frame=9 idx=003195 GeodesicLength=0.30718716712921934 rxn_smarts="[O:1]([C:2]([C:3](=[O:4])[H:9])([C:5](=[O:6])[H:10])[H:8])[H:7]>>[O:1](/[C:2](=[C:3](/[O:4][H:8])[H:9])[C:5](=[O:6])[H:10])[H:7]"
O       -0.18954763      -1.24564135      -1.10511856
C        0.10620947      -0.18365913      -0.29791653
C        1.03859302      -0.38800723       0.77598583
O        1.73574284       0.66762779       0.91329445
C       -1.06844710       0.64699742       0.04610107
O       -2.10715064       0.50720717      -0.55531545
H       -1.14366791      -1.20123881      -1.27012897
H        1.03867198       1.04981570      -0.21240306
H        1.47218300      -1.36446136       0.99919576
H       -0.88258703       1.51135981       0.70630546
10
Frame=10 idx=003195 GeodesicLength=0.341540065887217 rxn_smarts="[O:1]([C:2]([C:3](=[O:4])[H:9])([C:5](=[O:6])[H:10])[H:8])[H:7]>>[O:1](/[C:2](=[C:3](/[O:4][H:8])[H:9])[C:5](=[O:6])[H:10])[H:7]"
O       -0.18575840      -1.24282783      -1.10091568
C        0.10693107      -0.17722784      -0.29552666
C        1.03189591      -0.39135227       0.78491803
O        1.73842169       0.65954776       0.92376554
C       -1.07416583       0.64710110       0.04722572
O       -2.11098714       0.50273522      -0.55563692
H       -1.14146293      -1.20911544      -1.25764623
H        1.04629160       1.05803705      -0.20938051
H        1.47560963      -1.37117204       0.97294043
H       -0.88677560       1.52427430       0.69025629
10
Frame=11 idx=003195 GeodesicLength=0.375979198377415 rxn_smarts="[O:1]([C:2]([C:3](=[O:4])[H:9])([C:5](=[O:6])[H:10])[H:8])[H:7]>>[O:1](/[C:2](=[C:3](/[O:4][H:8])[H:9])[C:5](=[O:6])[H:10])[H:7]"
O       -0.18189823      -1.23958791      -1.09725424
C        0.10771155      -0.17073736      -0.29320371
C        1.02543790      -0.39503310       0.79340320
O        1.74105560       0.65120155       0.93418079
C       -1.07981333       0.64712607       0.04851735
O       -2.11490068       0.49793646      -0.55542946
H       -1.13911642      -1.21696532      -1.24497285
H        1.05410359       1.06630627      -0.20634554
H        1.47824160      -1.37720134       0.94725973
H       -0.89082158       1.53695469       0.67384472
10
Frame=12 idx=003195 GeodesicLength=0.41048245134793127 rxn_smarts="[O:1]([C:2]([C:3](=[O:4])[H:9])([C:5](=[O:6])[H:10])[H:8])[H:7]>>[O:1](/[C:2](=[C:3](/[O:4][H:8])[H:9])[C:5](=[O:6])[H:10])[H:7]"
O       -0.17800177      -1.23592665      -1.09411830
C        0.10854500      -0.16418223      -0.29093085
C        1.01918588      -0.39903592       0.80150006
O        1.74362505       0.64258844       0.94460929
C       -1.08537605       0.64710823       0.04994654
O       -2.11890769       0.49276513      -0.55466502
H       -1.13662732      -1.22480186      -1.23210566
H        1.06212393       1.07459664      -0.20325022
H        1.48015600      -1.38257883       0.92203127
H       -0.89472303       1.54946703       0.65698289
10
Frame=13 idx=003195 GeodesicLength=0.4450727508806341 rxn_smarts="[O:1]([C:2]([C:3](=[O:4])[H:9])([C:5](=[O:6])[H:10])[H:8])[H:7]>>[O:1](/[C:2](=[C:3](/[O:4][H:8])[H:9])[C:5](=[O:6])[H:10])[H:7]"
O       -0.17410439      -1.23195151      -1.09135236
C        0.10940338      -0.15759681      -0.28865663
C        1.01312533      -0.40332987       0.80925151
O        1.74613649       0.63374068       0.95497326
C       -1.09088067       0.64705666       0.05153221
O       -2.12301958       0.48727990      -0.55334853
H       -1.13394914      -1.23247493      -1.21925556
H        1.07033034       1.08288953      -0.20017809
H        1.48149189      -1.38739175       0.89732875
H       -0.89853365       1.56177808       0.63970545
10
Frame=14 idx=003195 GeodesicLength=0.4797083946445306 rxn_smarts="[O:1]([C:2]([C:3](=[O:4])[H:9])([C:5](=[O:6])[H:10])[H:8])[H:7]>>[O:1](/[C:2](=[C:3](/[O:4][H:8])[H:9])[C:5](=[O:6])[H:10])[H:7]"
O       -0.17023283      -1.22768674      -1.08890694
C        0.11028119      -0.15098755      -0.28636405
C        1.00724833      -0.40787533       0.81667530
O        1.74864170       0.62467745       0.96521621
C       -1.09631992       0.64697009       0.05326730
O       -2.12723056       0.48146899      -0.55148217
H       -1.13107574      -1.23993235      -1.20651488
H        1.07872432       1.09118005      -0.19714209
H        1.48223247      -1.39165106       0.87320157
H       -0.90226896       1.57383646       0.62204975
10
Frame=15 idx=003195 GeodesicLength=0.5143721597937791 rxn_smarts="[O:1]([C:2]([C:3](=[O:4])[H:9])([C:5](=[O:6])[H:10])[H:8])[H:7]>>[O:1](/[C:2](=[C:3](/[O:4][H:8])[H:9])[C:5](=[O:6])[H:10])[H:7]"
O       -0.16640903      -1.22324419      -1.08665565
C        0.11115916      -0.14439276      -0.28401897
C        1.00157079      -0.41260732       0.82380296
O        1.75121085       0.61544611       0.97518728
C       -1.10170642       0.64684431       0.05516578
O       -2.13150460       0.47543173      -0.54914865
H       -1.12798751      -1.24705492      -1.19408908
H        1.08725524       1.09945932      -0.19425607
H        1.48240898      -1.39540710       0.84980568
H       -0.90599745       1.58552482       0.60420672
10
Frame=16 idx=003195 GeodesicLength=0.5490471022405198 rxn_smarts="[O:1]([C:2]([C:3](=[O:4])[H:9])([C:5](=[O:6])[H:10])[H:8])[H:7]>>[O:1](/[C:2](=[C:3](/[O:4][H:8])[H:9])[C:5](=[O:6])[H:10])[H:7]"
O       -0.16263912      -1.21865220      -1.08454744
C        0.11203181      -0.13781900      -0.28160307
C        0.99608469      -0.41748354       0.83066728
O        1.75388588       0.60606766       0.98483161
C       -1.10704238       0.64668010       0.05721949
O       -2.13582475       0.46919683      -0.54639478
H       -1.12469100      -1.25381190      -1.18203933
H        1.09591573       1.10772847      -0.19155306
H        1.48203190      -1.39870056       0.82717173
H       -0.90975276       1.59679414       0.58624757
