11
Frame=0 idx=003137 GeodesicLength=0.0 rxn_smarts="[c:1]1([H:7])[c:2]([H:8])[c:3]([H:9])[n:4][c:5]([H:10])[c:6]1[H:11]>>[C@:1]12([H:7])[C@:2]3([H:8])[C:3]([H:9])=[N:4][C@@:5]1([H:10])[C@:6]23[H:11]"
C        0.08808154       0.97936618       0.86175669
C       -0.94929427       0.30503853       0.01369050
C       -0.97693954      -1.05057254      -0.29045054
N        0.18824393      -1.68686087      -0.07063768
C        1.12080973      -0.79398525       0.03603264
C        0.77204277       0.64371482      -0.27392713
H       -0.03152178       1.96525123       1.29303029
H       -1.75642009       0.96045579      -0.29291415
H       -1.83735335      -1.56543268      -0.69415585
H        2.10420373      -1.02115344       0.43184013
H        1.27814735       1.26417821      -1.01426495
11
Frame=1 idx=003137 GeodesicLength=0.04996518356299908 rxn_smarts="[c:1]1([H:7])[c:2]([H:8])[c:3]([H:9])[n:4][c:5]([H:10])[c:6]1[H:11]>>[C@:1]12([H:7])[C@:2]3([H:8])[C:3]([H:9])=[N:4][C@@:5]1([H:10])[C@:6]23[H:11]"
C        0.08578571       0.96872056       0.85356335
C       -0.95350708       0.31014315       0.00161903
C       -0.97969537      -1.05163112      -0.28899709
N        0.18513930      -1.68302533      -0.07071899
C        1.11779553      -0.78330665       0.04751083
C        0.77423391       0.64530309      -0.28566974
H       -0.02725199       1.94957624       1.29765545
H       -1.76636655       0.96241695      -0.29532766
H       -1.84226293      -1.57328890      -0.67967439
H        2.10630349      -1.01617539       0.42614977
H        1.29982597       1.27126740      -1.00611056
11
Frame=2 idx=003137 GeodesicLength=0.09993557841868561 rxn_smarts="[c:1]1([H:7])[c:2]([H:8])[c:3]([H:9])[n:4][c:5]([H:10])[c:6]1[H:11]>>[C@:1]12([H:7])[C@:2]3([H:8])[C:3]([H:9])=[N:4][C@@:5]1([H:10])[C@:6]23[H:11]"
C        0.08335383       0.95834715       0.84514294
C       -0.95758760       0.31519063      -0.01053587
C       -0.98237958      -1.05264185      -0.28756521
N        0.18215595      -1.67916164      -0.07122037
C        1.11483948      -0.77259931       0.05863622
C        0.77665729       0.64680612      -0.29721747
H       -0.02330247       1.93403587       1.30179762
H       -1.77620031       0.96416729      -0.29773608
H       -1.84720562      -1.58101001      -0.66451471
H        2.10810342      -1.01130660       0.42013518
H        1.32156560       1.27817236      -0.99692226
11
Frame=3 idx=003137 GeodesicLength=0.1499159027463661 rxn_smarts="[c:1]1([H:7])[c:2]([H:8])[c:3]([H:9])[n:4][c:5]([H:10])[c:6]1[H:11]>>[C@:1]12([H:7])[C@:2]3([H:8])[C:3]([H:9])=[N:4][C@@:5]1([H:10])[C@:6]23[H:11]"
C        0.08084040       0.94824310       0.83651365
C       -0.96154182       0.32016383      -0.02268396
C       -0.98500873      -1.05361439      -0.28605040
N        0.17927867      -1.67527884      -0.07202527
C        1.11195588      -0.76187745       0.06938870
C        0.77930317       0.64820368      -0.30859930
H       -0.01959941       1.91864955       1.30544965
H       -1.78593062       0.96568793      -0.30001846
H       -1.85204608      -1.58849143      -0.64901306
H        2.10957245      -1.00654044       0.41392350
H        1.34317608       1.28485445      -0.98688506
11
Frame=4 idx=003137 GeodesicLength=0.19989120897150325 rxn_smarts="[c:1]1([H:7])[c:2]([H:8])[c:3]([H:9])[n:4][c:5]([H:10])[c:6]1[H:11]>>[C@:1]12([H:7])[C@:2]3([H:8])[C:3]([H:9])=[N:4][C@@:5]1([H:10])[C@:6]23[H:11]"
C        0.07826585       0.93838645       0.82767649
C       -0.96534107       0.32507817      -0.03487634
C       -0.98755906      -1.05453396      -0.28455251
N        0.17651630      -1.67137478      -0.07318950
C        1.10914810      -0.75114625       0.07970642
C        0.78219069       0.64952585      -0.31982270
H       -0.01612948       1.90337851       1.30867815
H       -1.79551807       0.96700946      -0.30224922
H       -1.85683792      -1.59577125      -0.63300410
H        2.11070804      -1.00186413       0.40761709
H        1.36455663       1.29131193      -0.97598378
11
Frame=5 idx=003137 GeodesicLength=0.2498856426137991 rxn_smarts="[c:1]1([H:7])[c:2]([H:8])[c:3]([H:9])[n:4][c:5]([H:10])[c:6]1[H:11]>>[C@:1]12([H:7])[C@:2]3([H:8])[C:3]([H:9])=[N:4][C@@:5]1([H:10])[C@:6]23[H:11]"
C        0.07562730       0.92873732       0.81864885
C       -0.96899048       0.32994287      -0.04716037
C       -0.99001487      -1.05538643      -0.28317341
N        0.17386694      -1.66744355      -0.07477154
C        1.10645215      -0.74041084       0.08953554
C        0.78534108       0.65080126      -0.33089400
H       -0.01290889       1.88815762       1.31156375
H       -1.80494126       0.96814697      -0.30446885
H       -1.86161718      -1.60287062      -0.61630470
H        2.11146040      -0.99726153       0.40132942
H        1.38572482       1.29758693      -0.96430471
11
Frame=6 idx=003137 GeodesicLength=0.2999122147085397 rxn_smarts="[c:1]1([H:7])[c:2]([H:8])[c:3]([H:9])[n:4][c:5]([H:10])[c:6]1[H:11]>>[C@:1]12([H:7])[C@:2]3([H:8])[C:3]([H:9])=[N:4][C@@:5]1([H:10])[C@:6]23[H:11]"
C        0.07289909       0.91922277       0.80940616
C       -0.97244808       0.33477444      -0.05969151
C       -0.99232785      -1.05612750      -0.28219292
N        0.17135778      -1.66347091      -0.07696118
C        1.10387819      -0.72967388       0.09880029
C        0.78881638       0.65207165      -0.34180184
H       -0.01000422       1.87286433       1.31417299
H       -1.81413363       0.96914151      -0.30686458
H       -1.86656329      -1.60985010      -0.59831495
H        2.11185479      -0.99276615       0.39517147
H        1.40667085       1.30381384      -0.95172393
11
Frame=7 idx=003137 GeodesicLength=0.3499683969325378 rxn_smarts="[c:1]1([H:7])[c:2]([H:8])[c:3]([H:9])[n:4][c:5]([H:10])[c:6]1[H:11]>>[C@:1]12([H:7])[C@:2]3([H:8])[C:3]([H:9])=[N:4][C@@:5]1([H:10])[C@:6]23[H:11]"
C        0.07010111       0.90984249       0.79999077
C       -0.97572365       0.33958190      -0.07242246
C       -0.99450090      -1.05676134      -0.28157054
N        0.16895869      -1.65945991      -0.07971559
C        1.10141990      -0.71894538       0.10750047
C        0.79259929       0.65336132      -0.35252181
H       -0.00740313       1.85748775       1.31658080
H       -1.82309033       0.97000826      -0.30940413
H       -1.87152525      -1.61663163      -0.57919663
H        2.11188160      -0.98834073       0.38919816
H        1.42728268       1.30985728      -0.93843903
11
Frame=8 idx=003137 GeodesicLength=0.4000553387564666 rxn_smarts="[c:1]1([H:7])[c:2]([H:8])[c:3]([H:9])[n:4][c:5]([H:10])[c:6]1[H:11]>>[C@:1]12([H:7])[C@:2]3([H:8])[C:3]([H:9])=[N:4][C@@:5]1([H:10])[C@:6]23[H:11]"
C        0.06726031       0.90057090       0.79039731
C       -0.97881593       0.34435502      -0.08533034
C       -0.99654754      -1.05729498      -0.28134605
N        0.16666984      -1.65542628      -0.08301889
C        1.09908358      -0.70824359       0.11561381
C        0.79669326       0.65466309      -0.36308103
H       -0.00506432       1.84200300       1.31877974
H       -1.83179606       0.97074687      -0.31208306
H       -1.87650708      -1.62317423      -0.55895767
H        2.11156184      -0.98400518       0.38352390
H        1.44746210       1.31580540      -0.92449771
11
Frame=9 idx=003137 GeodesicLength=0.4501497284660948 rxn_smarts="[c:1]1([H:7])[c:2]([H:8])[c:3]([H:9])[n:4][c:5]([H:10])[c:6]1[H:11]>>[C@:1]12([H:7])[C@:2]3([H:8])[C:3]([H:9])=[N:4][C@@:5]1([H:10])[C@:6]23[H:11]"
C        0.06442730       0.89144265       0.78068198
C       -0.98176522       0.34908125      -0.09824015
C       -0.99850481      -1.05776357      -0.28127903
N        0.16445475      -1.65139263      -0.08667360
C        1.09687028      -0.69758860       0.12319726
C        0.80104112       0.65594897      -0.37348496
H       -0.00290266       1.82648634       1.32076766
H       -1.84027263       0.97134038      -0.31473220
H       -1.88128707      -1.62935610      -0.53822183
H        2.11088461      -0.97973030       0.37818691
H        1.46705433       1.32153161      -0.91020206
11
Frame=10 idx=003137 GeodesicLength=0.5002813549213504 rxn_smarts="[c:1]1([H:7])[c:2]([H:8])[c:3]([H:9])[n:4][c:5]([H:10])[c:6]1[H:11]>>[C@:1]12([H:7])[C@:2]3([H:8])[C:3]([H:9])=[N:4][C@@:5]1([H:10])[C@:6]23[H:11]"
C        0.06168404       0.88247382       0.77086115
C       -0.98456421       0.35373657      -0.11101016
C       -1.00042678      -1.05818720      -0.28118937
N        0.16227025      -1.64737765      -0.09051298
C        1.09473551      -0.68697958       0.13028138
C        0.80561427       0.65719113      -0.38374629
H       -0.00077808       1.81099441       1.32249356
H       -1.84852641       0.97178382      -0.31725609
H       -1.88573458      -1.63511326      -0.51748973
H        2.10992346      -0.97551792       0.37326518
H        1.48580253       1.32699586      -0.89569665
11
Frame=11 idx=003137 GeodesicLength=0.5504202124839435 rxn_smarts="[c:1]1([H:7])[c:2]([H:8])[c:3]([H:9])[n:4][c:5]([H:10])[c:6]1[H:11]>>[C@:1]12([H:7])[C@:2]3([H:8])[C:3]([H:9])=[N:4][C@@:5]1([H:10])[C@:6]23[H:11]"
C        0.05899393       0.87365003       0.76096806
C       -0.98725316       0.35833370      -0.12364347
C       -1.00229734      -1.05856232      -0.28109238
N        0.16012253      -1.64338708      -0.09454891
C        1.09271257      -0.67642889       0.13689895
C        0.81039309       0.65840055      -0.39384768
H        0.00124931       1.79550156       1.32402285
H       -1.85655652       0.97210202      -0.31968324
H       -1.88987271      -1.64045593      -0.49670972
H        2.10868391      -0.97137459       0.36873561
H        1.50382438       1.33222095      -0.88110008
11
Frame=12 idx=003137 GeodesicLength=0.600585402553043 rxn_smarts="[c:1]1([H:7])[c:2]([H:8])[c:3]([H:9])[n:4][c:5]([H:10])[c:6]1[H:11]>>[C@:1]12([H:7])[C@:2]3([H:8])[C:3]([H:9])=[N:4][C@@:5]1([H:10])[C@:6]23[H:11]"
C        0.05632062       0.86492588       0.75100137
C       -0.98980822       0.36289020      -0.13625183
C       -1.00409551      -1.05887190      -0.28120424
N        0.15801584      -1.63940979      -0.09893987
C        1.09078328      -0.66593985       0.14303684
C        0.81541444       0.65961807      -0.40375872
H        0.00310328       1.77991946       1.32542389
H       -1.86431369       0.97232777      -0.32219085
H       -1.89379914      -1.64542616      -0.47538989
H        2.10720291      -0.96731048       0.36458242
H        1.52117618       1.33727681      -0.86630912
11
Frame=13 idx=003137 GeodesicLength=0.6507699421656711 rxn_smarts="[c:1]1([H:7])[c:2]([H:8])[c:3]([H:9])[n:4][c:5]([H:10])[c:6]1[H:11]>>[C@:1]12([H:7])[C@:2]3([H:8])[C:3]([H:9])=[N:4][C@@:5]1([H:10])[C@:6]23[H:11]"
C        0.05363100       0.85626235       0.74096243
C       -0.99222768       0.36741503      -0.14891116
C       -1.00581351      -1.05910653      -0.28168153
N        0.15595715      -1.63543794      -0.10383132
C        1.08893550      -0.65552020       0.14869110
C        0.82068788       0.66087094      -0.41344100
H        0.00471912       1.76417295       1.32675643
H       -1.87178128       0.97249167      -0.32493171
H       -1.89754612      -1.65002964      -0.45313335
H        2.10550295      -0.96334114       0.36078948
H        1.53793499       1.34222252      -0.85126935
11
Frame=14 idx=003137 GeodesicLength=0.7009806051183 rxn_smarts="[c:1]1([H:7])[c:2]([H:8])[c:3]([H:9])[n:4][c:5]([H:10])[c:6]1[H:11]>>[C@:1]12([H:7])[C@:2]3([H:8])[C:3]([H:9])=[N:4][C@@:5]1([H:10])[C@:6]23[H:11]"
C        0.05097261       0.84769016       0.73088064
C       -0.99453640       0.37189308      -0.16147937
C       -1.00748824      -1.05929242      -0.28230550
N        0.15391903      -1.63149171      -0.10902815
C        1.08716444      -0.64517538       0.15393103
C        0.82617320       0.66212556      -0.42291720
H        0.00618187       1.74833637       1.32797921
H       -1.87897714       0.97258709      -0.32777665
H       -1.90098966      -1.65421197      -0.43047995
H        2.10360455      -0.95946466       0.35735021
H        1.55397574       1.34700387      -0.83615427
11
Frame=15 idx=003137 GeodesicLength=0.7512082232597608 rxn_smarts="[c:1]1([H:7])[c:2]([H:8])[c:3]([H:9])[n:4][c:5]([H:10])[c:6]1[H:11]>>[C@:1]12([H:7])[C@:2]3([H:8])[C:3]([H:9])=[N:4][C@@:5]1([H:10])[C@:6]23[H:11]"
C        0.04837769       0.83923529       0.72079118
C       -0.99676083       0.37631326      -0.17383910
C       -1.00914419      -1.05944952      -0.28290459
N        0.15187995      -1.62758429      -0.11438619
C        1.08546449      -0.63490730       0.15882092
C        0.83182815       0.66335436      -0.43219029
H        0.00755321       1.73247852       1.32907048
H       -1.88592186       0.97261383      -0.33063780
H       -1.90405993      -1.65796203      -0.40785020
H        2.10153328      -0.95567544       0.35424357
H        1.56925004       1.35158332      -0.82111800
11
Frame=16 idx=003137 GeodesicLength=0.8014444131628143 rxn_smarts="[c:1]1([H:7])[c:2]([H:8])[c:3]([H:9])[n:4][c:5]([H:10])[c:6]1[H:11]>>[C@:1]12([H:7])[C@:2]3([H:8])[C:3]([H:9])=[N:4][C@@:5]1([H:10])[C@:6]23[H:11]"
C        0.04585949       0.83090328       0.71072070
C       -0.99891430       0.38067288      -0.18593646
C       -1.01079182      -1.05958723      -0.28342230
N        0.14982944      -1.62372297      -0.11985083
C        1.08383111      -0.62471899       0.16340391
C        0.83763227       0.66454902      -0.44125331
H        0.00885788       1.71662956       1.33002884
H       -1.89262423       0.97258267      -0.33350134
H       -1.90674563      -1.66129335      -0.38540234
H        2.09931594      -0.95197344       0.35144930
H        1.58374986       1.35595858      -0.80623617
