11
Frame=0 idx=002308 GeodesicLength=0.0 rxn_smarts="[C:1]([N:2](/[C:3](=[N:4]/[H:11])[C:5]#[N:6])[H:10])([H:7])([H:8])[H:9]>>[C:1]([N:2]([C:3][N:4]([C:5]#[N:6])[H:11])[H:10])([H:7])([H:8])[H:9]"
C       -1.50760728      -0.07395544      -0.34679643
N       -0.33720131      -0.87223227      -0.02113680
C        0.74523279      -0.39982013       0.56098078
N        0.99012007       0.89203472       0.85392984
C        2.18015853       0.14372126       0.28980758
N        3.25489972       0.14035987      -0.18243600
H       -1.75132776       0.59404728       0.48094466
H       -2.35515791      -0.73606536      -0.50669852
H       -1.35007367       0.51936635      -1.25082587
H       -0.33502904      -1.84724106      -0.26371340
H        0.46598589       1.63978476       0.38594412
11
Frame=1 idx=002308 GeodesicLength=0.06700444949178709 rxn_smarts="[C:1]([N:2](/[C:3](=[N:4]/[H:11])[C:5]#[N:6])[H:10])([H:7])([H:8])[H:9]>>[C:1]([N:2]([C:3][N:4]([C:5]#[N:6])[H:11])[H:10])([H:7])([H:8])[H:9]"
C       -1.51545461      -0.07592836      -0.34369412
N       -0.34568848      -0.87670421      -0.02374290
C        0.75167579      -0.40168307       0.52687875
N        0.98446425       0.88763706       0.82175552
C        2.20252434       0.14461602       0.28396560
N        3.29089424       0.14375844      -0.15158275
H       -1.76174287       0.58499638       0.48904479
H       -2.36206189      -0.73723672      -0.51212087
H       -1.35790804       0.52541115      -1.24233965
H       -0.35242760      -1.85610186      -0.24727753
H        0.46572486       1.66123517       0.39911315
11
Frame=2 idx=002308 GeodesicLength=0.13392835284923793 rxn_smarts="[C:1]([N:2](/[C:3](=[N:4]/[H:11])[C:5]#[N:6])[H:10])([H:7])([H:8])[H:9]>>[C:1]([N:2]([C:3][N:4]([C:5]#[N:6])[H:11])[H:10])([H:7])([H:8])[H:9]"
C       -1.52384881      -0.07810160      -0.34029328
N       -0.35410851      -0.88089609      -0.02716869
C        0.75832147      -0.40276195       0.48895415
N        0.97925887       0.88402688       0.78546189
C        2.22572176       0.14517716       0.27890138
N        3.32742783       0.14620078      -0.11694325
H       -1.77182068       0.57577455       0.49759099
H       -2.36947690      -0.73885744      -0.51607132
H       -1.36769058       0.53114597      -1.23377140
H       -0.36933053      -1.86438569      -0.23082828
H        0.46554609       1.68267741       0.41416781
11
Frame=3 idx=002308 GeodesicLength=0.2007415180998569 rxn_smarts="[C:1]([N:2](/[C:3](=[N:4]/[H:11])[C:5]#[N:6])[H:10])([H:7])([H:8])[H:9]>>[C:1]([N:2]([C:3][N:4]([C:5]#[N:6])[H:11])[H:10])([H:7])([H:8])[H:9]"
C       -1.53297777      -0.08053454      -0.33632566
N       -0.36229164      -0.88460650      -0.03189528
C        0.76518811      -0.40269502       0.44626989
N        0.97457687       0.88167713       0.74367436
C        2.24992261       0.14514382       0.27561293
N        3.36444249       0.14719825      -0.07729234
H       -1.78139791       0.56620100       0.50705134
H       -2.37755838      -0.74118479      -0.51785875
H       -1.38028758       0.53663933      -1.22488066
H       -0.38528295      -1.87182924      -0.21501892
H        0.46566617       1.70399055       0.43066308
11
Frame=4 idx=002308 GeodesicLength=0.2673278470508199 rxn_smarts="[C:1]([N:2](/[C:3](=[N:4]/[H:11])[C:5]#[N:6])[H:10])([H:7])([H:8])[H:9]>>[C:1]([N:2]([C:3][N:4]([C:5]#[N:6])[H:11])[H:10])([H:7])([H:8])[H:9]"
C       -1.54288914      -0.08326548      -0.33160507
N       -0.37008843      -0.88767024      -0.03812170
C        0.77230298      -0.40110516       0.39782947
N        0.97054679       0.88111075       0.69478148
C        2.27517277       0.14409253       0.27581098
N        3.40127398       0.14644805      -0.03228396
H       -1.79018708       0.55628245       0.51766878
H       -2.38636135      -0.74440487      -0.51688415
H       -1.39624236       0.54178381      -1.21559147
H       -0.39978665      -1.87820853      -0.20034789
H        0.46625849       1.72493669       0.44874353
11
Frame=5 idx=002308 GeodesicLength=0.3335423529620703 rxn_smarts="[C:1]([N:2](/[C:3](=[N:4]/[H:11])[C:5]#[N:6])[H:10])([H:7])([H:8])[H:9]>>[C:1]([N:2]([C:3][N:4]([C:5]#[N:6])[H:11])[H:10])([H:7])([H:8])[H:9]"
C       -1.55375562      -0.08638049      -0.32571554
N       -0.37719416      -0.88978225      -0.04659543
C        0.77981095      -0.39736768       0.34161744
N        0.96742882       0.88320895       0.63569454
C        2.30131635       0.14156601       0.28177701
N        3.43746806       0.14327365       0.01980984
H       -1.79762786       0.54585380       0.53010975
H       -2.39604432      -0.74888158      -0.51191958
H       -1.41684537       0.54653815      -1.20558267
H       -0.41220007      -1.88322513      -0.18762019
H        0.46764322       1.74519656       0.46842484
11
Frame=6 idx=002308 GeodesicLength=0.3988681395623492 rxn_smarts="[C:1]([N:2](/[C:3](=[N:4]/[H:11])[C:5]#[N:6])[H:10])([H:7])([H:8])[H:9]>>[C:1]([N:2]([C:3][N:4]([C:5]#[N:6])[H:11])[H:10])([H:7])([H:8])[H:9]"
C       -1.56596408      -0.09004446      -0.31768720
N       -0.38303224      -0.89042359      -0.05912416
C        0.78819268      -0.39039139       0.27313616
N        0.96591358       0.88953384       0.55989366
C        2.32760676       0.13724947       0.29602847
N        3.47275776       0.13630668       0.08462997
H       -1.80236333       0.53458740       0.54590334
H       -2.40704732      -0.75526106      -0.50012302
H       -1.44489185       0.55085440      -1.19403611
H       -0.42157619      -1.88643372      -0.17833367
H        0.47040423       1.76402242       0.48971254
11
Frame=7 idx=002308 GeodesicLength=0.46261113477746874 rxn_smarts="[C:1]([N:2](/[C:3](=[N:4]/[H:11])[C:5]#[N:6])[H:10])([H:7])([H:8])[H:9]>>[C:1]([N:2]([C:3][N:4]([C:5]#[N:6])[H:11])[H:10])([H:7])([H:8])[H:9]"
C       -1.58058818      -0.09486022      -0.30381362
N       -0.38625369      -0.88841689      -0.08033851
C        0.79812990      -0.37767749       0.18367025
N        0.96723868       0.90425065       0.45208067
C        2.35133981       0.13146539       0.32382005
N        3.50560617       0.12097848       0.17958412
H       -1.80063799       0.52133520       0.57039844
H       -2.42045051      -0.76553943      -0.47260228
H       -1.48787857       0.55444731      -1.17741137
H       -0.42446634      -1.88631045      -0.18202105
H        0.47796072       1.78032746       0.50663330
11
Frame=8 idx=002308 GeodesicLength=0.5199636205991983 rxn_smarts="[C:1]([N:2](/[C:3](=[N:4]/[H:11])[C:5]#[N:6])[H:10])([H:7])([H:8])[H:9]>>[C:1]([N:2]([C:3][N:4]([C:5]#[N:6])[H:11])[H:10])([H:7])([H:8])[H:9]"
C       -1.59441714      -0.09986134      -0.28435195
N       -0.38544528      -0.88373037      -0.11092685
C        0.80976556      -0.36057437       0.07234510
N        0.97196446       0.92508262       0.31247290
C        2.36377368       0.12807042       0.36159979
N        3.52409498       0.10231777       0.30471815
H       -1.78755347       0.50732970       0.60242870
H       -2.43329179      -0.77745530      -0.42976318
H       -1.54170967       0.55856760      -1.15450190
H       -0.42152947      -1.88340582      -0.19372768
H        0.49434815       1.78365909       0.51970691
11
Frame=9 idx=002308 GeodesicLength=0.5813516167936396 rxn_smarts="[C:1]([N:2](/[C:3](=[N:4]/[H:11])[C:5]#[N:6])[H:10])([H:7])([H:8])[H:9]>>[C:1]([N:2]([C:3][N:4]([C:5]#[N:6])[H:11])[H:10])([H:7])([H:8])[H:9]"
C       -1.60326146      -0.10439651      -0.26221792
N       -0.38103289      -0.87712855      -0.14478936
C        0.81986845      -0.34174420      -0.04402549
N        0.97506652       0.94598848       0.17782515
C        2.35868475       0.12968964       0.39994398
N        3.51797303       0.08399541       0.43509040
H       -1.76622887       0.49219108       0.63798623
H       -2.43992511      -0.78939368      -0.38325617
H       -1.59225461       0.56392219      -1.12612172
H       -0.41329915      -1.87805094      -0.20896760
H        0.52440932       1.77492708       0.51853248
11
Frame=10 idx=002308 GeodesicLength=0.6485834785438943 rxn_smarts="[C:1]([N:2](/[C:3](=[N:4]/[H:11])[C:5]#[N:6])[H:10])([H:7])([H:8])[H:9]>>[C:1]([N:2]([C:3][N:4]([C:5]#[N:6])[H:11])[H:10])([H:7])([H:8])[H:9]"
C       -1.60681673      -0.10751631      -0.24347885
N       -0.37533256      -0.87070883      -0.17401348
C        0.82675052      -0.32546172      -0.14533899
N        0.97537486       0.96222792       0.07005459
C        2.34519903       0.13306014       0.42484586
N        3.49640730       0.07138804       0.54580922
H       -1.74435197       0.47808949       0.66804981
H       -2.44090336      -0.79833639      -0.34665460
H       -1.62912827       0.57144575      -1.09875033
H       -0.40365596      -1.87270475      -0.21497373
H        0.55645714       1.75851664       0.51445050
11
Frame=11 idx=002308 GeodesicLength=0.7195007511596626 rxn_smarts="[C:1]([N:2](/[C:3](=[N:4]/[H:11])[C:5]#[N:6])[H:10])([H:7])([H:8])[H:9]>>[C:1]([N:2]([C:3][N:4]([C:5]#[N:6])[H:11])[H:10])([H:7])([H:8])[H:9]"
C       -1.60753936      -0.11025198      -0.22691707
N       -0.36913846      -0.86439712      -0.20005996
C        0.83092075      -0.31039670      -0.23218570
N        0.97298850       0.97657245      -0.01764064
C        2.32892263       0.13714978       0.44118948
N        3.46656180       0.05895865       0.64139956
H       -1.72401211       0.46351925       0.69515628
H       -2.43859472      -0.80641094      -0.31779888
H       -1.65702125       0.57994151      -1.07189389
H       -0.39219354      -1.86705429      -0.21700009
H        0.58910576       1.74236939       0.50575092
11
Frame=12 idx=002308 GeodesicLength=0.7920693300859504 rxn_smarts="[C:1]([N:2](/[C:3](=[N:4]/[H:11])[C:5]#[N:6])[H:10])([H:7])([H:8])[H:9]>>[C:1]([N:2]([C:3][N:4]([C:5]#[N:6])[H:11])[H:10])([H:7])([H:8])[H:9]"
C       -1.60639490      -0.11267218      -0.21172374
N       -0.36287211      -0.85828610      -0.22432094
C        0.83314920      -0.29640823      -0.30896685
N        0.96894498       0.98943335      -0.09301286
C        2.31230509       0.14102808       0.45081799
N        3.43092659       0.04728023       0.72814267
H       -1.70427053       0.44836149       0.72042528
H       -2.43440876      -0.81351593      -0.29393995
H       -1.67902049       0.58935950      -1.04511435
H       -0.37946137      -1.86103010      -0.21634812
H        0.62110228       1.72644988       0.49404086
11
Frame=13 idx=002308 GeodesicLength=0.8651614685450434 rxn_smarts="[C:1]([N:2](/[C:3](=[N:4]/[H:11])[C:5]#[N:6])[H:10])([H:7])([H:8])[H:9]>>[C:1]([N:2]([C:3][N:4]([C:5]#[N:6])[H:11])[H:10])([H:7])([H:8])[H:9]"
C       -1.60438438      -0.11486545      -0.19897835
N       -0.35700410      -0.85229371      -0.24473988
C        0.83346480      -0.28290449      -0.37622993
N        0.96285924       1.00145003      -0.15654285
C        2.29744660       0.14471737       0.45499168
N        3.39346178       0.03601623       0.80216549
H       -1.68758921       0.43387551       0.74200841
H       -2.42922022      -0.81999545      -0.27645893
H       -1.69543866       0.59842685      -1.02083843
H       -0.36581019      -1.85442979      -0.21021872
H        0.65221433       1.71000290       0.48484152
11
Frame=14 idx=002308 GeodesicLength=0.9385211170830775 rxn_smarts="[C:1]([N:2](/[C:3](=[N:4]/[H:11])[C:5]#[N:6])[H:10])([H:7])([H:8])[H:9]>>[C:1]([N:2]([C:3][N:4]([C:5]#[N:6])[H:11])[H:10])([H:7])([H:8])[H:9]"
C       -1.60193941      -0.11695492      -0.18795676
N       -0.35141463      -0.84632895      -0.26216869
C        0.83227190      -0.26956083      -0.43648288
N        0.95517046       1.01303663      -0.21150406
C        2.28439597       0.14797038       0.45591396
N        3.35503161       0.02472393       0.86671479
H       -1.67343628       0.41984346       0.76098266
H       -2.42348624      -0.82613205      -0.26358351
H       -1.70810630       0.60708451      -0.99844941
H       -0.35113872      -1.84705480      -0.20039507
H        0.68265163       1.69337264       0.47692897
11
Frame=15 idx=002308 GeodesicLength=1.012075377234682 rxn_smarts="[C:1]([N:2](/[C:3](=[N:4]/[H:11])[C:5]#[N:6])[H:10])([H:7])([H:8])[H:9]>>[C:1]([N:2]([C:3][N:4]([C:5]#[N:6])[H:11])[H:10])([H:7])([H:8])[H:9]"
C       -1.59924057      -0.11902137      -0.17807655
N       -0.34599196      -0.84035768      -0.27731565
C        0.82988198      -0.25625570      -0.49137349
N        0.94623019       1.02439630      -0.26017910
C        2.27292535       0.15071197       0.45503285
N        3.31587647       0.01314516       0.92429339
H       -1.66120167       0.40606075       0.77819337
H       -2.41741425      -0.83208284      -0.25395907
H       -1.71819569       0.61534808      -0.97734430
H       -0.33547387      -1.83884884      -0.18839758
H        0.71260402       1.67690417       0.46912614
11
Frame=16 idx=002308 GeodesicLength=1.0857878794457863 rxn_smarts="[C:1]([N:2](/[C:3](=[N:4]/[H:11])[C:5]#[N:6])[H:10])([H:7])([H:8])[H:9]>>[C:1]([N:2]([C:3][N:4]([C:5]#[N:6])[H:11])[H:10])([H:7])([H:8])[H:9]"
C       -1.59630651      -0.12110310      -0.16878626
N       -0.34064758      -0.83440730      -0.29069184
C        0.82656683      -0.24305994      -0.54201652
N        0.93637547       1.03555012      -0.30433299
C        2.26271930       0.15291911       0.45336040
N        3.27581671       0.00133974       0.97707115
H       -1.65018083       0.39241665       0.79435884
H       -2.41109453      -0.83787849      -0.24634621
H       -1.72645179       0.62323961      -0.95693029
H       -0.31902141      -1.82995445      -0.17596104
H        0.74222435       1.66093803       0.46027475
