15
Frame=0 idx=008146 GeodesicLength=0.0 rxn_smarts="[C:1]([C@:2]12[C@@:3]3([H:11])[C@:4]4([H:12])[C@@:5]3([H:13])[C@@:6]1([H:14])[C@:7]24[H:15])([H:8])([H:9])[H:10]>>[C:1]([C@@:2]12[C@:3]3([H:11])[C@@:4]([H:12])([C@:5]3([H:13])[C:6]1)[C:7]2([H:14])[H:15])([H:8])([H:9])[H:10]"
C        2.02052959      -0.02800722       0.06778590
C        0.53016695      -0.03039911       0.13102782
C       -0.50220117      -1.13193710      -0.25017326
C       -1.44780594      -0.03797408      -0.67321209
C       -1.43110437      -0.50589083       0.75531511
C       -0.32067463       0.44856573       1.29446057
C       -0.38351265       1.03473217      -0.43764206
H        2.40679247       0.92097042       0.44539371
H        2.42898625      -0.82537059       0.69153222
H        2.38194492      -0.17197524      -0.95331921
H       -0.41279495      -2.14598214      -0.60664973
H       -2.28107216      -0.07218518      -1.35869179
H       -2.26390139      -0.93300471       1.29429609
H       -0.68960409       1.61109192       0.64228035
H       -0.03574887       1.86736595      -1.04240370
15
Frame=1 idx=008146 GeodesicLength=0.0591692798221555 rxn_smarts="[C:1]([C@:2]12[C@@:3]3([H:11])[C@:4]4([H:12])[C@@:5]3([H:13])[C@@:6]1([H:14])[C@:7]24[H:15])([H:8])([H:9])[H:10]>>[C:1]([C@@:2]12[C@:3]3([H:11])[C@@:4]([H:12])([C@:5]3([H:13])[C:6]1)[C:7]2([H:14])[H:15])([H:8])([H:9])[H:10]"
C        2.02180087      -0.02616146       0.06608607
C        0.53164832      -0.02857778       0.12680084
C       -0.50213538      -1.12967822      -0.24715186
C       -1.44796201      -0.03584697      -0.67379187
C       -1.43947150      -0.50509902       0.75385081
C       -0.32169951       0.43131182       1.29277688
C       -0.38542382       1.03813376      -0.43479129
H        2.40831067       0.92346603       0.44189912
H        2.42914148      -0.82249170       0.69180996
H        2.38308127      -0.17060965      -0.95498786
H       -0.41248941      -2.14643696      -0.59577339
H       -2.27796197      -0.07249283      -1.36315985
H       -2.27125454      -0.93767858       1.28979514
H       -0.67850616       1.62190130       0.65953750
H       -0.03707833       1.86026027      -1.05290021
15
Frame=2 idx=008146 GeodesicLength=0.11832973884902445 rxn_smarts="[C:1]([C@:2]12[C@@:3]3([H:11])[C@:4]4([H:12])[C@@:5]3([H:13])[C@@:6]1([H:14])[C@:7]24[H:15])([H:8])([H:9])[H:10]>>[C:1]([C@@:2]12[C@:3]3([H:11])[C@@:4]([H:12])([C@:5]3([H:13])[C:6]1)[C:7]2([H:14])[H:15])([H:8])([H:9])[H:10]"
C        2.02301372      -0.02430094       0.06445234
C        0.53306813      -0.02671884       0.12259495
C       -0.50207780      -1.12741879      -0.24421863
C       -1.44815709      -0.03373674      -0.67438784
C       -1.44775736      -0.50428746       0.75235056
C       -0.32280507       0.41421457       1.29082539
C       -0.38735588       1.04154584      -0.43200416
H        2.40976910       0.92597940       0.43845399
H        2.42919259      -0.81957346       0.69220321
H        2.38420244      -0.16926570      -0.95656917
H       -0.41217380      -2.14681414      -0.58500778
H       -2.27491913      -0.07281817      -1.36756389
H       -2.27845297      -0.94235097       1.28528822
H       -0.66691157       1.63259349       0.67700991
H       -0.03863531       1.85295191      -1.06342711
15
Frame=3 idx=008146 GeodesicLength=0.17748947897279163 rxn_smarts="[C:1]([C@:2]12[C@@:3]3([H:11])[C@:4]4([H:12])[C@@:5]3([H:13])[C@@:6]1([H:14])[C@:7]24[H:15])([H:8])([H:9])[H:10]>>[C:1]([C@@:2]12[C@:3]3([H:11])[C@@:4]([H:12])([C@:5]3([H:13])[C:6]1)[C:7]2([H:14])[H:15])([H:8])([H:9])[H:10]"
C        2.02416823      -0.02242550       0.06288490
C        0.53442443      -0.02482388       0.11841323
C       -0.50203001      -1.12516079      -0.24138128
C       -1.44839640      -0.03164154      -0.67500093
C       -1.45595928      -0.50345923       0.75081623
C       -0.32399324       0.39728210       1.28861209
C       -0.38930984       1.04497002      -0.42928539
H        2.41116814       0.92851416       0.43505360
H        2.42914294      -0.81661221       0.69271779
H        2.38530919      -0.16794737      -0.95806326
H       -0.41184871      -2.14712174      -0.57434917
H       -2.27194983      -0.07316157      -1.37190780
H       -2.28549638      -0.94702780       1.28077319
H       -0.65481327       1.64316826       0.69469158
H       -0.04041596       1.84544710      -1.07397479
15
Frame=4 idx=008146 GeodesicLength=0.23665042936591893 rxn_smarts="[C:1]([C@:2]12[C@@:3]3([H:11])[C@:4]4([H:12])[C@@:5]3([H:13])[C@@:6]1([H:14])[C@:7]24[H:15])([H:8])([H:9])[H:10]>>[C:1]([C@@:2]12[C@:3]3([H:11])[C@@:4]([H:12])([C@:5]3([H:13])[C:6]1)[C:7]2([H:14])[H:15])([H:8])([H:9])[H:10]"
C        2.02526021      -0.02053300       0.06137863
C        0.53571460      -0.02289625       0.11426081
C       -0.50199258      -1.12290263      -0.23864540
C       -1.44867738      -0.02956004      -0.67562924
C       -1.46407631      -0.50261762       0.74924676
C       -0.32526769       0.38051335       1.28614257
C       -0.39128260       1.04840296      -0.42663094
H        2.41250200       0.93108054       0.43166471
H        2.42899279      -0.81358524       0.69336421
H        2.38639569      -0.16667421      -0.95947065
H       -0.41151625      -2.14736027      -0.56378849
H       -2.26904256      -0.07352430      -1.37619721
H       -2.29239413      -0.95170720       1.27623626
H       -0.64220423       1.65361410       0.71258535
H       -0.04241158       1.83774980      -1.08451737
15
Frame=5 idx=008146 GeodesicLength=0.2958152160639214 rxn_smarts="[C:1]([C@:2]12[C@@:3]3([H:11])[C@:4]4([H:12])[C@@:5]3([H:13])[C@@:6]1([H:14])[C@:7]24[H:15])([H:8])([H:9])[H:10]>>[C:1]([C@@:2]12[C@:3]3([H:11])[C@@:4]([H:12])([C@:5]3([H:13])[C:6]1)[C:7]2([H:14])[H:15])([H:8])([H:9])[H:10]"
C        2.02628964      -0.01862524       0.05993646
C        0.53693772      -0.02093654       0.11014113
C       -0.50196448      -1.12064819      -0.23601811
C       -1.44900500      -0.02749319      -0.67627464
C       -1.47210211      -0.50176604       0.74764545
C       -0.32662873       0.36392318       1.28342275
C       -0.39327534       1.05184486      -0.42405010
H        2.41377245       0.93367952       0.42828834
H        2.42874289      -0.81049449       0.69414885
H        2.38746092      -0.16545168      -0.96078990
H       -0.41117513      -2.14753698      -0.55333329
H       -2.26620736      -0.07390867      -1.38043327
H       -2.29913955      -0.95639223       1.27168137
H       -0.62908584       1.66393300       0.73067902
H       -0.04462006       1.82987269      -1.09504406
15
Frame=6 idx=008146 GeodesicLength=0.35498266528441225 rxn_smarts="[C:1]([C@:2]12[C@@:3]3([H:11])[C@:4]4([H:12])[C@@:5]3([H:13])[C@@:6]1([H:14])[C@:7]24[H:15])([H:8])([H:9])[H:10]>>[C:1]([C@@:2]12[C@:3]3([H:11])[C@@:4]([H:12])([C@:5]3([H:13])[C:6]1)[C:7]2([H:14])[H:15])([H:8])([H:9])[H:10]"
C        2.02725461      -0.01670268       0.05855953
C        0.53809223      -0.01894528       0.10605643
C       -0.50194469      -1.11839795      -0.23350495
C       -1.44938117      -0.02544251      -0.67693632
C       -1.48003187      -0.50090783       0.74601408
C       -0.32807839       0.34752222       1.28045527
C       -0.39528716       1.05529218      -0.42155051
H        2.41497868       0.93631096       0.42492036
H        2.42838983      -0.80733637       0.69507595
H        2.38850382      -0.16428440      -0.96201834
H       -0.41082473      -2.14765209      -0.54298822
H       -2.26344837      -0.07431732      -1.38461263
H       -2.30572880      -0.96108446       1.26710985
H       -0.61545928       1.67412155       0.74896038
H       -0.04703471       1.82182399      -1.10554087
15
Frame=7 idx=008146 GeodesicLength=0.4141484327345118 rxn_smarts="[C:1]([C@:2]12[C@@:3]3([H:11])[C@:4]4([H:12])[C@@:5]3([H:13])[C@@:6]1([H:14])[C@:7]24[H:15])([H:8])([H:9])[H:10]>>[C:1]([C@@:2]12[C@:3]3([H:11])[C@@:4]([H:12])([C@:5]3([H:13])[C:6]1)[C:7]2([H:14])[H:15])([H:8])([H:9])[H:10]"
C        2.02815432      -0.01476743       0.05725156
C        0.53917734      -0.01692193       0.10200838
C       -0.50193060      -1.11615386      -0.23110967
C       -1.44980895      -0.02341265      -0.67761414
C       -1.48785863      -0.50004628       0.74435603
C       -0.32961826       0.33132793       1.27724121
C       -0.39731766       1.05873965      -0.41914675
H        2.41612195       0.93896938       0.42156973
H        2.42792918      -0.80411655       0.69614572
H        2.38952556      -0.16317197      -0.96315164
H       -0.41046298      -2.14770439      -0.53276903
H       -2.26077704      -0.07475625      -1.38872678
H       -2.31215182      -0.96578383       1.26253228
H       -0.60133522       1.68418064       0.76740711
H       -0.04964717       1.81361753      -1.11599401
15
Frame=8 idx=008146 GeodesicLength=0.4733128866367707 rxn_smarts="[C:1]([C@:2]12[C@@:3]3([H:11])[C@:4]4([H:12])[C@@:5]3([H:13])[C@@:6]1([H:14])[C@:7]24[H:15])([H:8])([H:9])[H:10]>>[C:1]([C@@:2]12[C@:3]3([H:11])[C@@:4]([H:12])([C@:5]3([H:13])[C:6]1)[C:7]2([H:14])[H:15])([H:8])([H:9])[H:10]"
C        2.02898814      -0.01282015       0.05601371
C        0.54019226      -0.01486727       0.09799902
C       -0.50192134      -1.11391760      -0.22883693
C       -1.45029104      -0.02140546      -0.67830820
C       -1.49557919      -0.49918525       0.74267317
C       -0.33124931       0.31534970       1.27378530
C       -0.39936682       1.06218437      -0.41684648
H        2.41720271       0.94165548       0.41823252
H        2.42735970      -0.80083196       0.69736301
H        2.39052587      -0.16211995      -0.96418772
H       -0.41008920      -2.14769633      -0.52268070
H       -2.25819896      -0.07522804      -1.39277423
H       -2.31840650      -0.97049243       1.25795033
H       -0.58671520       1.69411009       0.78600881
H       -0.05245112       1.80526479      -1.12639161
15
Frame=9 idx=008146 GeodesicLength=0.5324763615246761 rxn_smarts="[C:1]([C@:2]12[C@@:3]3([H:11])[C@:4]4([H:12])[C@@:5]3([H:13])[C@@:6]1([H:14])[C@:7]24[H:15])([H:8])([H:9])[H:10]>>[C:1]([C@@:2]12[C@:3]3([H:11])[C@@:4]([H:12])([C@:5]3([H:13])[C:6]1)[C:7]2([H:14])[H:15])([H:8])([H:9])[H:10]"
C        2.02975420      -0.01086142       0.05484697
C        0.54113596      -0.01278200       0.09403018
C       -0.50191575      -1.11169058      -0.22669059
C       -1.45082906      -0.01942278      -0.67901880
C       -1.50319017      -0.49832877       0.74096755
C       -0.33297240       0.29959551       1.27009302
C       -0.40143454       1.06562316      -0.41465746
H        2.41821996       0.94436964       0.41490469
H        2.42667842      -0.79747966       0.69873259
H        2.39150298      -0.16113360      -0.96512479
H       -0.40970196      -2.14762964      -0.51272778
H       -2.25571808      -0.07573498      -1.39675399
H       -2.32449010      -0.97521271       1.25336611
H       -0.57159970       1.70390988       0.80475557
H       -0.05543976       1.79677794      -1.13672327
15
Frame=10 idx=008146 GeodesicLength=0.5916328971790561 rxn_smarts="[C:1]([C@:2]12[C@@:3]3([H:11])[C@:4]4([H:12])[C@@:5]3([H:13])[C@@:6]1([H:14])[C@:7]24[H:15])([H:8])([H:9])[H:10]>>[C:1]([C@@:2]12[C@:3]3([H:11])[C@@:4]([H:12])([C@:5]3([H:13])[C:6]1)[C:7]2([H:14])[H:15])([H:8])([H:9])[H:10]"
C        2.03045321      -0.00889393       0.05375356
C        0.54200853      -0.01066411       0.09010466
C       -0.50191036      -1.10947337      -0.22467349
C       -1.45142596      -0.01746849      -0.67974598
C       -1.51068768      -0.49748105       0.73924061
C       -0.33478869       0.28407843       1.26616762
C       -0.40352229       1.06905211      -0.41258977
H        2.41917784       0.94711009       0.41157998
H        2.42588258      -0.79405893       0.70026074
H        2.39245564      -0.16022746      -0.96595856
H       -0.40929468      -2.14750225      -0.50292300
H       -2.25334323      -0.07628113      -1.40066140
H       -2.33039712      -0.97994648       1.24878423
H       -0.55600185       1.71358161       0.82363298
H       -0.05860595       1.78817496      -1.14697217
15
Frame=11 idx=008146 GeodesicLength=0.6507881252007917 rxn_smarts="[C:1]([C@:2]12[C@@:3]3([H:11])[C@:4]4([H:12])[C@@:5]3([H:13])[C@@:6]1([H:14])[C@:7]24[H:15])([H:8])([H:9])[H:10]>>[C:1]([C@@:2]12[C@:3]3([H:11])[C@@:4]([H:12])([C@:5]3([H:13])[C:6]1)[C:7]2([H:14])[H:15])([H:8])([H:9])[H:10]"
C        2.03108316      -0.00691536       0.05273253
C        0.54280867      -0.00851717       0.08622288
C       -0.50190697      -1.10726834      -0.22278860
C       -1.45208282      -0.01554342      -0.68049000
C       -1.51807317      -0.49664587       0.73749372
C       -0.33669872       0.26879863       1.26201689
C       -0.40562942       1.07246811      -0.41064696
H        2.42007209       0.94988060       0.40825474
H        2.42497257      -0.79056185       0.70194972
H        2.39338439      -0.15939765      -0.96668956
H       -0.40887246      -2.14731941      -0.49326264
H       -2.25107425      -0.07686766      -1.40449869
H       -2.33613301      -0.98469619       1.24420221
H       -0.53990868       1.72312480       0.84263998
H       -0.06194138       1.77946077      -1.15713622
15
Frame=12 idx=008146 GeodesicLength=0.7099434319388291 rxn_smarts="[C:1]([C@:2]12[C@@:3]3([H:11])[C@:4]4([H:12])[C@@:5]3([H:13])[C@@:6]1([H:14])[C@:7]24[H:15])([H:8])([H:9])[H:10]>>[C:1]([C@@:2]12[C@:3]3([H:11])[C@@:4]([H:12])([C@:5]3([H:13])[C:6]1)[C:7]2([H:14])[H:15])([H:8])([H:9])[H:10]"
C        2.03164407      -0.00492603       0.05178517
C        0.54353608      -0.00634165       0.08238633
C       -0.50190498      -1.10507757      -0.22103850
C       -1.45280287      -0.01364959      -0.68125200
C       -1.52534593      -0.49582712       0.73572811
C       -0.33870214       0.25376198       1.25764705
C       -0.40775767       1.07586910      -0.40883575
H        2.42090346       0.95268253       0.40492565
H        2.42394857      -0.78698513       0.70380454
H        2.39428873      -0.15864944      -0.96731563
H       -0.40843413      -2.14708418      -0.48375134
H       -2.24891761      -0.07749677      -1.40826647
H       -2.34169733      -0.98946476       1.23962103
H       -0.52331788       1.73254205       0.86177157
H       -0.06544039       1.77064657      -1.16720976
15
Frame=13 idx=008146 GeodesicLength=0.7690980407676039 rxn_smarts="[C:1]([C@:2]12[C@@:3]3([H:11])[C@:4]4([H:12])[C@@:5]3([H:13])[C@@:6]1([H:14])[C@:7]24[H:15])([H:8])([H:9])[H:10]>>[C:1]([C@@:2]12[C@:3]3([H:11])[C@@:4]([H:12])([C@:5]3([H:13])[C:6]1)[C:7]2([H:14])[H:15])([H:8])([H:9])[H:10]"
C        2.03213465      -0.00292565       0.05091180
C        0.54419008      -0.00413786       0.07859601
C       -0.50190347      -1.10290169      -0.21942485
C       -1.45358727      -0.01178927      -0.68203218
C       -1.53250606      -0.49502852       0.73394469
C       -0.34079989       0.23897234       1.25306386
C       -0.40990796       1.07925154      -0.40716189
H        2.42167079       0.95551683       0.40158716
H        2.42280829      -0.78332317       0.70582932
H        2.39516792      -0.15798801      -0.96783476
H       -0.40797812      -2.14679655      -0.47439302
H       -2.24687597      -0.07817062      -1.41196381
H       -2.34709099      -0.99425442       1.23504116
H       -0.50622645       1.74183337       0.88102360
H       -0.06909554       1.76174170      -1.17718710
15
Frame=14 idx=008146 GeodesicLength=0.8282482012793962 rxn_smarts="[C:1]([C@:2]12[C@@:3]3([H:11])[C@:4]4([H:12])[C@@:5]3([H:13])[C@@:6]1([H:14])[C@:7]24[H:15])([H:8])([H:9])[H:10]>>[C:1]([C@@:2]12[C@:3]3([H:11])[C@@:4]([H:12])([C@:5]3([H:13])[C:6]1)[C:7]2([H:14])[H:15])([H:8])([H:9])[H:10]"
C        2.03255527      -0.00091540       0.05011618
C        0.54477088      -0.00190431       0.07485132
C       -0.50190051      -1.10074226      -0.21794773
C       -1.45443906      -0.00996718      -0.68283165
C       -1.53955183      -0.49425351       0.73214549
C       -0.34299108       0.22443934       1.24827140
C       -0.41208213       1.08261137      -0.40563766
H        2.42237544       0.95838048       0.39824590
H        2.42154853      -0.77958059       0.70802443
H        2.39602564      -0.15741596      -0.96824135
H       -0.40750213      -2.14645587      -0.46520141
H       -2.24496118      -0.07889306      -1.41558464
H       -2.35230765      -0.99906880       1.23047161
H       -0.48864107       1.75100437       0.90038318
H       -0.07289911       1.75276139      -1.18706507
15
Frame=15 idx=008146 GeodesicLength=0.887399294779015 rxn_smarts="[C:1]([C@:2]12[C@@:3]3([H:11])[C@:4]4([H:12])[C@@:5]3([H:13])[C@@:6]1([H:14])[C@:7]24[H:15])([H:8])([H:9])[H:10]>>[C:1]([C@@:2]12[C@:3]3([H:11])[C@@:4]([H:12])([C@:5]3([H:13])[C:6]1)[C:7]2([H:14])[H:15])([H:8])([H:9])[H:10]"
C        2.03290499       0.00110696       0.04939598
C        0.54527754       0.00035714       0.07115470
C       -0.50189702      -1.09860085      -0.21660924
C       -1.45535960      -0.00818351      -0.68365136
C       -1.54648758      -0.49350632       0.73032988
C       -0.34527691       0.21015895       1.24327877
C       -0.41428216       1.08594767      -0.40426166
H        2.42301586       0.96128091       0.39488492
H        2.42017142      -0.77574150       0.71039952
H        2.39685768      -0.15694152      -0.96853687
H       -0.40700676      -2.14606661      -0.45617195
H       -2.24317051      -0.07966464      -1.41913611
H       -2.35735751      -1.00391006       1.22590408
H       -0.47054424       1.76005372       0.91986045
H       -0.07684518       1.74370967      -1.19684112
15
Frame=16 idx=008146 GeodesicLength=0.9465546108631631 rxn_smarts="[C:1]([C@:2]12[C@@:3]3([H:11])[C@:4]4([H:12])[C@@:5]3([H:13])[C@@:6]1([H:14])[C@:7]24[H:15])([H:8])([H:9])[H:10]>>[C:1]([C@@:2]12[C@:3]3([H:11])[C@@:4]([H:12])([C@:5]3([H:13])[C:6]1)[C:7]2([H:14])[H:15])([H:8])([H:9])[H:10]"
C        2.03318111       0.00314418       0.04874857
C        0.54570870       0.00264394       0.06750796
C       -0.50189443      -1.09647806      -0.21541025
C       -1.45634843      -0.00643808      -0.68449172
C       -1.55331697      -0.49279133       0.72849710
C       -0.34765759       0.19612449       1.23809452
C       -0.41650930       1.08925847      -0.40303180
H        2.42358517       0.96422813       0.39148113
H        2.41867567      -0.77178710       0.71296664
H        2.39766015      -0.15657370      -0.96872151
H       -0.40649385      -2.14563073      -0.44729917
H       -2.24149838      -0.08048596      -1.42262410
H       -2.36225167      -1.00878009       1.22132754
H       -0.45191355       1.76897560       0.93946675
H       -0.08092662       1.73459024      -1.20651166
