18
Frame=0 idx=008958 GeodesicLength=0.0 rxn_smarts="[C:1]([C:2]([N:3]1[C:4]([H:13])([H:14])[C@:5]1([C:6]([O:7][H:18])([H:16])[H:17])[H:15])([H:11])[H:12])([H:8])([H:9])[H:10]>>[C:1]([C-:2]([N+:3]1=[C:4]([H:14])[C@:5]1([C:6]([O:7][H:18])([H:16])[H:17])[H:15])[H:12])([H:8])([H:9])[H:10].[H:11][H:13]"
C       -1.96750921      -0.60571723      -0.89450655
C       -1.35256796      -0.47473182       0.45878971
N       -0.06472851      -0.21992285       0.59787408
C        0.66878423       0.53909995       1.44730628
C        0.84180696       0.72845853      -0.01260246
C        1.94845906       0.15397137      -0.87053806
O        2.56366968      -0.97918663      -0.31293514
H       -3.00849825      -0.28339229      -0.86020117
H       -1.95839668      -1.64205912      -1.24727925
H       -1.44137228       0.00930828      -1.62518018
H       -1.52958096       1.27066697       1.39774806
H       -1.82184657      -0.97817419       1.29813452
H       -0.74277547       1.39521898       1.72708468
H        1.33932884       0.20449648       2.22329740
H        0.37155900       1.62389070      -0.43269957
H        1.55219306      -0.06503666      -1.87300548
H        2.72661835       0.91088083      -0.98751676
H        1.87485673      -1.58777131      -0.03377006
18
Frame=1 idx=008958 GeodesicLength=0.06015610844118195 rxn_smarts="[C:1]([C:2]([N:3]1[C:4]([H:13])([H:14])[C@:5]1([C:6]([O:7][H:18])([H:16])[H:17])[H:15])([H:11])[H:12])([H:8])([H:9])[H:10]>>[C:1]([C-:2]([N+:3]1=[C:4]([H:14])[C@:5]1([C:6]([O:7][H:18])([H:16])[H:17])[H:15])[H:12])([H:8])([H:9])[H:10].[H:11][H:13]"
C       -1.96878735      -0.60073155      -0.89385787
C       -1.35514175      -0.46511087       0.46044202
N       -0.06233526      -0.21638992       0.59478562
C        0.66785340       0.55312001       1.44276661
C        0.84256290       0.73179276      -0.01830707
C        1.95097673       0.15021820      -0.86938068
O        2.55764460      -0.98444124      -0.30531871
H       -3.01235922      -0.28641433      -0.86066460
H       -1.95012471      -1.63638411      -1.24780383
H       -1.44743193       0.01796215      -1.62494105
H       -1.54272033       1.24947029       1.41132147
H       -1.81138042      -0.99370821       1.29186708
H       -0.74233052       1.39662371       1.73905481
H        1.34478830       0.21492307       2.21193796
H        0.37355636       1.62425019      -0.44513755
H        1.55843484      -0.06961045      -1.87311499
H        2.73351098       0.90301217      -0.98405265
H        1.86328337      -1.58858186      -0.02959658
18
Frame=2 idx=008958 GeodesicLength=0.12028980454239029 rxn_smarts="[C:1]([C:2]([N:3]1[C:4]([H:13])([H:14])[C@:5]1([C:6]([O:7][H:18])([H:16])[H:17])[H:15])([H:11])[H:12])([H:8])([H:9])[H:10]>>[C:1]([C-:2]([N+:3]1=[C:4]([H:14])[C@:5]1([C:6]([O:7][H:18])([H:16])[H:17])[H:15])[H:12])([H:8])([H:9])[H:10].[H:11][H:13]"
C       -1.97013753      -0.59565557      -0.89315039
C       -1.35764108      -0.45592074       0.46215315
N       -0.05996835      -0.21289077       0.59165707
C        0.66684429       0.56719224       1.43803845
C        0.84327873       0.73503124      -0.02413636
C        1.95349870       0.14640048      -0.86819536
O        2.55175276      -0.98949803      -0.29749263
H       -3.01619398      -0.28926292      -0.86089503
H       -1.94207797      -1.63043283      -1.24856409
H       -1.45363532       0.02680595      -1.62455662
H       -1.55564090       1.22787740       1.42491292
H       -1.80081419      -1.00890040       1.28517105
H       -0.74174170       1.39776840       1.75128190
H        1.34999895       0.22567747       2.20054301
H        0.37548841       1.62438099      -0.45781787
H        1.56474207      -0.07450635      -1.87314736
H        2.74025840       0.89516891      -0.98064294
H        1.85198871      -1.58923545      -0.02515889
18
Frame=3 idx=008958 GeodesicLength=0.1803525184788656 rxn_smarts="[C:1]([C:2]([N:3]1[C:4]([H:13])([H:14])[C@:5]1([C:6]([O:7][H:18])([H:16])[H:17])[H:15])([H:11])[H:12])([H:8])([H:9])[H:10]>>[C:1]([C-:2]([N+:3]1=[C:4]([H:14])[C@:5]1([C:6]([O:7][H:18])([H:16])[H:17])[H:15])[H:12])([H:8])([H:9])[H:10].[H:11][H:13]"
C       -1.97155561      -0.59051424      -0.89239144
C       -1.36007496      -0.44714144       0.46391888
N       -0.05762707      -0.20943933       0.58849078
C        0.66575656       0.58128860       1.43313376
C        0.84395306       0.73817324      -0.03007282
C        1.95601944       0.14254416      -0.86698452
O        2.54600562      -0.99433410      -0.28948110
H       -3.01998017      -0.29188349      -0.86094297
H       -1.93432228      -1.62425970      -1.24949730
H       -1.45991553       0.03572916      -1.62406122
H       -1.56832770       1.20592401       1.43845669
H       -1.79020702      -1.02369117       1.27809226
H       -0.74097138       1.39863829       1.76379611
H        1.35495901       0.23669488       2.18912170
H        0.37735410       1.62428973      -0.47070208
H        1.57109673      -0.07968502      -1.87310251
H        2.74684709       0.88739098      -0.97728822
H        1.84099012      -1.58972457      -0.02048599
18
Frame=4 idx=008958 GeodesicLength=0.24029215150843772 rxn_smarts="[C:1]([C:2]([N:3]1[C:4]([H:13])([H:14])[C@:5]1([C:6]([O:7][H:18])([H:16])[H:17])[H:15])([H:11])[H:12])([H:8])([H:9])[H:10]>>[C:1]([C-:2]([N+:3]1=[C:4]([H:14])[C@:5]1([C:6]([O:7][H:18])([H:16])[H:17])[H:15])[H:12])([H:8])([H:9])[H:10].[H:11][H:13]"
C       -1.97303719      -0.58533710      -0.89158959
C       -1.36245631      -0.43874828       0.46573384
N       -0.05531150      -0.20604871       0.58529022
C        0.66459288       0.59537954       1.42806917
C        0.84458508       0.74122119      -0.03609580
C        1.95853275       0.13867757      -0.86575064
O        2.54041128      -0.99893236      -0.28131272
H       -3.02369912      -0.29422829      -0.86086395
H       -1.92691916      -1.61792892      -1.25053509
H       -1.46620312       0.04461614      -1.62349377
H       -1.58076783       1.18366496       1.45187728
H       -1.77961683      -1.03802178       1.27068127
H       -0.73997807       1.39921510       1.77663216
H        1.35967130       0.24790586       2.17768697
H        0.37915318       1.62399054      -0.48374656
H        1.57747737      -0.08509784      -1.87298318
H        2.75326687       0.87971998      -0.97398510
H        1.83029842      -1.59004760      -0.01561451
18
Frame=5 idx=008958 GeodesicLength=0.3002881035265654 rxn_smarts="[C:1]([C:2]([N:3]1[C:4]([H:13])([H:14])[C@:5]1([C:6]([O:7][H:18])([H:16])[H:17])[H:15])([H:11])[H:12])([H:8])([H:9])[H:10]>>[C:1]([C-:2]([N+:3]1=[C:4]([H:14])[C@:5]1([C:6]([O:7][H:18])([H:16])[H:17])[H:15])[H:12])([H:8])([H:9])[H:10].[H:11][H:13]"
C       -1.97454482      -0.58016926      -0.89074732
C       -1.36478674      -0.43069427       0.46760466
N       -0.05303279      -0.20271211       0.58206941
C        0.66335426       0.60942043       1.42287205
C        0.84517227       0.74418057      -0.04216665
C        1.96101512       0.13483214      -0.86449799
O        2.53493341      -1.00328091      -0.27305348
H       -3.02729827      -0.29627224      -0.86072445
H       -1.91988705      -1.61152787      -1.25158273
H       -1.47239097       0.05331970      -1.62289447
H       -1.59298764       1.16115574       1.46507126
H       -1.76911747      -1.05183524       1.26298032
H       -0.73867136       1.39955181       1.78983603
H        1.36412898       0.25920696       2.16623950
H        0.38089497       1.62350178      -0.49687118
H        1.58384682      -0.09066439      -1.87278552
H        2.75949758       0.87217668      -0.97072712
H        1.81987369      -1.59018951      -0.01062234
18
Frame=6 idx=008958 GeodesicLength=0.3602737497201287 rxn_smarts="[C:1]([C:2]([N:3]1[C:4]([H:13])([H:14])[C@:5]1([C:6]([O:7][H:18])([H:16])[H:17])[H:15])([H:11])[H:12])([H:8])([H:9])[H:10]>>[C:1]([C-:2]([N+:3]1=[C:4]([H:14])[C@:5]1([C:6]([O:7][H:18])([H:16])[H:17])[H:15])[H:12])([H:8])([H:9])[H:10].[H:11][H:13]"
C       -1.97609186      -0.57502173      -0.88987938
C       -1.36708470      -0.42296515       0.46951926
N       -0.05078809      -0.19943401       0.57883032
C        0.66205189       0.62341233       1.41755369
C        0.84571715       0.74706107      -0.04828156
C        1.96346915       0.13101605      -0.86322614
O        2.52958041      -1.00739338      -0.26470170
H       -3.03080648      -0.29803796      -0.86055085
H       -1.91322178      -1.60508329      -1.25264086
H       -1.47848991       0.06183751      -1.62228157
H       -1.60500043       1.13844615       1.47798814
H       -1.75872277      -1.06512353       1.25503607
H       -0.73701451       1.39961885       1.80344621
H        1.36835927       0.27058617       2.15479706
H        0.38257874       1.62284572      -0.51007029
H        1.59019480      -0.09636923      -1.87251980
H        2.76555116       0.86478007      -0.96750629
H        1.80971795      -1.59017566      -0.00551229
18
Frame=7 idx=008958 GeodesicLength=0.4198941736466181 rxn_smarts="[C:1]([C:2]([N:3]1[C:4]([H:13])([H:14])[C@:5]1([C:6]([O:7][H:18])([H:16])[H:17])[H:15])([H:11])[H:12])([H:8])([H:9])[H:10]>>[C:1]([C-:2]([N+:3]1=[C:4]([H:14])[C@:5]1([C:6]([O:7][H:18])([H:16])[H:17])[H:15])[H:12])([H:8])([H:9])[H:10].[H:11][H:13]"
C       -1.97769136      -0.56987953      -0.88897818
C       -1.36935870      -0.41555120       0.47146743
N       -0.04857287      -0.19622916       0.57555731
C        0.66066539       0.63735580       1.41209118
C        0.84621793       0.74984968      -0.05445542
C        1.96591205       0.12722887      -0.86193157
O        2.52437451      -1.01125591      -0.25624339
H       -3.03424307      -0.29951342      -0.86032108
H       -1.90693161      -1.59857738      -1.25370572
H       -1.48451334       0.07019013      -1.62164254
H       -1.61678444       1.11554939       1.49063879
H       -1.74843773      -1.07789370       1.24687611
H       -0.73503107       1.39935543       1.81743590
H        1.37234254       0.28205673       2.14334358
H        0.38420256       1.62199832      -0.52336199
H        1.59655423      -0.10222010      -1.87218025
H        2.77144026       0.85753530      -0.96431606
H        1.79985472      -1.58999924      -0.00027411
18
Frame=8 idx=008958 GeodesicLength=0.48014138032452497 rxn_smarts="[C:1]([C:2]([N:3]1[C:4]([H:13])([H:14])[C@:5]1([C:6]([O:7][H:18])([H:16])[H:17])[H:15])([H:11])[H:12])([H:8])([H:9])[H:10]>>[C:1]([C-:2]([N+:3]1=[C:4]([H:14])[C@:5]1([C:6]([O:7][H:18])([H:16])[H:17])[H:15])[H:12])([H:8])([H:9])[H:10].[H:11][H:13]"
C       -1.97924055      -0.56485543      -0.88807586
C       -1.37161207      -0.40836308       0.47345934
N       -0.04642067      -0.19304282       0.57231882
C        0.65925197       0.65117943       1.40659062
C        0.84667307       0.75259583      -0.06058498
C        1.96825574       0.12351990      -0.86063105
O        2.51918063      -1.01491215      -0.24782980
H       -3.03750378      -0.30078278      -0.86021039
H       -1.90092229      -1.59219299      -1.25464498
H       -1.49027554       0.07814021      -1.62106393
H       -1.62851387       1.09260027       1.50276559
H       -1.73837565      -1.09004380       1.23857536
H       -0.73243509       1.39895078       1.83197714
H        1.37614491       0.29341468       2.13191871
H        0.38578549       1.62106314      -0.53656187
H        1.60276796      -0.10804830      -1.87178456
H        2.77711470       0.85045201      -0.96115312
H        1.79012507      -1.58967489       0.00493497
18
Frame=9 idx=008958 GeodesicLength=0.5401835668653442 rxn_smarts="[C:1]([C:2]([N:3]1[C:4]([H:13])([H:14])[C@:5]1([C:6]([O:7][H:18])([H:16])[H:17])[H:15])([H:11])[H:12])([H:8])([H:9])[H:10]>>[C:1]([C-:2]([N+:3]1=[C:4]([H:14])[C@:5]1([C:6]([O:7][H:18])([H:16])[H:17])[H:15])[H:12])([H:8])([H:9])[H:10].[H:11][H:13]"
C       -1.98080983      -0.55987839      -0.88715997
C       -1.37385486      -0.40143141       0.47548603
N       -0.04430960      -0.18990618       0.56907092
C        0.65777217       0.66493496       1.40098625
C        0.84708426       0.75527318      -0.06673600
C        1.97056127       0.11985917      -0.85931148
O        2.51407959      -1.01834681      -0.23936647
H       -3.04067635      -0.30180938      -0.86011906
H       -1.89523653      -1.58583442      -1.25554383
H       -1.49590087       0.08585152      -1.62050410
H       -1.64011217       1.06952687       1.51453601
H       -1.72847192      -1.10167778       1.23011272
H       -0.72935920       1.39829687       1.84695968
H        1.37973673       0.30479330       2.12049425
H        0.38731633       1.61998112      -0.54978655
H        1.60894257      -0.11394931      -1.87132165
H        2.78262293       0.84352196      -0.95800813
H        1.78061549      -1.58920528       0.01021136
18
Frame=10 idx=008958 GeodesicLength=0.6000844262854076 rxn_smarts="[C:1]([C:2]([N:3]1[C:4]([H:13])([H:14])[C@:5]1([C:6]([O:7][H:18])([H:16])[H:17])[H:15])([H:11])[H:12])([H:8])([H:9])[H:10]>>[C:1]([C-:2]([N+:3]1=[C:4]([H:14])[C@:5]1([C:6]([O:7][H:18])([H:16])[H:17])[H:15])[H:12])([H:8])([H:9])[H:10].[H:11][H:13]"
C       -1.98240714      -0.55493135      -0.88623317
C       -1.37608045      -0.39475302       0.47754051
N       -0.04224297      -0.18680147       0.56581274
C        0.65622485       0.67865008       1.39526458
C        0.84745362       0.75788442      -0.07292355
C        1.97283410       0.11622616      -0.85796515
O        2.50905243      -1.02158372      -0.23082735
H       -3.04379757      -0.30268348      -0.86001671
H       -1.88978375      -1.57945611      -1.25646981
H       -1.50147443       0.09343969      -1.61992996
H       -1.65163261       1.04629360       1.52595344
H       -1.71869713      -1.11286568       1.22149090
H       -0.72575475       1.39744113       1.86239269
H        1.38312875       0.31623391       2.10905864
H        0.38880339       1.61874896      -0.56306517
H        1.61509458      -0.11995041      -1.87078623
H        2.78798491       0.83671136      -0.95487093
H        1.77129417      -1.58860407       0.01557453
18
Frame=11 idx=008958 GeodesicLength=0.6599151476664027 rxn_smarts="[C:1]([C:2]([N:3]1[C:4]([H:13])([H:14])[C@:5]1([C:6]([O:7][H:18])([H:16])[H:17])[H:15])([H:11])[H:12])([H:8])([H:9])[H:10]>>[C:1]([C-:2]([N+:3]1=[C:4]([H:14])[C@:5]1([C:6]([O:7][H:18])([H:16])[H:17])[H:15])[H:12])([H:8])([H:9])[H:10].[H:11][H:13]"
C       -1.98403727      -0.54998389      -0.88529551
C       -1.37828318      -0.38832666       0.47962308
N       -0.04022232      -0.18370692       0.56254569
C        0.65460439       0.69236161       1.38940690
C        0.84778295       0.76042968      -0.07916626
C        1.97507856       0.11259278      -0.85658578
O        2.50408521      -1.02464189      -0.22217875
H       -3.04689696      -0.30347479      -0.85986843
H       -1.88447718      -1.57299573      -1.25749693
H       -1.50707209       0.10103600      -1.61930029
H       -1.66313980       1.02280184       1.53708289
H       -1.70902001      -1.12369140       1.21267934
H       -0.72157401       1.39645030       1.87824416
H        1.38632895       0.32779582       2.09759335
H        0.39025175       1.61735060      -0.57643933
H        1.62123799      -0.12610098      -1.87016749
H        2.79321409       0.82998024      -0.95174526
H        1.76213895      -1.58787662       0.02106862
18
Frame=12 idx=008958 GeodesicLength=0.7197558410402493 rxn_smarts="[C:1]([C:2]([N:3]1[C:4]([H:13])([H:14])[C@:5]1([C:6]([O:7][H:18])([H:16])[H:17])[H:15])([H:11])[H:12])([H:8])([H:9])[H:10]>>[C:1]([C-:2]([N+:3]1=[C:4]([H:14])[C@:5]1([C:6]([O:7][H:18])([H:16])[H:17])[H:15])[H:12])([H:8])([H:9])[H:10].[H:11][H:13]"
C       -1.98565163      -0.54511515      -0.88435958
C       -1.38048937      -0.38209512       0.48172768
N       -0.03826308      -0.18062167       0.55929179
C        0.65292933       0.70600287       1.38347045
C        0.84806390       0.76293015      -0.08540600
C        1.97725619       0.10901376      -0.85518447
O        2.49912970      -1.02752177      -0.21351923
H       -3.04990377      -0.30415367      -0.85978757
H       -1.87935719      -1.56659744      -1.25847377
H       -1.51252466       0.10839018      -1.61870104
H       -1.67468248       0.99925419       1.54772557
H       -1.69951148      -1.13402950       1.20377393
H       -0.71669719       1.39527928       1.89463843
H        1.38936081       0.33933813       2.08612042
H        0.39165811       1.61584422      -0.58978972
H        1.62730447      -0.13226647      -1.86948490
H        2.79828574       0.82337572      -0.94860916
H        1.75309260      -1.58702770       0.02656717
18
Frame=13 idx=008958 GeodesicLength=0.7795439071479957 rxn_smarts="[C:1]([C:2]([N:3]1[C:4]([H:13])([H:14])[C@:5]1([C:6]([O:7][H:18])([H:16])[H:17])[H:15])([H:11])[H:12])([H:8])([H:9])[H:10]>>[C:1]([C-:2]([N+:3]1=[C:4]([H:14])[C@:5]1([C:6]([O:7][H:18])([H:16])[H:17])[H:15])[H:12])([H:8])([H:9])[H:10].[H:11][H:13]"
C       -1.98727983      -0.54028807      -0.88342932
C       -1.38268946      -0.37607353       0.48385458
N       -0.03635976      -0.17753546       0.55604577
C        0.65119471       0.71961924       1.37742994
C        0.84830184       0.76538283      -0.09167152
C        1.97938717       0.10545872      -0.85375038
O        2.49419434      -1.03024068      -0.20479535
H       -3.05287511      -0.30478205      -0.85972675
H       -1.87436659      -1.56019322      -1.25950036
H       -1.51794777       0.11565993      -1.61809164
H       -1.68629633       0.97553445       1.55798209
H       -1.69013107      -1.14398556       1.19473865
H       -0.71110191       1.39401016       1.91152040
H        1.39222857       0.35093823       2.07462965
H        0.39302691       1.61421073      -0.60317756
H        1.63333078      -0.13850987      -1.86872725
H        2.80322634       0.81686394      -0.94545902
H        1.74415715      -1.58606980       0.03212808
18
Frame=14 idx=008958 GeodesicLength=0.8393164621056325 rxn_smarts="[C:1]([C:2]([N:3]1[C:4]([H:13])([H:14])[C@:5]1([C:6]([O:7][H:18])([H:16])[H:17])[H:15])([H:11])[H:12])([H:8])([H:9])[H:10]>>[C:1]([C-:2]([N+:3]1=[C:4]([H:14])[C@:5]1([C:6]([O:7][H:18])([H:16])[H:17])[H:15])[H:12])([H:8])([H:9])[H:10].[H:11][H:13]"
C       -1.98892722      -0.53546268      -0.88249961
C       -1.38488075      -0.37027079       0.48600213
N       -0.03451626      -0.17442855       0.55280752
C        0.64938779       0.73325022       1.37125629
C        0.84849598       0.76778112      -0.09798716
C        1.98147542       0.10189423      -0.85227527
O        2.48926934      -1.03281172      -0.19596384
H       -3.05583768      -0.30542437      -0.85964109
H       -1.86941718      -1.55369502      -1.26065788
H       -1.52342367       0.12299294      -1.61741582
H       -1.69805022       0.95152664       1.56792319
H       -1.68082645      -1.15365091       1.18553162
H       -0.70473881       1.39270013       1.92884457
H        1.39493199       0.36266935       2.06309447
H        0.39436169       1.61242314      -0.61665174
H        1.63933172      -0.14489214      -1.86787788
H        2.80804696       0.81039986      -0.94230109
H        1.73531736      -1.58500145       0.03781160
18
Frame=15 idx=008958 GeodesicLength=0.8990765791763164 rxn_smarts="[C:1]([C:2]([N:3]1[C:4]([H:13])([H:14])[C@:5]1([C:6]([O:7][H:18])([H:16])[H:17])[H:15])([H:11])[H:12])([H:8])([H:9])[H:10]>>[C:1]([C-:2]([N+:3]1=[C:4]([H:14])[C@:5]1([C:6]([O:7][H:18])([H:16])[H:17])[H:15])[H:12])([H:8])([H:9])[H:10].[H:11][H:13]"
C       -1.99054952      -0.53071633      -0.88158498
C       -1.38708279      -0.36463794       0.48816688
N       -0.03274282      -0.17130541       0.54960002
C        0.64753095       0.74683241       1.36500965
C        0.84864065       0.77014593      -0.10429437
C        1.98348476       0.09837284      -0.85077177
O        2.48431803      -1.03523180      -0.18712033
H       -3.05872273      -0.30603471      -0.85964500
H       -1.86456331      -1.54725029      -1.26180115
H       -1.52878889       0.13014957      -1.61675879
H       -1.70998894       0.92741114       1.57737149
H       -1.67167840      -1.16290921       1.17623880
H       -0.69749899       1.39132079       1.94671989
H        1.39749852       0.37439609       2.05153938
H        0.39565695       1.61053657      -0.63009829
H        1.64523523      -0.15128874      -1.86695598
H        2.81271910       0.80403303      -0.93912341
H        1.72653220      -1.58382395       0.04350798
18
Frame=16 idx=008958 GeodesicLength=0.9588288030200374 rxn_smarts="[C:1]([C:2]([N:3]1[C:4]([H:13])([H:14])[C@:5]1([C:6]([O:7][H:18])([H:16])[H:17])[H:15])([H:11])[H:12])([H:8])([H:9])[H:10]>>[C:1]([C-:2]([N+:3]1=[C:4]([H:14])[C@:5]1([C:6]([O:7][H:18])([H:16])[H:17])[H:15])[H:12])([H:8])([H:9])[H:10].[H:11][H:13]"
C       -1.99216051      -0.52601426      -0.88068974
C       -1.38929154      -0.35918627       0.49034956
N       -0.03104079      -0.16814991       0.54642492
C        0.64561618       0.76040757       1.35866925
C        0.84873511       0.77247399      -0.11061674
C        1.98542159       0.09486273      -0.84923242
O        2.47933643      -1.03751891      -0.17821864
H       -3.06156680      -0.30667883      -0.85970239
H       -1.85972729      -1.54078577      -1.26302443
H       -1.53413581       0.13727330      -1.61608043
H       -1.72217382       0.90307537       1.58640888
H       -1.66263773      -1.17185032       1.16682348
H       -0.68932944       1.38994795       1.96511235
H        1.39993240       0.38619021       2.03995165
H        0.39691468       1.60853460      -0.64356647
H        1.65105932      -0.15776063      -1.86595207
H        2.81725499       0.79772534      -0.93593156
H        1.71779303      -1.58254616       0.04927480
