19
Frame=0 idx=006360 GeodesicLength=0.0 rxn_smarts="[C:1]([C:2]([C@@:3]([O:4][H:14])([C:5]([C:6]([O:7][H:19])([H:17])[H:18])([H:15])[H:16])[H:13])([H:11])[H:12])([H:8])([H:9])[H:10]>>[C:1](/[C:2](=[C:3](/[O:4][H:14])[C:5]([C:6]([O:7][H:19])([H:17])[H:18])([H:13])[H:15])[H:12])([H:8])([H:9])[H:10].[H:11][H:16]"
C        2.37424900      -0.71005528      -0.17163621
C        1.54945410       0.21676739       0.65535477
C        0.10893031       0.06278289       0.71478241
O       -0.51512818       0.95216674       1.57232856
C       -0.61572941      -0.37532764      -0.44003534
C       -2.10255302      -0.32565830      -0.48643616
O       -2.54730859       1.02549406      -0.27757003
H        2.11730129      -0.61164074      -1.23176269
H        3.43545903      -0.49993978      -0.04921558
H        2.21471790      -1.76317682       0.09005050
H        1.10352752       1.44904638      -0.76683837
H        1.99295180       0.73114499       1.50115701
H        0.38454186      -0.89135717       1.30602107
H       -1.29970587       1.28542221       1.11099745
H       -0.13861885      -1.11466029      -1.06999003
H        0.44069153       1.20186920      -1.15478432
H       -2.56272830      -0.96474439       0.28291195
H       -2.44573528      -0.68494536      -1.46122703
H       -3.49431676       1.01681198      -0.12410796
19
Frame=1 idx=006360 GeodesicLength=0.14065430468132606 rxn_smarts="[C:1]([C:2]([C@@:3]([O:4][H:14])([C:5]([C:6]([O:7][H:19])([H:17])[H:18])([H:15])[H:16])[H:13])([H:11])[H:12])([H:8])([H:9])[H:10]>>[C:1](/[C:2](=[C:3](/[O:4][H:14])[C:5]([C:6]([O:7][H:19])([H:17])[H:18])([H:13])[H:15])[H:12])([H:8])([H:9])[H:10].[H:11][H:16]"
C        2.39258994      -0.71602838      -0.15040250
C        1.55034179       0.22650009       0.64075431
C        0.11372882       0.07447745       0.70992650
O       -0.50819333       0.94937945       1.58208589
C       -0.61975509      -0.36731451      -0.44139839
C       -2.10777077      -0.32506378      -0.47596739
O       -2.55234327       1.02403344      -0.25836049
H        2.19355411      -0.60468633      -1.22139701
H        3.45102626      -0.53578471       0.03134027
H        2.19885890      -1.76851443       0.08829087
H        1.09350256       1.45322424      -0.80605630
H        1.99177683       0.76733236       1.47166585
H        0.35275873      -0.93715895       1.24385745
H       -1.29815267       1.28382655       1.13133209
H       -0.14380634      -1.08132978      -1.10066211
H        0.40750754       1.19343357      -1.18714647
H       -2.55620176      -0.96876716       0.29612565
H       -2.45999728      -0.68235235      -1.44830225
H       -3.49942496       1.01479326      -0.10568598
19
Frame=2 idx=006360 GeodesicLength=0.2811441590648017 rxn_smarts="[C:1]([C:2]([C@@:3]([O:4][H:14])([C:5]([C:6]([O:7][H:19])([H:17])[H:18])([H:15])[H:16])[H:13])([H:11])[H:12])([H:8])([H:9])[H:10]>>[C:1](/[C:2](=[C:3](/[O:4][H:14])[C:5]([C:6]([O:7][H:19])([H:17])[H:18])([H:13])[H:15])[H:12])([H:8])([H:9])[H:10].[H:11][H:16]"
C        2.41070317      -0.72228006      -0.12814198
C        1.55146611       0.23629516       0.62490277
C        0.11892516       0.08340030       0.70553874
O       -0.49988629       0.94517352       1.59151077
C       -0.62385703      -0.35929860      -0.44339527
C       -2.11295459      -0.32439821      -0.46566933
O       -2.55697373       1.02249072      -0.23817102
H        2.27371245      -0.59714192      -1.20708640
H        3.46167765      -0.57292865       0.11572634
H        2.18308181      -1.77328881       0.08397472
H        1.08312074       1.45693557      -0.84571954
H        1.99101452       0.80620647       1.43784716
H        0.32090184      -0.98026231       1.17997486
H       -1.29499193       1.28120709       1.15158360
H       -0.15035175      -1.04784467      -1.13090096
H        0.37254005       1.18503409      -1.21885780
H       -2.54955911      -0.97321698       0.30856192
H       -2.47448851      -0.67890499      -1.43563649
H       -3.50408055       1.01282226      -0.08604210
19
Frame=3 idx=006360 GeodesicLength=0.42156034239323725 rxn_smarts="[C:1]([C:2]([C@@:3]([O:4][H:14])([C:5]([C:6]([O:7][H:19])([H:17])[H:18])([H:15])[H:16])[H:13])([H:11])[H:12])([H:8])([H:9])[H:10]>>[C:1](/[C:2](=[C:3](/[O:4][H:14])[C:5]([C:6]([O:7][H:19])([H:17])[H:18])([H:13])[H:15])[H:12])([H:8])([H:9])[H:10].[H:11][H:16]"
C        2.42862348      -0.72872055      -0.10480559
C        1.55287105       0.24630931       0.60751242
C        0.12457739       0.08967765       0.70133602
O       -0.49013184       0.93958780       1.60054789
C       -0.62808133      -0.35117224      -0.44619160
C       -2.11816279      -0.32362439      -0.45553442
O       -2.56124416       1.02089893      -0.21688160
H        2.35796806      -0.58939484      -1.18819388
H        3.46681159      -0.61096322       0.20368041
H        2.16790438      -1.77730007       0.07722487
H        1.07256768       1.46024638      -0.88617492
H        1.99046083       0.84692690       1.39983131
H        0.28916074      -1.02077557       1.11457100
H       -1.29022845       1.27754888       1.17182969
H       -0.15834642      -1.01446125      -1.16069553
H        0.33572915       1.17697848      -1.25005087
H       -2.54278982      -0.97811985       0.32024847
H       -2.48934328      -0.67456053      -1.42319564
H       -3.50834628       1.01091818      -0.06505805
19
Frame=4 idx=006360 GeodesicLength=0.5617466826328931 rxn_smarts="[C:1]([C:2]([C@@:3]([O:4][H:14])([C:5]([C:6]([O:7][H:19])([H:17])[H:18])([H:15])[H:16])[H:13])([H:11])[H:12])([H:8])([H:9])[H:10]>>[C:1](/[C:2](=[C:3](/[O:4][H:14])[C:5]([C:6]([O:7][H:19])([H:17])[H:18])([H:13])[H:15])[H:12])([H:8])([H:9])[H:10].[H:11][H:16]"
C        2.44637429      -0.73519901      -0.08030447
C        1.55455837       0.25663159       0.58826355
C        0.13080244       0.09342991       0.69700238
O       -0.47871346       0.93255389       1.60904320
C       -0.63248586      -0.34283260      -0.44990488
C       -2.12342382      -0.32266386      -0.44553499
O       -2.56512617       1.01927144      -0.19441532
H        2.44631463      -0.58168347      -1.16389356
H        3.46576231      -0.64934972       0.29508447
H        2.15386645      -1.78029884       0.06801013
H        1.06188384       1.46303113      -0.92781898
H        1.98986977       0.88858041       1.35783239
H        0.25782354      -1.05880336       1.04765773
H       -1.28372953       1.27277450       1.19206013
H       -0.16791264      -0.98145972      -1.18995403
H        0.29684812       1.16948554      -1.28081585
H       -2.53580797      -0.98337830       0.33121830
H       -2.50472628      -0.66921869      -1.41087422
H       -3.51217802       1.00912916      -0.04265597
19
Frame=5 idx=006360 GeodesicLength=0.7018435732844968 rxn_smarts="[C:1]([C:2]([C@@:3]([O:4][H:14])([C:5]([C:6]([O:7][H:19])([H:17])[H:18])([H:15])[H:16])[H:13])([H:11])[H:12])([H:8])([H:9])[H:10]>>[C:1](/[C:2](=[C:3](/[O:4][H:14])[C:5]([C:6]([O:7][H:19])([H:17])[H:18])([H:13])[H:15])[H:12])([H:8])([H:9])[H:10].[H:11][H:16]"
C        2.46395966      -0.74161867      -0.05458147
C        1.55658120       0.26733291       0.56678837
C        0.13766640       0.09485910       0.69221373
O       -0.46556075       0.92418188       1.61689301
C       -0.63710541      -0.33417919      -0.45464816
C       -2.12876208      -0.32151499      -0.43560274
O       -2.56865225       1.01759595      -0.17061183
H        2.53886469      -0.57441991      -1.13340391
H        3.45782962      -0.68761103       0.38958443
H        2.14148991      -1.78211485       0.05653268
H        1.05126419       1.46530780      -0.97111509
H        1.98912378       0.93024376       1.31221159
H        0.22693679      -1.09444964       0.97923864
H       -1.27548123       1.26690749       1.21231490
H       -0.17908142      -0.94884290      -1.21891699
H        0.25581197       1.16287776      -1.31130054
H       -2.52854686      -0.98906457       0.34156857
H       -2.52072422      -0.66289285      -1.39855442
H       -3.51561400       1.00740194      -0.01861074
19
Frame=6 idx=006360 GeodesicLength=0.84165124533247 rxn_smarts="[C:1]([C:2]([C@@:3]([O:4][H:14])([C:5]([C:6]([O:7][H:19])([H:17])[H:18])([H:15])[H:16])[H:13])([H:11])[H:12])([H:8])([H:9])[H:10]>>[C:1](/[C:2](=[C:3](/[O:4][H:14])[C:5]([C:6]([O:7][H:19])([H:17])[H:18])([H:13])[H:15])[H:12])([H:8])([H:9])[H:10].[H:11][H:16]"
C        2.48137563      -0.74784773      -0.02748984
C        1.55892804       0.27836672       0.54277160
C        0.14532154       0.09410485       0.68662885
O       -0.45036403       0.91436309       1.62390687
C       -0.64200732      -0.32511979      -0.46051060
C       -2.13420048      -0.32011049      -0.42570575
O       -2.57177106       1.01584455      -0.14536588
H        2.63526289      -0.56789278      -1.09567241
H        3.44238999      -0.72507223       0.48680957
H        2.13144469      -1.78259053       0.04296653
H        1.04071858       1.46681176      -1.01646796
H        1.98806601       0.97118052       1.26329098
H        0.19672590      -1.12779158       0.90909671
H       -1.26525967       1.25983928       1.23256473
H       -0.19197677      -0.91662965      -1.24771358
H        0.21235313       1.15736619      -1.34149829
H       -2.52090027      -0.99508387       0.35129981
H       -2.53752356      -0.65548228      -1.38611497
H       -3.51858324       1.00574399       0.00720362
19
Frame=7 idx=006360 GeodesicLength=0.9813389676625647 rxn_smarts="[C:1]([C:2]([C@@:3]([O:4][H:14])([C:5]([C:6]([O:7][H:19])([H:17])[H:18])([H:15])[H:16])[H:13])([H:11])[H:12])([H:8])([H:9])[H:10]>>[C:1](/[C:2](=[C:3](/[O:4][H:14])[C:5]([C:6]([O:7][H:19])([H:17])[H:18])([H:13])[H:15])[H:12])([H:8])([H:9])[H:10].[H:11][H:16]"
C        2.49855540      -0.75379237       0.00103994
C        1.56167846       0.28962627       0.51584397
C        0.15383643       0.09136175       0.67990874
O       -0.43307007       0.90319405       1.62994739
C       -0.64719080      -0.31557260      -0.46757325
C       -2.13969844      -0.31847877      -0.41575327
O       -2.57445344       1.01396568      -0.11851379
H        2.73529603      -0.56246212      -1.04976121
H        3.41868775      -0.76124260       0.58617345
H        2.12422238      -1.78161955       0.02763167
H        1.03037925       1.46758458      -1.06428045
H        1.98672138       1.01068274       1.21141011
H        0.16713897      -1.15892718       0.83712261
H       -1.25301473       1.25158924       1.25279665
H       -0.20660969      -0.88463214      -1.27667330
H        0.16641875       1.15326255      -1.37149150
H       -2.51272868      -1.00155942       0.36051778
H       -2.55511930      -0.64702636      -1.37339548
H       -3.52104966       1.00404625       0.03504994
19
Frame=8 idx=006360 GeodesicLength=1.1207926538371369 rxn_smarts="[C:1]([C:2]([C@@:3]([O:4][H:14])([C:5]([C:6]([O:7][H:19])([H:17])[H:18])([H:15])[H:16])[H:13])([H:11])[H:12])([H:8])([H:9])[H:10]>>[C:1](/[C:2](=[C:3](/[O:4][H:14])[C:5]([C:6]([O:7][H:19])([H:17])[H:18])([H:13])[H:15])[H:12])([H:8])([H:9])[H:10].[H:11][H:16]"
C        2.51544818      -0.75936483       0.03117755
C        1.56484045       0.30085972       0.48579407
C        0.16334358       0.08674701       0.67172262
O       -0.41339241       0.89054352       1.63483445
C       -0.65270532      -0.30547811      -0.47591388
C       -2.14525635      -0.31658012      -0.40572922
O       -2.57660460       1.01190969      -0.08994681
H        2.83809334      -0.55836012      -0.99452827
H        3.38630803      -0.79534644       0.68685921
H        2.12057191      -1.77921883       0.01101980
H        1.02025736       1.46735468      -1.11481860
H        1.98503855       1.04832098       1.15679515
H        0.13829485      -1.18791525       0.76298273
H       -1.23849589       1.24204931       1.27296917
H       -0.22309104      -0.85269253      -1.30603516
H        0.11784835       1.15076063      -1.40114379
H       -2.50394065      -1.00843518       0.36917540
H       -2.57365207      -0.63744919      -1.36029458
H       -3.52290628       1.00229506       0.06508015
19
Frame=9 idx=006360 GeodesicLength=1.2600867437003265 rxn_smarts="[C:1]([C:2]([C@@:3]([O:4][H:14])([C:5]([C:6]([O:7][H:19])([H:17])[H:18])([H:15])[H:16])[H:13])([H:11])[H:12])([H:8])([H:9])[H:10]>>[C:1](/[C:2](=[C:3](/[O:4][H:14])[C:5]([C:6]([O:7][H:19])([H:17])[H:18])([H:13])[H:15])[H:12])([H:8])([H:9])[H:10].[H:11][H:16]"
C        2.53193454      -0.76448828       0.06304581
C        1.56848277       0.31171469       0.45244899
C        0.17391750       0.08039891       0.66175460
O       -0.39119278       0.87639684       1.63839888
C       -0.65854423      -0.29478570      -0.48559448
C       -2.15080381      -0.31443021      -0.39559134
O       -2.57810487       1.00960318      -0.05956439
H        2.94259581      -0.55575493      -0.92898588
H        3.34488501      -0.82671724       0.78787333
H        2.12107300      -1.77546384      -0.00624359
H        1.01038732       1.46606651      -1.16822755
H        1.98306974       1.08369789       1.09959580
H        0.11017485      -1.21480821       0.68641981
H       -1.22154095       1.23118556       1.29301102
H       -0.24146673      -0.82055136      -1.33607545
H        0.06664511       1.15006404      -1.43034107
H       -2.49438375      -1.01576910       0.37727361
H       -2.59311177      -0.62675941      -1.34668311
H       -3.52401679       1.00040067       0.09748502
19
Frame=10 idx=006360 GeodesicLength=1.3992736365827838 rxn_smarts="[C:1]([C:2]([C@@:3]([O:4][H:14])([C:5]([C:6]([O:7][H:19])([H:17])[H:18])([H:15])[H:16])[H:13])([H:11])[H:12])([H:8])([H:9])[H:10]>>[C:1](/[C:2](=[C:3](/[O:4][H:14])[C:5]([C:6]([O:7][H:19])([H:17])[H:18])([H:13])[H:15])[H:12])([H:8])([H:9])[H:10].[H:11][H:16]"
C        2.54785491      -0.76909453       0.09673374
C        1.57270814       0.32173756       0.41583495
C        0.18561339       0.07247862       0.64974233
O       -0.36634250       0.86080151       1.64041407
C       -0.66468462      -0.28346952      -0.49662487
C       -2.15625764      -0.31207242      -0.38530573
O       -2.57881943       1.00693400      -0.02736226
H        3.04730750      -0.55452568      -0.85226230
H        3.29436249      -0.85485380       0.88794371
H        2.12623023      -1.77047315      -0.02349533
H        1.00080456       1.46366900      -1.22444686
H        1.98094375       1.11647214       1.03996894
H        0.08275602      -1.23956729       0.60722972
H       -1.20198273       1.21901554       1.31274548
H       -0.26177222      -0.78795736      -1.36696212
H        0.01289542       1.15129346      -1.45887167
H       -2.48392104      -1.02359227       0.38480120
H       -2.61346114      -0.61503758      -1.33242151
H       -3.52423509       0.99824176       0.13233852
19
Frame=11 idx=006360 GeodesicLength=1.5384152595021678 rxn_smarts="[C:1]([C:2]([C@@:3]([O:4][H:14])([C:5]([C:6]([O:7][H:19])([H:17])[H:18])([H:15])[H:16])[H:13])([H:11])[H:12])([H:8])([H:9])[H:10]>>[C:1](/[C:2](=[C:3](/[O:4][H:14])[C:5]([C:6]([O:7][H:19])([H:17])[H:18])([H:13])[H:15])[H:12])([H:8])([H:9])[H:10].[H:11][H:16]"
C        2.56297407      -0.77311882       0.13225520
C        1.57763785       0.33039761       0.37614768
C        0.19843216       0.06317704       0.63550598
O       -0.33880728       0.84391545       1.64065953
C       -0.67104987      -0.27151716      -0.50896894
C       -2.16145649      -0.30958301      -0.37485181
O       -2.57856958       1.00376046       0.00656690
H        3.15022247      -0.55447409      -0.76394081
H        3.23501593      -0.87929271       0.98559314
H        2.13636525      -1.76443417      -0.03990046
H        0.99154288       1.46026711      -1.28316387
H        1.97883672       1.14626067       0.97813530
H        0.05597202      -1.26210109       0.52533748
H       -1.17971215       1.20563911       1.33193144
H       -0.28397614      -0.75464338      -1.39877762
H       -0.04319846       1.15449810      -1.48650003
H       -2.47235272      -1.03195283       0.39174856
H       -2.63451906      -0.60244095      -1.31738821
H       -3.52335761       0.99564267       0.16961053
19
Frame=12 idx=006360 GeodesicLength=1.6776434068950965 rxn_smarts="[C:1]([C:2]([C@@:3]([O:4][H:14])([C:5]([C:6]([O:7][H:19])([H:17])[H:18])([H:15])[H:16])[H:13])([H:11])[H:12])([H:8])([H:9])[H:10]>>[C:1](/[C:2](=[C:3](/[O:4][H:14])[C:5]([C:6]([O:7][H:19])([H:17])[H:18])([H:13])[H:15])[H:12])([H:8])([H:9])[H:10].[H:11][H:16]"
C        2.57708797      -0.77656269       0.16956216
C        1.58340616       0.33712614       0.33381360
C        0.21231965       0.05271114       0.61897523
O       -0.30861678       0.82599751       1.63893428
C       -0.67757046      -0.25892189      -0.52255030
C       -2.16627947      -0.30705137      -0.36427052
O       -2.57725149       0.99993864       0.04204226
H        3.24893630      -0.55526237      -0.66421519
H        3.16790845      -0.89958735       1.07915294
H        2.15169885      -1.75776325      -0.05424819
H        0.98276126       1.45594168      -1.34388398
H        1.97697657       1.17272573       0.91440329
H        0.02972153      -1.28226992       0.44072131
H       -1.15471639       1.19121909       1.35030790
H       -0.30800510      -0.72034116      -1.43150994
H       -0.10140348       1.15973273      -1.51284317
H       -2.45957499      -1.04088495       0.39801199
H       -2.65611919      -0.58916485      -1.30154571
H       -3.52127937       0.99241714       0.20914204
19
Frame=13 idx=006360 GeodesicLength=1.8170544688362296 rxn_smarts="[C:1]([C:2]([C@@:3]([O:4][H:14])([C:5]([C:6]([O:7][H:19])([H:17])[H:18])([H:15])[H:16])[H:13])([H:11])[H:12])([H:8])([H:9])[H:10]>>[C:1](/[C:2](=[C:3](/[O:4][H:14])[C:5]([C:6]([O:7][H:19])([H:17])[H:18])([H:13])[H:15])[H:12])([H:8])([H:9])[H:10].[H:11][H:16]"
C        2.58989655      -0.77942333       0.20846368
C        1.59016649       0.34140288       0.28942105
C        0.22715490       0.04138213       0.60023492
O       -0.27596733       0.80754136       1.63505590
C       -0.68409412      -0.24569005      -0.53719764
C       -2.17049888      -0.30462550      -0.35358700
O       -2.57475146       0.99525932       0.07876876
H        3.34100086      -0.55642359      -0.55397700
H        3.09425094      -0.91567689       1.16713860
H        2.17197485      -1.75079680      -0.06561230
H        0.97466393       1.45094973      -1.40591930
H        1.97569018       1.19547728       0.84923078
H        0.00383274      -1.29983576       0.35367653
H       -1.12711399       1.17608400       1.36752842
H       -0.33366112      -0.68481838      -1.46498057
H       -0.16142316       1.16694100      -1.53757281
H       -2.44538071      -1.05045699       0.40354641
H       -2.67787811      -0.57554406      -1.28486023
H       -3.51786257       0.98825366       0.25064179
19
Frame=14 idx=006360 GeodesicLength=1.9568070236048287 rxn_smarts="[C:1]([C:2]([C@@:3]([O:4][H:14])([C:5]([C:6]([O:7][H:19])([H:17])[H:18])([H:15])[H:16])[H:13])([H:11])[H:12])([H:8])([H:9])[H:10]>>[C:1](/[C:2](=[C:3](/[O:4][H:14])[C:5]([C:6]([O:7][H:19])([H:17])[H:18])([H:13])[H:15])[H:12])([H:8])([H:9])[H:10].[H:11][H:16]"
C        2.60123031      -0.78175645       0.24869712
C        1.59805817       0.34279278       0.24368181
C        0.24277107       0.02948247       0.57949800
O       -0.24113243       0.78909818       1.62891313
C       -0.69050488      -0.23182219      -0.55269596
C       -2.17398237      -0.30244662      -0.34288126
O       -2.57109248       0.98954773       0.11641921
H        3.42420141      -0.55736777      -0.43481385
H        3.01589158      -0.92763221       1.24831128
H        2.19676510      -1.74404269      -0.07287908
H        0.96765578       1.44539859      -1.46862603
H        1.97533783       1.21424216       0.78311924
H       -0.02191582      -1.31458280       0.26455253
H       -1.09716872       1.16058015       1.38331059
H       -0.36071120      -0.64786054      -1.49890734
H       -0.22303495       1.17612741      -1.56023272
H       -2.42972631      -1.06073309       0.40821433
H       -2.69949401      -0.56189671      -1.26739065
H       -3.51314809       0.98287161       0.29370965
19
Frame=15 idx=006360 GeodesicLength=2.0969663483388894 rxn_smarts="[C:1]([C:2]([C@@:3]([O:4][H:14])([C:5]([C:6]([O:7][H:19])([H:17])[H:18])([H:15])[H:16])[H:13])([H:11])[H:12])([H:8])([H:9])[H:10]>>[C:1](/[C:2](=[C:3](/[O:4][H:14])[C:5]([C:6]([O:7][H:19])([H:17])[H:18])([H:13])[H:15])[H:12])([H:8])([H:9])[H:10].[H:11][H:16]"
C        2.61084173      -0.78359729       0.28993224
C        1.60717677       0.34101879       0.19732197
C        0.25897660       0.01736480       0.55710638
O       -0.20447862       0.77136496       1.62046491
C       -0.69663132      -0.21730310      -0.56877342
C       -2.17651377      -0.30067302      -0.33221910
O       -2.56629094       0.98256924       0.15466715
H        3.49680387      -0.55759448      -0.30871259
H        2.93441968      -0.93584591       1.32194472
H        2.22523747      -1.73779410      -0.07551478
H        0.96219101       1.43937868      -1.53142117
H        1.97630182       1.22879656       0.71661794
H       -0.04779157      -1.32622300       0.17394566
H       -1.06522571       1.14514404       1.39739521
H       -0.38883796      -0.60929447      -1.53289855
H       -0.28608178       1.18719987      -1.58046125
H       -2.41245434      -1.07180061       0.41190188
H       -2.72050527      -0.54858319      -1.24922736
H       -3.50713767       0.97587222       0.33793016
19
Frame=16 idx=006360 GeodesicLength=2.237626546359719 rxn_smarts="[C:1]([C:2]([C@@:3]([O:4][H:14])([C:5]([C:6]([O:7][H:19])([H:17])[H:18])([H:15])[H:16])[H:13])([H:11])[H:12])([H:8])([H:9])[H:10]>>[C:1](/[C:2](=[C:3](/[O:4][H:14])[C:5]([C:6]([O:7][H:19])([H:17])[H:18])([H:13])[H:15])[H:12])([H:8])([H:9])[H:10].[H:11][H:16]"
C        2.61869697      -0.78498946       0.33184670
C        1.61757479       0.33591390       0.15101046
C        0.27556985       0.00526967       0.53345819
O       -0.16640040       0.75489358       1.60978799
C       -0.70237802      -0.20210391      -0.58516320
C       -2.17802615      -0.29940141      -0.32170015
O       -2.56048703       0.97417556       0.19328067
H        3.55778023      -0.55650298      -0.17788972
H        2.85159340      -0.94071675       1.38776534
H        2.25659710      -1.73240189      -0.07295100
H        0.95893625       1.43260501      -1.59407136
H        1.97889548       1.23908804       0.65015696
H       -0.07407808      -1.33457904       0.08233641
H       -1.03172453       1.13008704       1.40970696
H       -0.41775533      -0.56895100      -1.56655400
H       -0.35052483       1.20015748      -1.59780414
H       -2.39362728      -1.08372573       0.41441064
H       -2.74063467      -0.53580837      -1.23053526
H       -3.50000777       0.96699025       0.38290852
