12
Frame=0 idx=000158 GeodesicLength=0.0 rxn_smarts="[C:1]([N:2](/[C:3](=[N:4]\[H:11])[C:5](=[O:6])[H:12])[H:10])([H:7])([H:8])[H:9]>>[C:1]([N+:2](=[C-:3][N:4]([C:5](=[O:6])[H:12])[H:11])[H:10])([H:7])([H:8])[H:9]"
C        1.67071434      -0.58601714       0.01413649
N        0.84366308       0.60818154      -0.01403141
C       -0.43194519       0.61410496      -0.33300136
N       -1.18999920      -0.41160372      -0.65749184
C       -1.99238265       0.65125137       0.17820047
O       -2.23403538       0.48300065       1.36184665
H        1.41273618      -1.22614728       0.86151190
H        2.71590976      -0.29658797       0.10015015
H        1.54932547      -1.15184872      -0.91107590
H        1.24500273       1.47560629       0.29396110
H       -0.97359849      -1.36395192      -0.36565097
H       -2.61539061       1.20401198      -0.52855524
12
Frame=1 idx=000158 GeodesicLength=0.04461219879849115 rxn_smarts="[C:1]([N:2](/[C:3](=[N:4]\[H:11])[C:5](=[O:6])[H:12])[H:10])([H:7])([H:8])[H:9]>>[C:1]([N+:2](=[C-:3][N:4]([C:5](=[O:6])[H:12])[H:11])[H:10])([H:7])([H:8])[H:9]"
C        1.66965506      -0.58726329       0.01171306
N        0.84237781       0.60625420      -0.01816576
C       -0.43068899       0.61608477      -0.35170569
N       -1.18735390      -0.41599797      -0.65771084
C       -1.99464279       0.65352875       0.18416575
O       -2.23414115       0.49922512       1.36899662
H        1.40460288      -1.23044635       0.85466315
H        2.71383467      -0.29730768       0.10755691
H        1.55736008      -1.15163485      -0.91572517
H        1.23711868       1.47150855       0.30422503
H       -0.95684336      -1.36384211      -0.36280719
H       -2.62127898       1.19989087      -0.52520586
12
Frame=2 idx=000158 GeodesicLength=0.08922663215030205 rxn_smarts="[C:1]([N:2](/[C:3](=[N:4]\[H:11])[C:5](=[O:6])[H:12])[H:10])([H:7])([H:8])[H:9]>>[C:1]([N+:2](=[C-:3][N:4]([C:5](=[O:6])[H:12])[H:11])[H:10])([H:7])([H:8])[H:9]"
C        1.66864273      -0.58848107       0.00943784
N        0.84100629       0.60425679      -0.02228247
C       -0.42943768       0.61769294      -0.37009939
N       -1.18466284      -0.42033247      -0.65802015
C       -1.99678607       0.65582615       0.19038853
O       -2.23453436       0.51526137       1.37613518
H        1.39665438      -1.23463470       0.84797309
H        2.71169345      -0.29790518       0.11503063
H        1.56548204      -1.15152302      -0.92005114
H        1.22900059       1.46743034       0.31367588
H       -0.94028668      -1.36368028      -0.36065381
H       -2.62677185       1.19608914      -0.52153421
12
Frame=3 idx=000158 GeodesicLength=0.13384920287388866 rxn_smarts="[C:1]([N:2](/[C:3](=[N:4]\[H:11])[C:5](=[O:6])[H:12])[H:10])([H:7])([H:8])[H:9]>>[C:1]([N+:2](=[C-:3][N:4]([C:5](=[O:6])[H:12])[H:11])[H:10])([H:7])([H:8])[H:9]"
C        1.66766142      -0.58967557       0.00734279
N        0.83955688       0.60220804      -0.02638807
C       -0.42819501       0.61897335      -0.38818929
N       -1.18193226      -0.42459118      -0.65846836
C       -1.99881692       0.65812231       0.19689109
O       -2.23519325       0.53102441       1.38330203
H        1.38884783      -1.23870125       0.84149107
H        2.70947788      -0.29840233       0.12261628
H        1.57367591      -1.15153507      -0.92402304
H        1.22073248       1.46343953       0.32219873
H       -0.92392444      -1.36348312      -0.35927071
H       -2.63189053       1.19262087      -0.51750251
12
Frame=4 idx=000158 GeodesicLength=0.17846371562920155 rxn_smarts="[C:1]([N:2](/[C:3](=[N:4]\[H:11])[C:5](=[O:6])[H:12])[H:10])([H:7])([H:8])[H:9]>>[C:1]([N+:2](=[C-:3][N:4]([C:5](=[O:6])[H:12])[H:11])[H:10])([H:7])([H:8])[H:9]"
C        1.66671450      -0.59084497       0.00538708
N        0.83803103       0.60010066      -0.03050004
C       -0.42696261       0.61991999      -0.40600978
N       -1.17916436      -0.42880390      -0.65900499
C       -2.00074008       0.66042557       0.20364848
O       -2.23610212       0.54662661       1.39048071
H        1.38117798      -1.24267303       0.83514351
H        2.70718498      -0.29879818       0.13030246
H        1.58196426      -1.15162858      -0.92769594
H        1.21229191       1.45950318       0.32996577
H       -0.90774257      -1.36325812      -0.35855017
H       -2.63665293       1.18943076      -0.51316709
12
Frame=5 idx=000158 GeodesicLength=0.22310219516023005 rxn_smarts="[C:1]([N:2](/[C:3](=[N:4]\[H:11])[C:5](=[O:6])[H:12])[H:10])([H:7])([H:8])[H:9]>>[C:1]([N+:2](=[C-:3][N:4]([C:5](=[O:6])[H:12])[H:11])[H:10])([H:7])([H:8])[H:9]"
C        1.66579887      -0.59198930       0.00356264
N        0.83643122       0.59794259      -0.03462937
C       -0.42574203       0.62055743      -0.42360067
N       -1.17636545      -0.43299433      -0.65963729
C       -2.00255583       0.66273414       0.21066080
O       -2.23723158       0.56211303       1.39770218
H        1.37362329      -1.24657857       0.82890755
H        2.70481136      -0.29908807       0.13812552
H        1.59035852      -1.15178718      -0.93110114
H        1.20368641       1.45562845       0.33702248
H       -0.89173716      -1.36303631      -0.35846696
H       -2.64107763       1.18649814      -0.50854573
12
Frame=6 idx=000158 GeodesicLength=0.2677542832571044 rxn_smarts="[C:1]([N:2](/[C:3](=[N:4]\[H:11])[C:5](=[O:6])[H:12])[H:10])([H:7])([H:8])[H:9]>>[C:1]([N+:2](=[C-:3][N:4]([C:5](=[O:6])[H:12])[H:11])[H:10])([H:7])([H:8])[H:9]"
C        1.66491856      -0.59310645       0.00183550
N        0.83475849       0.59573157      -0.03878368
C       -0.42453664       0.62088113      -0.44097735
N       -1.17353660      -0.43718694      -0.66032751
C       -2.00426777       0.66506204       0.21790968
O       -2.23857287       0.57757688       1.40496464
H        1.36618654      -1.25043784       0.82272301
H        2.70235196      -0.29927577       0.14607467
H        1.59888154      -1.15197295      -0.93428024
H        1.19489366       1.45178556       0.34349826
H       -0.87589644      -1.36284340      -0.35894393
H       -2.64518044       1.18378618      -0.50369306
12
Frame=7 idx=000158 GeodesicLength=0.31244198940683776 rxn_smarts="[C:1]([N:2](/[C:3](=[N:4]\[H:11])[C:5](=[O:6])[H:12])[H:10])([H:7])([H:8])[H:9]>>[C:1]([N+:2](=[C-:3][N:4]([C:5](=[O:6])[H:12])[H:11])[H:10])([H:7])([H:8])[H:9]"
C        1.66407804      -0.59419105       0.00017114
N        0.83301675       0.59346715      -0.04298446
C       -0.42334120       0.62089275      -0.45817738
N       -1.17068356      -0.44141739      -0.66104346
C       -2.00588362       0.66741062       0.22537890
O       -2.24011171       0.59311968       1.41224122
H        1.35888868      -1.25426305       0.81655490
H        2.69981005      -0.29934879       0.15412249
H        1.60753136      -1.15216984      -0.93728220
H        1.18587573       1.44792216       0.34956563
H       -0.86020622      -1.36268316      -0.35990007
H       -2.64897430       1.18126092      -0.49864670
12
Frame=8 idx=000158 GeodesicLength=0.35714068719993397 rxn_smarts="[C:1]([N:2](/[C:3](=[N:4]\[H:11])[C:5](=[O:6])[H:12])[H:10])([H:7])([H:8])[H:9]>>[C:1]([N+:2](=[C-:3][N:4]([C:5](=[O:6])[H:12])[H:11])[H:10])([H:7])([H:8])[H:9]"
C        1.66324951      -0.59525129      -0.00137119
N        0.83120603       0.59116356      -0.04723503
C       -0.42216694       0.62062621      -0.47521074
N       -1.16780426      -0.44564265      -0.66185796
C       -2.00738739       0.66975065       0.23310626
O       -2.24179018       0.60861996       1.41959436
H        1.35164441      -1.25803766       0.81046288
H        2.69715775      -0.29933430       0.16234892
H        1.61630608      -1.15240315      -0.94003410
H        1.17671575       1.44413704       0.35500907
H       -0.84466291      -1.36255646      -0.36148294
H       -2.65246783       1.17892810      -0.49332953
12
Frame=9 idx=000158 GeodesicLength=0.4018627961516919 rxn_smarts="[C:1]([N:2](/[C:3](=[N:4]\[H:11])[C:5](=[O:6])[H:12])[H:10])([H:7])([H:8])[H:9]>>[C:1]([N+:2](=[C-:3][N:4]([C:5](=[O:6])[H:12])[H:11])[H:10])([H:7])([H:8])[H:9]"
C        1.66244079      -0.59628712      -0.00282142
N        0.82933023       0.58882081      -0.05154970
C       -0.42101724       0.62008300      -0.49210372
N       -1.16490568      -0.44989135      -0.66274452
C       -2.00878558       0.67208811       0.24107957
O       -2.24359615       0.62417753       1.42701690
H        1.34446758      -1.26178554       0.80440017
H        2.69439863      -0.29922781       0.17074989
H        1.62522393      -1.15264859      -0.94257886
H        1.16738758       1.44040176       0.35996101
H       -0.82926414      -1.36247967      -0.36362929
H       -2.65567995       1.17674886      -0.48778002
12
Frame=10 idx=000158 GeodesicLength=0.4466260041704954 rxn_smarts="[C:1]([N:2](/[C:3](=[N:4]\[H:11])[C:5](=[O:6])[H:12])[H:10])([H:7])([H:8])[H:9]>>[C:1]([N+:2](=[C-:3][N:4]([C:5](=[O:6])[H:12])[H:11])[H:10])([H:7])([H:8])[H:9]"
C        1.66164027      -0.59728594      -0.00419112
N        0.82739185       0.58644236      -0.05595810
C       -0.41988121       0.61926360      -0.50887768
N       -1.16198240      -0.45417624      -0.66369953
C       -2.01007233       0.67441757       0.24929942
O       -2.24548395       0.63985174       1.43450522
H        1.33734393      -1.26548617       0.79835588
H        2.69150786      -0.29902533       0.17932971
H        1.63428480      -1.15288249      -0.94492637
H        1.15785380       1.43663604       0.36449022
H       -0.81398290      -1.36245122      -0.36632611
H       -2.65861973       1.17469607      -0.48200153
12
Frame=11 idx=000158 GeodesicLength=0.4914120581675342 rxn_smarts="[C:1]([N:2](/[C:3](=[N:4]\[H:11])[C:5](=[O:6])[H:12])[H:10])([H:7])([H:8])[H:9]>>[C:1]([N+:2](=[C-:3][N:4]([C:5](=[O:6])[H:12])[H:11])[H:10])([H:7])([H:8])[H:9]"
C        1.66084162      -0.59826047      -0.00545331
N        0.82538996       0.58403229      -0.06044051
C       -0.41877459       0.61819171      -0.52553291
N       -1.15904014      -0.45848312      -0.66475020
C       -2.01125032       0.67672203       0.25778404
O       -2.24745904       0.65557592       1.44208184
H        1.33024510      -1.26916064       0.79234533
H        2.68848268      -0.29874396       0.18812986
H        1.64349043      -1.15312093      -0.94705007
H        1.14819339       1.43295062       0.36848121
H       -0.79883077      -1.36248128      -0.36963035
H       -2.66128832       1.17277781      -0.47596493
12
Frame=12 idx=000158 GeodesicLength=0.5362164999982503 rxn_smarts="[C:1]([N:2](/[C:3](=[N:4]\[H:11])[C:5](=[O:6])[H:12])[H:10])([H:7])([H:8])[H:9]>>[C:1]([N+:2](=[C-:3][N:4]([C:5](=[O:6])[H:12])[H:11])[H:10])([H:7])([H:8])[H:9]"
C        1.66003518      -0.59920995      -0.00659713
N        0.82332629       0.58159219      -0.06498377
C       -0.41769299       0.61688391      -0.54206071
N       -1.15607402      -0.46280460      -0.66590937
C       -2.01232208       0.67899093       0.26654072
O       -2.24953141       0.67131283       1.44974708
H        1.32316317      -1.27279680       0.78638797
H        2.68531261      -0.29839114       0.19714035
H        1.65282230      -1.15336592      -0.94893094
H        1.13844689       1.42935980       0.37189126
H       -0.78380327      -1.36256897      -0.37356120
H       -2.66368268       1.17099772      -0.46966426
12
Frame=13 idx=000158 GeodesicLength=0.5810385027778474 rxn_smarts="[C:1]([N:2](/[C:3](=[N:4]\[H:11])[C:5](=[O:6])[H:12])[H:10])([H:7])([H:8])[H:9]>>[C:1]([N+:2](=[C-:3][N:4]([C:5](=[O:6])[H:12])[H:11])[H:10])([H:7])([H:8])[H:9]"
C        1.65921663      -0.60013513      -0.00761805
N        0.82120309       0.57912151      -0.06957008
C       -0.41663478       0.61535623      -0.55845384
N       -1.15307957      -0.46713839      -0.66718444
C       -2.01329432       0.68121728       0.27557197
O       -2.25172292       0.68703932       1.45750000
H        1.31610037      -1.27639062       0.78049286
H        2.68199535      -0.29797196       0.20634322
H        1.66226270      -1.15361877      -0.95055924
H        1.12865310       1.42587771       0.37470133
H       -0.76889972      -1.36271219      -0.37811821
H       -2.66579994       1.16935502      -0.46310551
12
Frame=14 idx=000158 GeodesicLength=0.6258542447460387 rxn_smarts="[C:1]([N:2](/[C:3](=[N:4]\[H:11])[C:5](=[O:6])[H:12])[H:10])([H:7])([H:8])[H:9]>>[C:1]([N+:2](=[C-:3][N:4]([C:5](=[O:6])[H:12])[H:11])[H:10])([H:7])([H:8])[H:9]"
C        1.65838034      -0.60103908      -0.00851330
N        0.81901875       0.57662173      -0.07417883
C       -0.41559992       0.61362025      -0.57470159
N       -1.15005441      -0.47148074      -0.66857587
C       -2.01417160       0.68339410       0.28487735
O       -2.25404305       0.70274080       1.46533079
H        1.30905960      -1.27994506       0.77466883
H        2.67852847      -0.29749274       0.21571719
H        1.67179306      -1.15387856      -0.95193187
H        1.11884492       1.42252557       0.37690457
H       -0.75411974      -1.36290575      -0.38329825
H       -2.66763640       1.16783949      -0.45629904
12
Frame=15 idx=000158 GeodesicLength=0.6706867420309798 rxn_smarts="[C:1]([N:2](/[C:3](=[N:4]\[H:11])[C:5](=[O:6])[H:12])[H:10])([H:7])([H:8])[H:9]>>[C:1]([N+:2](=[C-:3][N:4]([C:5](=[O:6])[H:12])[H:11])[H:10])([H:7])([H:8])[H:9]"
C        1.65752676      -0.60191892      -0.00929718
N        0.81677487       0.57409345      -0.07883016
C       -0.41459008       0.61167712      -0.59083235
N       -1.14699899      -0.47585068      -0.67007601
C       -2.01495254       0.68552217       0.29445776
O       -2.25647235       0.71847596       1.47324581
H        1.30203394      -1.28347049       0.76888576
H        2.67490273      -0.29694950       0.22527642
H        1.68143042      -1.15412997      -0.95306696
H        1.10899811       1.41928054       0.37856829
H       -0.73945401      -1.36316063      -0.38907481
H       -2.66919885       1.16643097      -0.44925657
12
Frame=16 idx=000158 GeodesicLength=0.7155234666151988 rxn_smarts="[C:1]([N:2](/[C:3](=[N:4]\[H:11])[C:5](=[O:6])[H:12])[H:10])([H:7])([H:8])[H:9]>>[C:1]([N+:2](=[C-:3][N:4]([C:5](=[O:6])[H:12])[H:11])[H:10])([H:7])([H:8])[H:9]"
C        1.65665212      -0.60277652      -0.00996698
N        0.81447131       0.57153642      -0.08350573
C       -0.41360355       0.60953858      -0.60683933
N       -1.14391011      -0.48024551      -0.67168691
C       -2.01564125       0.68759786       0.30431400
O       -2.25903063       0.73422030       1.48123747
H        1.29502736      -1.28696757       0.76315077
H        2.67111760      -0.29634644       0.23499978
H        1.69115667      -1.15437427      -0.95395844
H        1.09914495       1.41616041       0.37968094
H       -0.72490352      -1.36347154      -0.39543887
H       -2.67048095       1.16512828      -0.44198672
