13
Frame=0 idx=003709 GeodesicLength=0.0 rxn_smarts="[C:1](/[C:2](=[N:3]/[O:4][H:10])[C:5]([O:6][H:13])([H:11])[H:12])([H:7])([H:8])[H:9]>>[C:1](/[C:2]([N:3]([O:4][H:10])[H:12])=[C:5](/[O:6][H:13])[H:11])([H:7])([H:8])[H:9]"
C       -0.60391278       1.51943881       0.59685363
C       -0.08047793       0.26587930      -0.05844066
N       -1.15559177      -0.65410778      -0.38307551
O       -0.64389124      -1.98065749      -0.24970908
C        1.26622898      -0.05670310       0.08628112
O        1.82314810      -1.19488991      -0.31412003
H       -1.47150645       1.89198414       0.05343309
H       -0.91937994       1.29035279       1.61515027
H        0.15653219       2.30099349       0.61992990
H       -1.23926256      -2.49746829      -0.79665662
H        1.96589039       0.66485700       0.49114848
H       -0.19063910       0.28335442      -1.21285221
H        1.09286208      -1.83303341      -0.44794239
13
Frame=1 idx=003709 GeodesicLength=0.09957473109562985 rxn_smarts="[C:1](/[C:2](=[N:3]/[O:4][H:10])[C:5]([O:6][H:13])([H:11])[H:12])([H:7])([H:8])[H:9]>>[C:1](/[C:2]([N:3]([O:4][H:10])[H:12])=[C:5](/[O:6][H:13])[H:11])([H:7])([H:8])[H:9]"
C       -0.61032509       1.51976627       0.59891730
C       -0.08349313       0.26329204      -0.04360304
N       -1.14460935      -0.64818746      -0.40072012
O       -0.64324513      -1.97640034      -0.25584133
C        1.26939281      -0.05033885       0.06090715
O        1.83029279      -1.19173872      -0.33475319
H       -1.48605996       1.88354920       0.06245759
H       -0.91210720       1.29889003       1.62326036
H        0.14377482       2.30771391       0.60672883
H       -1.26288636      -2.49840091      -0.76962138
H        1.95862436       0.64390719       0.52717932
H       -0.16479696       0.28648259      -1.22850806
H        1.10543840      -1.83853495      -0.44640342
13
Frame=2 idx=003709 GeodesicLength=0.1991745557852092 rxn_smarts="[C:1](/[C:2](=[N:3]/[O:4][H:10])[C:5]([O:6][H:13])([H:11])[H:12])([H:7])([H:8])[H:9]>>[C:1](/[C:2]([N:3]([O:4][H:10])[H:12])=[C:5](/[O:6][H:13])[H:11])([H:7])([H:8])[H:9]"
C       -0.61682648       1.51962065       0.60100957
C       -0.08605591       0.26019297      -0.02823322
N       -1.13277624      -0.64204745      -0.41829119
O       -0.64213277      -1.97208309      -0.26374049
C        1.27223197      -0.04372579       0.03722687
O        1.83735674      -1.18778508      -0.35546685
H       -1.50043113       1.87445474       0.07133409
H       -0.90522764       1.30763200       1.63117308
H        0.13053150       2.31391573       0.59354672
H       -1.28712930      -2.49760388      -0.74111428
H        1.95016743       0.62080257       0.56062893
H       -0.13852464       0.29003529      -1.24414616
H        1.11881647      -1.84340867      -0.44392707
13
Frame=3 idx=003709 GeodesicLength=0.2987943489450402 rxn_smarts="[C:1](/[C:2](=[N:3]/[O:4][H:10])[C:5]([O:6][H:13])([H:11])[H:12])([H:7])([H:8])[H:9]>>[C:1](/[C:2]([N:3]([O:4][H:10])[H:12])=[C:5](/[O:6][H:13])[H:11])([H:7])([H:8])[H:9]"
C       -0.62350946       1.51892457       0.60346733
C       -0.08835763       0.25633745      -0.01181251
N       -1.12028753      -0.63563307      -0.43584180
O       -0.64108667      -1.96790888      -0.27389912
C        1.27453646      -0.03754823       0.01631149
O        1.84413525      -1.18373404      -0.37524619
H       -1.51467189       1.86469556       0.08028126
H       -0.89905581       1.31662975       1.63919003
H        0.11676031       2.31951547       0.58067326
H       -1.31169930      -2.49472825      -0.71267293
H        1.94187848       0.59785420       0.58827071
H       -0.11140681       0.29388563      -1.25940640
H        1.13276461      -1.84829017      -0.43931512
13
Frame=4 idx=003709 GeodesicLength=0.3984341618214591 rxn_smarts="[C:1](/[C:2](=[N:3]/[O:4][H:10])[C:5]([O:6][H:13])([H:11])[H:12])([H:7])([H:8])[H:9]>>[C:1](/[C:2]([N:3]([O:4][H:10])[H:12])=[C:5](/[O:6][H:13])[H:11])([H:7])([H:8])[H:9]"
C       -0.63037674       1.51754947       0.60616084
C       -0.09045203       0.25166422       0.00556655
N       -1.10702845      -0.62887885      -0.45356857
O       -0.63995101      -1.96378492      -0.28665597
C        1.27628724      -0.03186873      -0.00208495
O        1.85068724      -1.17968701      -0.39381335
H       -1.52870238       1.85419982       0.08911816
H       -0.89365350       1.32571143       1.64715919
H        0.10245038       2.32433551       0.56805805
H       -1.33701653      -2.48980116      -0.68274485
H        1.93384976       0.57531020       0.61143524
H       -0.08331226       0.29807937      -1.27447976
H        1.14721829      -1.85282935      -0.43415057
13
Frame=5 idx=003709 GeodesicLength=0.4980963133126539 rxn_smarts="[C:1](/[C:2](=[N:3]/[O:4][H:10])[C:5]([O:6][H:13])([H:11])[H:12])([H:7])([H:8])[H:9]>>[C:1](/[C:2]([N:3]([O:4][H:10])[H:12])=[C:5](/[O:6][H:13])[H:11])([H:7])([H:8])[H:9]"
C       -0.63748089       1.51557027       0.60906850
C       -0.09244478       0.24612199       0.02385122
N       -1.09310050      -0.62176546      -0.47166085
O       -0.63880293      -1.95985696      -0.30243654
C        1.27758129      -0.02672899      -0.01823843
O        1.85720429      -1.17584871      -0.41113345
H       -1.54273829       1.84306688       0.09789893
H       -0.88895494       1.33495219       1.65509320
H        0.08758142       2.32851989       0.55561039
H       -1.36308863      -2.48289179      -0.65053196
H        1.92633442       0.55335567       0.63108557
H       -0.05426733       0.30267962      -1.28954236
H        1.16217687      -1.85717458      -0.42906421
13
Frame=6 idx=003709 GeodesicLength=0.5977943884109048 rxn_smarts="[C:1](/[C:2](=[N:3]/[O:4][H:10])[C:5]([O:6][H:13])([H:11])[H:12])([H:7])([H:8])[H:9]>>[C:1](/[C:2]([N:3]([O:4][H:10])[H:12])=[C:5](/[O:6][H:13])[H:11])([H:7])([H:8])[H:9]"
C       -0.64467389       1.51285119       0.61225945
C       -0.09455994       0.23952640       0.04337802
N       -1.07870327      -0.61421222      -0.48925134
O       -0.63817965      -1.95589579      -0.32054977
C        1.27806694      -0.02233055      -0.03246973
O        1.86310618      -1.17255020      -0.42681076
H       -1.55682565       1.83085802       0.10719668
H       -0.88425581       1.34469624       1.66326156
H        0.07212881       2.33182491       0.54248368
H       -1.38812513      -2.47319184      -0.61883788
H        1.91958280       0.53283727       0.64630068
H       -0.02459071       0.30720630      -1.30437686
H        1.17702931      -1.86161975      -0.42258374
13
Frame=7 idx=003709 GeodesicLength=0.6973986721489115 rxn_smarts="[C:1](/[C:2](=[N:3]/[O:4][H:10])[C:5]([O:6][H:13])([H:11])[H:12])([H:7])([H:8])[H:9]>>[C:1](/[C:2]([N:3]([O:4][H:10])[H:12])=[C:5](/[O:6][H:13])[H:11])([H:7])([H:8])[H:9]"
C       -0.65202070       1.50935865       0.61545108
C       -0.09677408       0.23194082       0.06370234
N       -1.06361853      -0.60606144      -0.50725644
O       -0.63762594      -1.95182377      -0.34185814
C        1.27789481      -0.01847401      -0.04494323
O        1.86887634      -1.16941829      -0.44113931
H       -1.57066309       1.81807656       0.11617012
H       -0.88022429       1.35436492       1.67111130
H        0.05626323       2.33413484       0.52942218
H       -1.41289605      -2.46131430      -0.58307526
H        1.91287533       0.51260522       0.65986068
H        0.00602232       0.31217870      -1.31951740
H        1.19189066      -1.86556790      -0.41792792
13
Frame=8 idx=003709 GeodesicLength=0.7970529603936007 rxn_smarts="[C:1](/[C:2](=[N:3]/[O:4][H:10])[C:5]([O:6][H:13])([H:11])[H:12])([H:7])([H:8])[H:9]>>[C:1](/[C:2]([N:3]([O:4][H:10])[H:12])=[C:5](/[O:6][H:13])[H:11])([H:7])([H:8])[H:9]"
C       -0.65937368       1.50555083       0.61893934
C       -0.09937807       0.22328731       0.08553355
N       -1.04853410      -0.59754651      -0.52384438
O       -0.63813450      -1.94783550      -0.36405959
C        1.27685229      -0.01536596      -0.05605763
O        1.87400483      -1.16720296      -0.45378785
H       -1.58483469       1.80455358       0.12605890
H       -0.87556213       1.36547288       1.67932446
H        0.03993684       2.33591583       0.51504134
H       -1.43478649      -2.44720912      -0.55023580
H        1.90698942       0.49385642       0.67010765
H        0.03665358       0.31647475      -1.33454507
H        1.20616669      -1.86995156      -0.41247494
13
Frame=9 idx=003709 GeodesicLength=0.8967030084047847 rxn_smarts="[C:1](/[C:2](=[N:3]/[O:4][H:10])[C:5]([O:6][H:13])([H:11])[H:12])([H:7])([H:8])[H:9]>>[C:1](/[C:2]([N:3]([O:4][H:10])[H:12])=[C:5](/[O:6][H:13])[H:11])([H:7])([H:8])[H:9]"
C       -0.66668677       1.50097401       0.62243363
C       -0.10232638       0.21357909       0.10838883
N       -1.03299855      -0.58830901      -0.53999381
O       -0.63923945      -1.94335291      -0.38818835
C        1.27479755      -0.01280891      -0.06588560
O        1.87854748      -1.16520442      -0.46506859
H       -1.59859672       1.79045359       0.13589701
H       -0.87106129       1.37684151       1.68727424
H        0.02338554       2.33645530       0.50026354
H       -1.45440382      -2.43091266      -0.51559149
H        1.90093557       0.47559612       0.67884960
H        0.06785809       0.32062653      -1.35004430
H        1.21978875      -1.87393823      -0.40833471
13
Frame=10 idx=003709 GeodesicLength=0.9963238102779295 rxn_smarts="[C:1](/[C:2](=[N:3]/[O:4][H:10])[C:5]([O:6][H:13])([H:11])[H:12])([H:7])([H:8])[H:9]>>[C:1](/[C:2]([N:3]([O:4][H:10])[H:12])=[C:5](/[O:6][H:13])[H:11])([H:7])([H:8])[H:9]"
C       -0.67391380       1.49617078       0.62614960
C       -0.10572253       0.20288869       0.13268983
N       -1.01747449      -0.57860470      -0.55458290
O       -0.64143128      -1.93875361      -0.41247964
C        1.27182167      -0.01076628      -0.07471760
O        1.88255204      -1.16385653      -0.47490953
H       -1.61250555       1.77599891       0.14650274
H       -0.86592168       1.38956620       1.69531616
H        0.00654955       2.33642282       0.48437064
H       -1.47101090      -2.41328493      -0.48367048
H        1.89532455       0.45845054       0.68554609
H        0.09904384       0.32396659      -1.36589099
H        1.23268859      -1.87819847      -0.40432392
13
Frame=11 idx=003709 GeodesicLength=1.0959742136146593 rxn_smarts="[C:1](/[C:2](=[N:3]/[O:4][H:10])[C:5]([O:6][H:13])([H:11])[H:12])([H:7])([H:8])[H:9]>>[C:1](/[C:2]([N:3]([O:4][H:10])[H:12])=[C:5](/[O:6][H:13])[H:11])([H:7])([H:8])[H:9]"
C       -0.68092911       1.49100082       0.63010457
C       -0.10952997       0.19124761       0.15842681
N       -1.00175765      -0.56837672      -0.56750532
O       -0.64461631      -1.93372606      -0.43654113
C        1.26775472      -0.00911412      -0.08274634
O        1.88582198      -1.16295340      -0.48332151
H       -1.62634538       1.76098330       0.15802005
H       -0.85993590       1.40357246       1.70338762
H       -0.01060571       2.33552376       0.46732313
H       -1.48475970      -2.39436292      -0.45488176
H        1.88986178       0.44254250       0.69033047
H        0.13031198       0.32615902      -1.38234788
H        1.24472927      -1.88249626      -0.40024870
13
Frame=12 idx=003709 GeodesicLength=1.1956639365219743 rxn_smarts="[C:1](/[C:2](=[N:3]/[O:4][H:10])[C:5]([O:6][H:13])([H:11])[H:12])([H:7])([H:8])[H:9]>>[C:1](/[C:2]([N:3]([O:4][H:10])[H:12])=[C:5](/[O:6][H:13])[H:11])([H:7])([H:8])[H:9]"
C       -0.68774110       1.48546484       0.63431987
C       -0.11371768       0.17872458       0.18550333
N       -0.98586305      -0.55753209      -0.57879426
O       -0.64880077      -1.92815617      -0.46028026
C        1.26269990      -0.00770481      -0.09011799
O        1.88859142      -1.16239247      -0.49026951
H       -1.64025821       1.74547333       0.17061610
H       -0.85294589       1.41869206       1.71143294
H       -0.02814929       2.33378623       0.44914100
H       -1.49627571      -2.37454711      -0.42922690
H        1.88455696       0.42789501       0.69346516
H        0.16182590       0.32712396      -1.39974157
H        1.25607751      -1.88682736      -0.39604792
13
Frame=13 idx=003709 GeodesicLength=1.2953938071172864 rxn_smarts="[C:1](/[C:2](=[N:3]/[O:4][H:10])[C:5]([O:6][H:13])([H:11])[H:12])([H:7])([H:8])[H:9]>>[C:1](/[C:2]([N:3]([O:4][H:10])[H:12])=[C:5](/[O:6][H:13])[H:11])([H:7])([H:8])[H:9]"
C       -0.69425720       1.47954518       0.63889820
C       -0.11821386       0.16539688       0.21390181
N       -0.96968837      -0.54611444      -0.58825255
O       -0.65391606      -1.92196521      -0.48315619
C        1.25660307      -0.00638280      -0.09706575
O        1.89082269      -1.16208970      -0.49566304
H       -1.65412981       1.72943423       0.18451441
H       -0.84479218       1.43485224       1.71945075
H       -0.04612093       2.33112832       0.42993833
H       -1.50604906      -2.35403831      -0.40766481
H        1.87937344       0.41492593       0.69473884
H        0.19363651       0.32642834      -1.41836303
H        1.26673175      -1.89112065      -0.39127696
13
Frame=14 idx=003709 GeodesicLength=1.3951452236502258 rxn_smarts="[C:1](/[C:2](=[N:3]/[O:4][H:10])[C:5]([O:6][H:13])([H:11])[H:12])([H:7])([H:8])[H:9]>>[C:1](/[C:2]([N:3]([O:4][H:10])[H:12])=[C:5](/[O:6][H:13])[H:11])([H:7])([H:8])[H:9]"
C       -0.70048085       1.47317803       0.64389994
C       -0.12295988       0.15134092       0.24340554
N       -0.95314570      -0.53403635      -0.59607181
O       -0.65990075      -1.91500246      -0.50534497
C        1.24950214      -0.00501568      -0.10376880
O        1.89264697      -1.16196645      -0.49941064
H       -1.66795757       1.71287595       0.19985103
H       -0.83545821       1.45172819       1.72737349
H       -0.06461649       2.32748716       0.40998347
H       -1.51466343      -2.33288292      -0.38975278
H        1.87421777       0.40380128       0.69422455
H        0.22603346       0.32381556      -1.43857693
H        1.27678254      -1.89532323      -0.38581209
13
Frame=15 idx=003709 GeodesicLength=1.4949125336727183 rxn_smarts="[C:1](/[C:2](=[N:3]/[O:4][H:10])[C:5]([O:6][H:13])([H:11])[H:12])([H:7])([H:8])[H:9]>>[C:1](/[C:2]([N:3]([O:4][H:10])[H:12])=[C:5](/[O:6][H:13])[H:11])([H:7])([H:8])[H:9]"
C       -0.70639740       1.46631634       0.64940797
C       -0.12788049       0.13665492       0.27379258
N       -0.93615545      -0.52124870      -0.60235643
O       -0.66669550      -1.90713332      -0.52682235
C        1.24142404      -0.00346646      -0.11043537
O        1.89415008      -1.16195743      -0.50138077
H       -1.68173823       1.69575783       0.21683208
H       -0.82484762       1.46903611       1.73518426
H       -0.08376118       2.32281980       0.38949078
H       -1.52264531      -2.31104993      -0.37546241
H        1.86899397       0.39475911       0.69188656
H        0.25927160       0.31887818      -1.46071813
H        1.28628148      -1.89936643      -0.37941879
13
Frame=16 idx=003709 GeodesicLength=1.5946941398187693 rxn_smarts="[C:1](/[C:2](=[N:3]/[O:4][H:10])[C:5]([O:6][H:13])([H:11])[H:12])([H:7])([H:8])[H:9]>>[C:1](/[C:2]([N:3]([O:4][H:10])[H:12])=[C:5](/[O:6][H:13])[H:11])([H:7])([H:8])[H:9]"
C       -0.71200613       1.45892303       0.65550547
C       -0.13289661       0.12145400       0.30477700
N       -0.91866155      -0.50769555      -0.60725576
O       -0.67425367      -1.89821854      -0.54762405
C        1.23241204      -0.00160582      -0.11728284
O        1.89542211      -1.16200621      -0.50142683
H       -1.69547114       1.67804259       0.23565422
H       -0.81288865       1.48644533       1.74287663
H       -0.10369535       2.31711102       0.36871340
H       -1.53045294      -2.28843780      -0.36464680
H        1.86358991       0.38801503       0.68768487
H        0.29363611       0.31115281      -1.48508318
H        1.29526589      -1.90317991      -0.37189214
