9
Frame=0 idx=001606 GeodesicLength=0.0 rxn_smarts="[O:1]=[C:2]([O:3][C:4]([C:5]#[N:6])([H:8])[H:9])[H:7]>>[O:1]([C-:2]=[O+:3][C:4]([C:5]#[N:6])([H:8])[H:9])[H:7]"
O        1.47980458       0.21299634       0.97394557
C        1.49951647       0.42510658      -0.28857012
O        0.47150961       0.06168547      -1.02010524
C       -0.62674925      -0.58351796      -0.34492317
C       -1.55357516       0.39162109       0.22919190
N       -2.29933567       1.14126723       0.67060051
H        2.43322475       0.75890188       0.45508804
H       -1.13616634      -1.15853801      -1.11463580
H       -0.26822897      -1.24952262       0.43940829
9
Frame=1 idx=001606 GeodesicLength=0.08158047630283304 rxn_smarts="[O:1]=[C:2]([O:3][C:4]([C:5]#[N:6])([H:8])[H:9])[H:7]>>[O:1]([C-:2]=[O+:3][C:4]([C:5]#[N:6])([H:8])[H:9])[H:7]"
O        1.55013717       0.13317468       0.95335575
C        1.50102683       0.44498537      -0.28519219
O        0.45102406       0.11465038      -0.99924426
C       -0.62710285      -0.56342562      -0.32675943
C       -1.59475032       0.39154747       0.21295940
N       -2.36966006       1.12378542       0.63288453
H        2.47337576       0.74206007       0.43566815
H       -1.10261854      -1.16843749      -1.09580650
H       -0.28143206      -1.21834028       0.47213456
9
Frame=2 idx=001606 GeodesicLength=0.15731733649603602 rxn_smarts="[O:1]=[C:2]([O:3][C:4]([C:5]#[N:6])([H:8])[H:9])[H:7]>>[O:1]([C-:2]=[O+:3][C:4]([C:5]#[N:6])([H:8])[H:9])[H:7]"
O        1.61877398       0.05103664       0.92216998
C        1.50312100       0.46409770      -0.27936700
O        0.43087750       0.16954433      -0.97390590
C       -0.62726859      -0.54148881      -0.30675814
C       -1.63671353       0.39070639       0.19515424
N       -2.44122343       1.10284618       0.59344552
H        2.51272160       0.72246999       0.41644180
H       -1.06521902      -1.17574781      -1.07489759
H       -0.29506951      -1.18346461       0.50771710
9
Frame=3 idx=001606 GeodesicLength=0.22934281919514402 rxn_smarts="[O:1]=[C:2]([O:3][C:4]([C:5]#[N:6])([H:8])[H:9])[H:7]>>[O:1]([C-:2]=[O+:3][C:4]([C:5]#[N:6])([H:8])[H:9])[H:7]"
O        1.68782553      -0.03691879       0.87791860
C        1.50581503       0.48292698      -0.27056428
O        0.41100404       0.22679685      -0.94353537
C       -0.62763237      -0.51758803      -0.28435846
C       -1.67980772       0.38883913       0.17569736
N       -2.51450480       1.07866132       0.55051438
H        2.55085491       0.70213975       0.39842159
H       -1.02427926      -1.18055139      -1.05122072
H       -0.30927535      -1.14430582       0.54712689
9
Frame=4 idx=001606 GeodesicLength=0.29632182477698465 rxn_smarts="[O:1]=[C:2]([O:3][C:4]([C:5]#[N:6])([H:8])[H:9])[H:7]>>[O:1]([C-:2]=[O+:3][C:4]([C:5]#[N:6])([H:8])[H:9])[H:7]"
O        1.75406117      -0.12710816       0.81986942
C        1.50877839       0.50044588      -0.25862598
O        0.39143440       0.28611567      -0.90759247
C       -0.62806627      -0.49212372      -0.25977581
C       -1.72324458       0.38510926       0.15483596
N       -2.58738566       1.05156456       0.50438419
H        2.58709295       0.67947066       0.38204197
H       -0.97974582      -1.18254702      -1.02473808
H       -0.32292458      -1.10092714       0.58960080
9
Frame=5 idx=001606 GeodesicLength=0.3576955863251831 rxn_smarts="[O:1]=[C:2]([O:3][C:4]([C:5]#[N:6])([H:8])[H:9])[H:7]>>[O:1]([C-:2]=[O+:3][C:4]([C:5]#[N:6])([H:8])[H:9])[H:7]"
O        1.81246321      -0.21290738       0.75131634
C        1.51293026       0.51508888      -0.24494570
O        0.37263234       0.34698081      -0.86628718
C       -0.62852945      -0.46562891      -0.23377614
C       -1.76563494       0.37906458       0.13339699
N       -2.65815709       1.02112733       0.45633875
H        2.62222286       0.65195959       0.36655263
H       -0.93247883      -1.18129210      -0.99633240
H       -0.33544836      -1.05439280       0.63373672
9
Frame=6 idx=001606 GeodesicLength=0.41378156497053065 rxn_smarts="[O:1]=[C:2]([O:3][C:4]([C:5]#[N:6])([H:8])[H:9])[H:7]>>[O:1]([C-:2]=[O+:3][C:4]([C:5]#[N:6])([H:8])[H:9])[H:7]"
O        1.85945538      -0.28932398       0.67796230
C        1.51891136       0.52546640      -0.23184236
O        0.35508107       0.40823115      -0.81997909
C       -0.62887168      -0.43886882      -0.20716953
C       -1.80512832       0.37087115       0.11278360
N       -2.72497312       0.98754098       0.40735055
H        2.65619182       0.61929859       0.35059762
H       -0.88399189      -1.17618561      -0.96729476
H       -0.34667461      -1.00702987       0.67759166
9
Frame=7 idx=001606 GeodesicLength=0.4661151212317519 rxn_smarts="[O:1]=[C:2]([O:3][C:4]([C:5]#[N:6])([H:8])[H:9])[H:7]>>[O:1]([C-:2]=[O+:3][C:4]([C:5]#[N:6])([H:8])[H:9])[H:7]"
O        1.89529850      -0.35593661       0.60327034
C        1.52599066       0.53246186      -0.21982615
O        0.33903209       0.46879967      -0.76862192
C       -0.62913526      -0.41254701      -0.18036133
C       -1.84113281       0.36068650       0.09329197
N       -2.78659851       0.95184674       0.35750951
H        2.68879719       0.58258906       0.33279420
H       -0.83529426      -1.16742146      -0.93836023
H       -0.35695760      -0.96047876       0.72030360
9
Frame=8 idx=001606 GeodesicLength=0.5155950999605659 rxn_smarts="[O:1]=[C:2]([O:3][C:4]([C:5]#[N:6])([H:8])[H:9])[H:7]>>[O:1]([C-:2]=[O+:3][C:4]([C:5]#[N:6])([H:8])[H:9])[H:7]"
O        1.92082399      -0.41231845       0.53083770
C        1.53329393       0.53674613      -0.20930480
O        0.32474521       0.52689762      -0.71292559
C       -0.62939448      -0.38768162      -0.15401505
C       -1.87295699       0.34897375       0.07504936
N       -2.84126702       0.91589531       0.30776049
H        2.71932810       0.54404487       0.31239146
H       -0.78776465      -1.15565953      -0.91055522
H       -0.36680809      -0.91689809       0.76076165
9
Frame=9 idx=001606 GeodesicLength=0.5631753591461013 rxn_smarts="[O:1]=[C:2]([O:3][C:4]([C:5]#[N:6])([H:8])[H:9])[H:7]>>[O:1]([C-:2]=[O+:3][C:4]([C:5]#[N:6])([H:8])[H:9])[H:7]"
O        1.93749629      -0.45908383       0.46312454
C        1.54036685       0.53891964      -0.20071434
O        0.31233586       0.58158096      -0.65340272
C       -0.62965581      -0.36472858      -0.12846346
C       -1.90040886       0.33645478       0.05803078
N       -2.88874124       0.88065176       0.25856718
H        2.74759865       0.50524654       0.28876751
H       -0.74219777      -1.14149121      -0.88443216
H       -0.37679396      -0.87755007       0.79852267
9
Frame=10 idx=001606 GeodesicLength=0.609634295334543 rxn_smarts="[O:1]=[C:2]([O:3][C:4]([C:5]#[N:6])([H:8])[H:9])[H:7]>>[O:1]([C-:2]=[O+:3][C:4]([C:5]#[N:6])([H:8])[H:9])[H:7]"
O        1.94723206      -0.49764845       0.40066287
C        1.54644788       0.54025525      -0.19278393
O        0.30173747       0.63245322      -0.58993471
C       -0.62994001      -0.34385731      -0.10359107
C       -1.92375521       0.32365044       0.04205062
N       -2.92951486       0.84673408       0.20925555
H        2.77397414       0.46687128       0.26049839
H       -0.69875277      -1.12548663      -0.85997319
H       -0.38742870      -0.84297188       0.83381546
9
Frame=11 idx=001606 GeodesicLength=0.6557750076478522 rxn_smarts="[O:1]=[C:2]([O:3][C:4]([C:5]#[N:6])([H:8])[H:9])[H:7]>>[O:1]([C-:2]=[O+:3][C:4]([C:5]#[N:6])([H:8])[H:9])[H:7]"
O        1.95197088      -0.52947665       0.34300959
C        1.55101519       0.54166118      -0.18388469
O        0.29267147       0.67941471      -0.52165167
C       -0.63033328      -0.32517101      -0.07893419
C       -1.94345500       0.31094169       0.02679195
N       -2.96423029       0.81465153       0.15850663
H        2.79886983       0.42946322       0.22579694
H       -0.65725076      -1.10801959      -0.83688632
H       -0.39925805      -0.81346509       0.86725176
9
Frame=12 idx=001606 GeodesicLength=0.70183276120157 rxn_smarts="[O:1]=[C:2]([O:3][C:4]([C:5]#[N:6])([H:8])[H:9])[H:7]>>[O:1]([C-:2]=[O+:3][C:4]([C:5]#[N:6])([H:8])[H:9])[H:7]"
O        1.95278011      -0.55555340       0.28973585
C        1.55400063       0.54340753      -0.17363230
O        0.28513975       0.72181882      -0.44908399
C       -0.63077877      -0.30874661      -0.05446657
C       -1.95959108       0.29886753       0.01218375
N       -2.99294149       0.78499318       0.10622037
H        2.82166047       0.39412620       0.18487635
H       -0.61781668      -1.08977356      -0.81485033
H       -0.41245294      -0.78913970       0.89901686
9
Frame=13 idx=001606 GeodesicLength=0.7480865062085978 rxn_smarts="[O:1]=[C:2]([O:3][C:4]([C:5]#[N:6])([H:8])[H:9])[H:7]>>[O:1]([C-:2]=[O+:3][C:4]([C:5]#[N:6])([H:8])[H:9])[H:7]"
O        1.95084724      -0.57655435       0.24029150
C        1.55522580       0.54570830      -0.16116794
O        0.27885964       0.75901703      -0.37229065
C       -0.63134100      -0.29493054      -0.03000343
C       -1.97241464       0.28756838      -0.00223285
N       -3.01534636       0.75893961       0.05215047
H        2.84188267       0.36200965       0.13732107
H       -0.58040613      -1.07153425      -0.79351096
H       -0.42730722      -0.77022384       0.92944278
9
Frame=14 idx=001606 GeodesicLength=0.7944677559693116 rxn_smarts="[O:1]=[C:2]([O:3][C:4]([C:5]#[N:6])([H:8])[H:9])[H:7]>>[O:1]([C-:2]=[O+:3][C:4]([C:5]#[N:6])([H:8])[H:9])[H:7]"
O        1.94690117      -0.59327811       0.19337691
C        1.55485917       0.54826760      -0.14737797
O        0.27377494       0.79017144      -0.29300485
C       -0.63192240      -0.28383073      -0.00568541
C       -1.98196057       0.27740936      -0.01622022
N       -3.03126666       0.73732613      -0.00304817
H        2.85839127       0.33458343       0.08579023
H       -0.54528536      -1.05428234      -0.77239954
H       -0.44349156      -0.75636679       0.95856902
9
Frame=15 idx=001606 GeodesicLength=0.8410420347887079 rxn_smarts="[O:1]=[C:2]([O:3][C:4]([C:5]#[N:6])([H:8])[H:9])[H:7]>>[O:1]([C-:2]=[O+:3][C:4]([C:5]#[N:6])([H:8])[H:9])[H:7]"
O        1.94151286      -0.60612246       0.14867330
C        1.55299468       0.55101677      -0.13209231
O        0.26971727       0.81504215      -0.21176222
C       -0.63253713      -0.27549407       0.01859677
C       -1.98848144       0.26847748      -0.02998253
N       -3.04078972       0.72059615      -0.05937499
H        2.87098777       0.31234850       0.03041762
H       -0.51232317      -1.03859346      -0.75113786
H       -0.46108112      -0.74727107       0.98666223
9
Frame=16 idx=001606 GeodesicLength=0.8877431485972307 rxn_smarts="[O:1]=[C:2]([O:3][C:4]([C:5]#[N:6])([H:8])[H:9])[H:7]>>[O:1]([C-:2]=[O+:3][C:4]([C:5]#[N:6])([H:8])[H:9])[H:7]"
O        1.93508871      -0.61540026       0.10631033
C        1.54974444       0.55369887      -0.11574545
O        0.26656898       0.83342982      -0.12949475
C       -0.63318221      -0.26993040       0.04273654
C       -1.99211928       0.26088420      -0.04392515
N       -3.04400087       0.70903390      -0.11608202
H        2.87936883       0.29577364      -0.02809891
H       -0.48134078      -1.02503397      -0.72950644
H       -0.48012782      -0.74245579       1.01380586
