15
Frame=0 idx=007000 GeodesicLength=0.0 rxn_smarts="[C:1]([C@@:2]([O:3][H:11])([C:4]([N:5]([H:14])[H:15])([H:12])[H:13])[C:6]#[N:7])([H:8])([H:9])[H:10]>>[C:1]([C:2]([C:4]([N:5]([H:14])[H:15])([H:12])[H:13])=[C:6]=[N:7][O:3][H:11])([H:8])([H:9])[H:10]"
C        0.66310065       1.24738673      -0.99682476
C        0.51352022      -0.12786251      -0.46326907
O        0.83116392      -0.07915996       1.93468247
C       -0.81293209      -0.82790058      -0.51006455
N       -1.79211028       0.00361048       0.16278469
C        1.59097704      -0.83592273      -0.03033754
N        2.22029010      -1.19444950       0.90472856
H        1.54332497       1.73379295      -0.58225756
H       -0.23698470       1.81590726      -0.77058513
H        0.76927624       1.19865946      -2.08635672
H        0.76342180       0.17004277       2.86894318
H       -0.69500840      -1.83233042      -0.09069214
H       -1.10247307      -0.93394441      -1.56318696
H       -1.53803415       0.05396857       1.14416022
H       -2.71753220      -0.39179807       0.07827530
15
Frame=1 idx=007000 GeodesicLength=0.06634956243354267 rxn_smarts="[C:1]([C@@:2]([O:3][H:11])([C:4]([N:5]([H:14])[H:15])([H:12])[H:13])[C:6]#[N:7])([H:8])([H:9])[H:10]>>[C:1]([C:2]([C:4]([N:5]([H:14])[H:15])([H:12])[H:13])=[C:6]=[N:7][O:3][H:11])([H:8])([H:9])[H:10]"
C        0.66088410       1.24672668      -0.99853020
C        0.51408071      -0.12081614      -0.44059379
O        0.86092151      -0.04832015       1.92026275
C       -0.81012267      -0.82734005      -0.49413402
N       -1.79021459       0.00639353       0.17489464
C        1.60040613      -0.83414039      -0.03387305
N        2.23718881      -1.18474077       0.90030263
H        1.55005896       1.73481385      -0.60542283
H       -0.23229729       1.82298324      -0.76354502
H        0.74920306       1.18343012      -2.08871467
H        0.76304141       0.13261086       2.86695359
H       -0.69289799      -1.82872849      -0.06836052
H       -1.08995286      -0.94428336      -1.54871257
H       -1.59306141      -0.00755884       1.16978824
H       -2.72723787      -0.33103010       0.00968483
15
Frame=2 idx=007000 GeodesicLength=0.13181729174510537 rxn_smarts="[C:1]([C@@:2]([O:3][H:11])([C:4]([N:5]([H:14])[H:15])([H:12])[H:13])[C:6]#[N:7])([H:8])([H:9])[H:10]>>[C:1]([C:2]([C:4]([N:5]([H:14])[H:15])([H:12])[H:13])=[C:6]=[N:7][O:3][H:11])([H:8])([H:9])[H:10]"
C        0.65802722       1.24644588      -1.00217821
C        0.51551465      -0.11202459      -0.41720886
O        0.88561455      -0.02892605       1.90872920
C       -0.80598053      -0.82610677      -0.47546824
N       -1.78793545       0.00978350       0.18842273
C        1.61105403      -0.82968435      -0.03769044
N        2.25727330      -1.17198473       0.89423086
H        1.55556455       1.73728960      -0.63199752
H       -0.22828661       1.83053824      -0.75958000
H        0.72797173       1.16674518      -2.09243000
H        0.75560266       0.08878846       2.86101597
H       -0.68857818      -1.82352326      -0.04148037
H       -1.07659992      -0.95628595      -1.53090046
H       -1.65123213      -0.06467996       1.19008716
H       -2.72800983      -0.26637518      -0.05355183
15
Frame=3 idx=007000 GeodesicLength=0.19677805338721915 rxn_smarts="[C:1]([C@@:2]([O:3][H:11])([C:4]([N:5]([H:14])[H:15])([H:12])[H:13])[C:6]#[N:7])([H:8])([H:9])[H:10]>>[C:1]([C:2]([C:4]([N:5]([H:14])[H:15])([H:12])[H:13])=[C:6]=[N:7][O:3][H:11])([H:8])([H:9])[H:10]"
C        0.65497173       1.24556429      -1.00549246
C        0.51715288      -0.10389801      -0.39470411
O        0.90825961      -0.00882375       1.89754210
C       -0.80185848      -0.82524982      -0.45727135
N       -1.78489658       0.01129922       0.20455467
C        1.62100112      -0.82533623      -0.04057751
N        2.27633911      -1.15838857       0.88947514
H        1.56005985       1.73895791      -0.65758428
H       -0.22459075       1.83731359      -0.75594825
H        0.70736163       1.15006070      -2.09527388
H        0.74666815       0.04749689       2.85019001
H       -0.68386121      -1.81951813      -0.01718793
H       -1.06471848      -0.96679818      -1.51318902
H       -1.71119230      -0.12601119       1.20559020
H       -2.72069628      -0.19666872      -0.11012333
15
Frame=4 idx=007000 GeodesicLength=0.2622229138673416 rxn_smarts="[C:1]([C@@:2]([O:3][H:11])([C:4]([N:5]([H:14])[H:15])([H:12])[H:13])[C:6]#[N:7])([H:8])([H:9])[H:10]>>[C:1]([C:2]([C:4]([N:5]([H:14])[H:15])([H:12])[H:13])=[C:6]=[N:7][O:3][H:11])([H:8])([H:9])[H:10]"
C        0.65108606       1.24515950      -1.01040196
C        0.51953397      -0.09372837      -0.37116233
O        0.92774037       0.00086934       1.88947285
C       -0.79640365      -0.82363488      -0.43612042
N       -1.78251137       0.01381373       0.22038737
C        1.63206500      -0.81836806      -0.04417617
N        2.29853478      -1.14240792       0.88228258
H        1.56333908       1.74191604      -0.68665645
H       -0.22153033       1.84487781      -0.75459324
H        0.68487181       1.13211626      -2.09905063
H        0.73257644      -0.00108724       2.83705894
H       -0.67713254      -1.81326495       0.01308056
H       -1.05126941      -0.97980935      -1.49194596
H       -1.77551631      -0.18048951       1.21402819
H       -2.70538389      -0.12596240      -0.16220332
15
Frame=5 idx=007000 GeodesicLength=0.32702242090462164 rxn_smarts="[C:1]([C@@:2]([O:3][H:11])([C:4]([N:5]([H:14])[H:15])([H:12])[H:13])[C:6]#[N:7])([H:8])([H:9])[H:10]>>[C:1]([C:2]([C:4]([N:5]([H:14])[H:15])([H:12])[H:13])=[C:6]=[N:7][O:3][H:11])([H:8])([H:9])[H:10]"
C        0.64726470       1.24392504      -1.01423800
C        0.52185793      -0.08485698      -0.34880937
O        0.94651304       0.01435690       1.88105557
C       -0.79142492      -0.82258460      -0.41643319
N       -1.77976302       0.01384790       0.23858316
C        1.64190682      -0.81249050      -0.04664046
N        2.31853746      -1.12668428       0.87699428
H        1.56592430       1.74337188      -0.71336659
H       -0.21854382       1.85140690      -0.75271292
H        0.66371839       1.11459123      -2.10129515
H        0.71885440      -0.04361651       2.81922953
H       -0.67072075      -1.80882292       0.03898029
H       -1.03988408      -0.99042549      -1.47199841
H       -1.84129662      -0.24019119       1.21621317
H       -2.68294383      -0.05182740      -0.20556191
15
Frame=6 idx=007000 GeodesicLength=0.3927941684328308 rxn_smarts="[C:1]([C@@:2]([O:3][H:11])([C:4]([N:5]([H:14])[H:15])([H:12])[H:13])[C:6]#[N:7])([H:8])([H:9])[H:10]>>[C:1]([C:2]([C:4]([N:5]([H:14])[H:15])([H:12])[H:13])=[C:6]=[N:7][O:3][H:11])([H:8])([H:9])[H:10]"
C        0.64251154       1.24318908      -1.01874880
C        0.52471878      -0.07415275      -0.32531615
O        0.96416157       0.01934791       1.87541055
C       -0.78532332      -0.82092956      -0.39399993
N       -1.77848548       0.01483075       0.25516641
C        1.65249746      -0.80454397      -0.05005096
N        2.34097333      -1.10979059       0.86896566
H        1.56729122       1.74572143      -0.74258469
H       -0.21605711       1.85885363      -0.75161667
H        0.64024098       1.09648799      -2.10353755
H        0.70258555      -0.09189585       2.79946297
H       -0.66284209      -1.80198076       0.07123311
H       -1.02656799      -1.00386658      -1.44876438
H       -1.91166003      -0.29168332       1.20980074
H       -2.65404441       0.02041259      -0.24542031
15
Frame=7 idx=007000 GeodesicLength=0.4575941787164909 rxn_smarts="[C:1]([C@@:2]([O:3][H:11])([C:4]([N:5]([H:14])[H:15])([H:12])[H:13])[C:6]#[N:7])([H:8])([H:9])[H:10]>>[C:1]([C:2]([C:4]([N:5]([H:14])[H:15])([H:12])[H:13])=[C:6]=[N:7][O:3][H:11])([H:8])([H:9])[H:10]"
C        0.63811128       1.24146947      -1.02178917
C        0.52727600      -0.06518594      -0.30310443
O        0.98181535       0.02993103       1.86896501
C       -0.78008939      -0.81991900      -0.37383001
N       -1.77709983       0.01284603       0.27410472
C        1.66148420      -0.79840162      -0.05209804
N        2.36045118      -1.09397332       0.86331466
H        1.56833521       1.74614675      -0.76856141
H       -0.21341273       1.86507654      -0.74968522
H        0.61887233       1.07895844      -2.10398004
H        0.68810718      -0.13111624       2.77556222
H       -0.65594371      -1.79741748       0.09766224
H       -1.01583712      -1.01404645      -1.42784595
H       -1.98248515      -0.34889266       1.19559455
H       -2.61958479       0.09452446      -0.27430912
15
Frame=8 idx=007000 GeodesicLength=0.5232191392609977 rxn_smarts="[C:1]([C@@:2]([O:3][H:11])([C:4]([N:5]([H:14])[H:15])([H:12])[H:13])[C:6]#[N:7])([H:8])([H:9])[H:10]>>[C:1]([C:2]([C:4]([N:5]([H:14])[H:15])([H:12])[H:13])=[C:6]=[N:7][O:3][H:11])([H:8])([H:9])[H:10]"
C        0.63265508       1.24029727      -1.02441294
C        0.53007930      -0.05477176      -0.27962082
O        1.00022278       0.03363330       1.86479915
C       -0.77405380      -0.81858649      -0.35124127
N       -1.77798914       0.01162408       0.29008316
C        1.67075716      -0.79087154      -0.05534512
N        2.38167285      -1.07840096       0.85455036
H        1.56808344       1.74716218      -0.79568715
H       -0.21117974       1.87229485      -0.74692233
H        0.59482114       1.06169969      -2.10338199
H        0.67414082      -0.17366200       2.75037246
H       -0.64833745      -1.79046112       0.13059806
H       -1.00281789      -1.02740644      -1.40402809
H       -2.05721767      -0.39636928       1.17149691
H       -2.58083689       0.16381822      -0.30126038
15
Frame=9 idx=007000 GeodesicLength=0.5876191838731469 rxn_smarts="[C:1]([C@@:2]([O:3][H:11])([C:4]([N:5]([H:14])[H:15])([H:12])[H:13])[C:6]#[N:7])([H:8])([H:9])[H:10]>>[C:1]([C:2]([C:4]([N:5]([H:14])[H:15])([H:12])[H:13])=[C:6]=[N:7][O:3][H:11])([H:8])([H:9])[H:10]"
C        0.62762082       1.23814755      -1.02519017
C        0.53231010      -0.04627755      -0.25714186
O        1.01957101       0.04327109       1.85961591
C       -0.76916723      -0.81798818      -0.33130687
N       -1.77930449       0.00715976       0.30778253
C        1.67818379      -0.78557857      -0.05736514
N        2.39963097      -1.06502552       0.84787724
H        1.56772381       1.74615621      -0.81902083
H       -0.20868420       1.87828047      -0.74287737
H        0.57306395       1.04521541      -2.10076819
H        0.66348768      -0.20485765       2.72254597
H       -0.64231982      -1.78592279       0.15736723
H       -0.99233433      -1.03742079      -1.38312292
H       -2.13105384      -0.44803074       1.13827233
H       -2.53872820       0.23287131      -0.31666786
15
Frame=10 idx=007000 GeodesicLength=0.6519987866734298 rxn_smarts="[C:1]([C@@:2]([O:3][H:11])([C:4]([N:5]([H:14])[H:15])([H:12])[H:13])[C:6]#[N:7])([H:8])([H:9])[H:10]>>[C:1]([C:2]([C:4]([N:5]([H:14])[H:15])([H:12])[H:13])=[C:6]=[N:7][O:3][H:11])([H:8])([H:9])[H:10]"
C        0.62180554       1.23613492      -1.02452541
C        0.53426961      -0.03765301      -0.23387872
O        1.04083939       0.05076278       1.85545556
C       -0.76432884      -0.81768025      -0.31073090
N       -1.78294093       0.00210921       0.32292218
C        1.68496150      -0.78044207      -0.06000309
N        2.41772669      -1.05318047       0.83932421
H        1.56628998       1.74490119      -0.84122688
H       -0.20649002       1.88465244      -0.73699796
H        0.54985028       1.02962344      -2.09636772
H        0.65635117      -0.23377782       2.69436275
H       -0.63686012      -1.78057137       0.18697446
H       -0.98067136      -1.04911866      -1.36144111
H       -2.20627388      -0.49280148       1.09488453
H       -2.49452900       0.29704115      -0.32875191
15
Frame=11 idx=007000 GeodesicLength=0.7154733847845208 rxn_smarts="[C:1]([C@@:2]([O:3][H:11])([C:4]([N:5]([H:14])[H:15])([H:12])[H:13])[C:6]#[N:7])([H:8])([H:9])[H:10]>>[C:1]([C:2]([C:4]([N:5]([H:14])[H:15])([H:12])[H:13])=[C:6]=[N:7][O:3][H:11])([H:8])([H:9])[H:10]"
C        0.61602636       1.23350516      -1.02166364
C        0.53548106      -0.03072638      -0.21093912
O        1.06447543       0.06244748       1.85040318
C       -0.76060540      -0.81824721      -0.29228100
N       -1.78802425      -0.00570157       0.33787198
C        1.69001318      -0.77747387      -0.06216552
N        2.43322768      -1.04467895       0.83138687
H        1.56450061       1.74217816      -0.85959659
H       -0.20426539       1.89022135      -0.72906462
H        0.52793810       1.01525059      -2.08979784
H        0.65393022      -0.25158656       2.66587753
H       -0.63325625      -1.77713379       0.21252045
H       -0.97037787      -1.05901657      -1.34227620
H       -2.27973379      -0.53708553       1.04184522
H       -2.44932969       0.35804768      -0.33212068
15
Frame=12 idx=007000 GeodesicLength=0.7788077708179247 rxn_smarts="[C:1]([C@@:2]([O:3][H:11])([C:4]([N:5]([H:14])[H:15])([H:12])[H:13])[C:6]#[N:7])([H:8])([H:9])[H:10]>>[C:1]([C:2]([C:4]([N:5]([H:14])[H:15])([H:12])[H:13])=[C:6]=[N:7][O:3][H:11])([H:8])([H:9])[H:10]"
C        0.60954953       1.23075469      -1.01644792
C        0.53594416      -0.02471341      -0.18740795
O        1.09122551       0.07489950       1.84513112
C       -0.75759984      -0.81970339      -0.27434793
N       -1.79566929      -0.01504364       0.34984364
C        1.69371135      -0.77577105      -0.06476704
N        2.44789662      -1.03882125       0.82194293
H        1.56174805       1.73876145      -0.87507708
H       -0.20228313       1.89571185      -0.71819655
H        0.50510298       1.00235751      -2.08079802
H        0.65733338      -0.26293411       2.63846928
H       -0.63131760      -1.77402391       0.23865349
H       -0.95944403      -1.07005394      -1.32371494
H       -2.35229453      -0.57507443       0.97906452
H       -2.40390316       0.41365415      -0.33234755
15
Frame=13 idx=007000 GeodesicLength=0.8421701707583574 rxn_smarts="[C:1]([C@@:2]([O:3][H:11])([C:4]([N:5]([H:14])[H:15])([H:12])[H:13])[C:6]#[N:7])([H:8])([H:9])[H:10]>>[C:1]([C:2]([C:4]([N:5]([H:14])[H:15])([H:12])[H:13])=[C:6]=[N:7][O:3][H:11])([H:8])([H:9])[H:10]"
C        0.60282077       1.22746889      -1.00862336
C        0.53536301      -0.02058334      -0.16375330
O        1.12143998       0.09152738       1.83845457
C       -0.75589962      -0.82235534      -0.25843546
N       -1.80544715      -0.02708920       0.36018630
C        1.69552183      -0.77638320      -0.06717343
N        2.46027382      -1.03669095       0.81241243
H        1.55846287       1.73409133      -0.88636686
H       -0.20044427       1.90046523      -0.70452816
H        0.48296534       0.99095556      -2.06940010
H        0.66699170      -0.26315804       2.61247913
H       -0.63171634      -1.77285308       0.26153353
H       -0.94924668      -1.08032621      -1.30763414
H       -2.42205956      -0.61013455       0.90704011
H       -2.35902570       0.46506551      -0.32619126
15
Frame=14 idx=007000 GeodesicLength=0.9065428733412599 rxn_smarts="[C:1]([C@@:2]([O:3][H:11])([C:4]([N:5]([H:14])[H:15])([H:12])[H:13])[C:6]#[N:7])([H:8])([H:9])[H:10]>>[C:1]([C:2]([C:4]([N:5]([H:14])[H:15])([H:12])[H:13])=[C:6]=[N:7][O:3][H:11])([H:8])([H:9])[H:10]"
C        0.59585048       1.22351623      -0.99780854
C        0.53351157      -0.01882107      -0.13996352
O        1.15580323       0.11348238       1.82949759
C       -0.75576303      -0.82652247      -0.24502607
N       -1.81747328      -0.04230110       0.36868969
C        1.69523826      -0.77973896      -0.06929102
N        2.46992640      -1.03887317       0.80306035
H        1.55470111       1.72805420      -0.89271219
H       -0.19880053       1.90422010      -0.68758255
H        0.46177066       0.98122500      -2.05540761
H        0.68362700      -0.25034438       2.58831508
H       -0.63482478      -1.77425974       0.28015494
H       -0.93998117      -1.08967802      -1.29466361
H       -2.48833036      -0.64219991       0.82608208
H       -2.31525556       0.51224090      -0.31334461
15
Frame=15 idx=007000 GeodesicLength=0.973183677759456 rxn_smarts="[C:1]([C@@:2]([O:3][H:11])([C:4]([N:5]([H:14])[H:15])([H:12])[H:13])[C:6]#[N:7])([H:8])([H:9])[H:10]>>[C:1]([C:2]([C:4]([N:5]([H:14])[H:15])([H:12])[H:13])=[C:6]=[N:7][O:3][H:11])([H:8])([H:9])[H:10]"
C        0.58826108       1.21904480      -0.98359010
C        0.53026377      -0.01940838      -0.11559380
O        1.19490124       0.13988530       1.81782994
C       -0.75715576      -0.83244174      -0.23346757
N       -1.83233214      -0.06007675       0.37363219
C        1.69290851      -0.78564542      -0.07140017
N        2.47761594      -1.04476617       0.79310590
H        1.55013455       1.72094816      -0.89401337
H       -0.19748638       1.90717125      -0.66643835
H        0.44043769       0.97345406      -2.03842311
H        0.70842048      -0.22636017       2.56617874
H       -0.64083091      -1.77775091       0.29653875
H       -0.93069397      -1.09965994      -1.28400384
H       -2.55145825      -0.66839897       0.73680105
H       -2.27298587       0.55400486      -0.29715626
15
Frame=16 idx=007000 GeodesicLength=1.0437168567462423 rxn_smarts="[C:1]([C@@:2]([O:3][H:11])([C:4]([N:5]([H:14])[H:15])([H:12])[H:13])[C:6]#[N:7])([H:8])([H:9])[H:10]>>[C:1]([C:2]([C:4]([N:5]([H:14])[H:15])([H:12])[H:13])=[C:6]=[N:7][O:3][H:11])([H:8])([H:9])[H:10]"
C        0.58041431       1.21363428      -0.96572017
C        0.52532532      -0.02306991      -0.09077760
O        1.23916973       0.17318870       1.80175907
C       -0.76051728      -0.84026415      -0.22497867
N       -1.84972683      -0.08147224       0.37614462
C        1.68815059      -0.79483894      -0.07284872
N        2.48183851      -1.05548040       0.78411950
H        1.54514507       1.71232332      -0.88909231
H       -0.19657605       1.90861503      -0.64138138
H        0.42057101       0.96739170      -2.01847899
H        0.74166940      -0.18699730       2.54558925
H       -0.65015562      -1.78465038       0.30737557
H       -0.92249707      -1.10853917      -1.27719802
H       -2.61005147      -0.69115291       0.63942348
H       -2.23275962       0.59131238      -0.27393562
