10
Frame=0 idx=003072 GeodesicLength=0.0 rxn_smarts="[N:1]([C:2](=[O:3])[C:4]([C:5]#[N:6])([H:9])[H:10])([H:7])[H:8]>>[N:1]([C:2]([O:3][C:5]#[N:6])=[C:4]([H:9])[H:10])([H:7])[H:8]"
N       -1.26456845       1.06396626       0.44218851
C       -0.38678512       0.16129253       0.05597084
O       -0.53248118      -0.38419745      -1.13471124
C        0.81607659      -0.32647115       0.59366100
C        0.83233988      -0.87418678      -1.24487149
N        1.53990169      -1.39553548      -2.01475604
H       -1.93373806       1.43500243      -0.21090850
H       -1.26629762       1.39812266       1.38770730
H        1.42504878       0.29419442       1.24113190
H        0.77050347      -1.37218743       0.88458772
10
Frame=1 idx=003072 GeodesicLength=0.07909351260739007 rxn_smarts="[N:1]([C:2](=[O:3])[C:4]([C:5]#[N:6])([H:9])[H:10])([H:7])[H:8]>>[N:1]([C:2]([O:3][C:5]#[N:6])=[C:4]([H:9])[H:10])([H:7])[H:8]"
N       -1.25106711       1.08089299       0.43078092
C       -0.41528458       0.12316067       0.07739783
O       -0.57215135      -0.42663458      -1.10925312
C        0.80497481      -0.34201887       0.59887211
C        0.83759010      -0.85987298      -1.24913766
N        1.56430219      -1.34096801      -2.02583208
H       -1.94468693       1.41717225      -0.21533469
H       -1.21422516       1.46528104       1.35645259
H        1.39679176       0.27631523       1.26380893
H        0.79375626      -1.39332774       0.87224517
10
Frame=2 idx=003072 GeodesicLength=0.15834218517481563 rxn_smarts="[N:1]([C:2](=[O:3])[C:4]([C:5]#[N:6])([H:9])[H:10])([H:7])[H:8]>>[N:1]([C:2]([O:3][C:5]#[N:6])=[C:4]([H:9])[H:10])([H:7])[H:8]"
N       -1.23756639       1.09488379       0.41768720
C       -0.44117867       0.08922372       0.09836949
O       -0.61008826      -0.46746080      -1.08294048
C        0.79440141      -0.35656637       0.60430659
C        0.84155696      -0.84519151      -1.25236919
N        1.58511330      -1.28625698      -2.03532699
H       -1.95553324       1.39942393      -0.21726622
H       -1.16135498       1.52655626       1.31994898
H        1.36970677       0.25739971       1.28715493
H        0.81494310      -1.41201174       0.86043569
10
Frame=3 idx=003072 GeodesicLength=0.2377629535253274 rxn_smarts="[N:1]([C:2](=[O:3])[C:4]([C:5]#[N:6])([H:9])[H:10])([H:7])[H:8]>>[N:1]([C:2]([O:3][C:5]#[N:6])=[C:4]([H:9])[H:10])([H:7])[H:8]"
N       -1.22468676       1.10629744       0.40364262
C       -0.46439572       0.05969615       0.11807242
O       -0.64558944      -0.50505787      -1.05719699
C        0.78423655      -0.37028055       0.60980588
C        0.84525841      -0.83029898      -1.25478045
N        1.60349539      -1.23267729      -2.04294845
H       -1.96886745       1.38011666      -0.21473634
H       -1.10609210       1.58373958       1.27781092
H        1.34333125       0.23719813       1.31136608
H        0.83330987      -1.42873328       0.84896431
10
Frame=4 idx=003072 GeodesicLength=0.31709404378694994 rxn_smarts="[N:1]([C:2](=[O:3])[C:4]([C:5]#[N:6])([H:9])[H:10])([H:7])[H:8]>>[N:1]([C:2]([O:3][C:5]#[N:6])=[C:4]([H:9])[H:10])([H:7])[H:8]"
N       -1.21252833       1.11521192       0.38933704
C       -0.48538335       0.03350556       0.13718214
O       -0.67975950      -0.54076304      -1.03095295
C        0.77508474      -0.38258833       0.61492865
C        0.84819216      -0.81561636      -1.25664695
N        1.61886392      -1.18102315      -2.04919023
H       -1.97962816       1.36372552      -0.21124418
H       -1.05362243       1.63315984       1.23352583
H        1.31812417       0.21730570       1.33503859
H        0.85065678      -1.44291766       0.83802206
10
Frame=5 idx=003072 GeodesicLength=0.3965559907461134 rxn_smarts="[N:1]([C:2](=[O:3])[C:4]([C:5]#[N:6])([H:9])[H:10])([H:7])[H:8]>>[N:1]([C:2]([O:3][C:5]#[N:6])=[C:4]([H:9])[H:10])([H:7])[H:8]"
N       -1.20133166       1.12217142       0.37508737
C       -0.50458670       0.01024728       0.15535029
O       -0.71242681      -0.57390919      -1.00515055
C        0.76655306      -0.39382621       0.61977964
C        0.85115826      -0.80094946      -1.25807739
N        1.63242753      -1.13150066      -2.05399631
H       -1.99025562       1.34855335      -0.20544237
H       -1.00168912       1.67702890       1.18656636
H        1.29360256       0.19740242       1.35843198
H        0.86654850      -1.45521785       0.82745100
10
Frame=6 idx=003072 GeodesicLength=0.4761202784727847 rxn_smarts="[N:1]([C:2](=[O:3])[C:4]([C:5]#[N:6])([H:9])[H:10])([H:7])[H:8]>>[N:1]([C:2]([O:3][C:5]#[N:6])=[C:4]([H:9])[H:10])([H:7])[H:8]"
N       -1.19070600       1.12764145       0.36091934
C       -0.52234184      -0.01076282       0.17306159
O       -0.74435672      -0.60558665      -0.97895753
C        0.75879507      -0.40395346       0.62428732
C        0.85381104      -0.78659841      -1.25916051
N        1.64409871      -1.08354954      -2.05787898
H       -1.99884028       1.33599322      -0.19938973
H       -0.95216230       1.71458511       1.13865808
H        1.26991082       0.17788490       1.38115286
H        0.88179150      -1.46565380       0.81730755
10
Frame=7 idx=003072 GeodesicLength=0.5558594638541496 rxn_smarts="[N:1]([C:2](=[O:3])[C:4]([C:5]#[N:6])([H:9])[H:10])([H:7])[H:8]>>[N:1]([C:2]([O:3][C:5]#[N:6])=[C:4]([H:9])[H:10])([H:7])[H:8]"
N       -1.18079672       1.13170112       0.34692401
C       -0.53904101      -0.03000402       0.19039619
O       -0.77551979      -0.63561910      -0.95266050
C        0.75131144      -0.41361250       0.62878121
C        0.85665629      -0.77184951      -1.25984387
N        1.65482959      -1.03601374      -2.06069318
H       -2.00779747       1.32382381      -0.19102085
H       -0.90189228       1.74893013       1.08691166
H        1.24632734       0.15773887       1.40393820
H        0.89592260      -1.47509506       0.80726712
10
Frame=8 idx=003072 GeodesicLength=0.6357089923369083 rxn_smarts="[N:1]([C:2](=[O:3])[C:4]([C:5]#[N:6])([H:9])[H:10])([H:7])[H:8]>>[N:1]([C:2]([O:3][C:5]#[N:6])=[C:4]([H:9])[H:10])([H:7])[H:8]"
N       -1.17118832       1.13491677       0.33303851
C       -0.55464085      -0.04748843       0.20736614
O       -0.80636484      -0.66447336      -0.92585388
C        0.74449688      -0.42228824       0.63290470
C        0.85942558      -0.75734870      -1.26033193
N        1.66422332      -0.99005621      -2.06277196
H       -2.01472073       1.31420440      -0.18303935
H       -0.85441379       1.77742604       1.03536546
H        1.22359510       0.13810728       1.42574676
H        0.90958764      -1.48299957       0.79757555
10
Frame=9 idx=003072 GeodesicLength=0.7156998218372733 rxn_smarts="[N:1]([C:2](=[O:3])[C:4]([C:5]#[N:6])([H:9])[H:10])([H:7])[H:8]>>[N:1]([C:2]([O:3][C:5]#[N:6])=[C:4]([H:9])[H:10])([H:7])[H:8]"
N       -1.16208627       1.13692771       0.31969043
C       -0.56943355      -0.06381371       0.22456290
O       -0.83717050      -0.69268191      -0.89790813
C        0.73814498      -0.43049579       0.63697246
C        0.86202896      -0.74251820      -1.26055076
N        1.67238210      -0.94402032      -2.06429550
H       -2.01989660       1.30626454      -0.17559799
H       -0.80815861       1.80219665       0.98197076
H        1.20128862       0.11812415       1.44724211
H        0.92290086      -1.48998313       0.78791371
10
Frame=10 idx=003072 GeodesicLength=0.7958687366325545 rxn_smarts="[N:1]([C:2](=[O:3])[C:4]([C:5]#[N:6])([H:9])[H:10])([H:7])[H:8]>>[N:1]([C:2]([O:3][C:5]#[N:6])=[C:4]([H:9])[H:10])([H:7])[H:8]"
N       -1.15325063       1.13840264       0.30631289
C       -0.58349320      -0.07869691       0.24126380
O       -0.86774368      -0.71948891      -0.86974868
C        0.73196702      -0.43813320       0.64082443
C        0.86507085      -0.72753850      -1.26049774
N        1.68020251      -0.89893724      -2.06484083
H       -2.02491082       1.29931471      -0.16685456
H       -0.76252225       1.82280391       0.92725562
H        1.17943325       0.09826591       1.46782588
H        0.93524695      -1.49599240       0.77845919
10
Frame=11 idx=003072 GeodesicLength=0.8762973117791422 rxn_smarts="[N:1]([C:2](=[O:3])[C:4]([C:5]#[N:6])([H:9])[H:10])([H:7])[H:8]>>[N:1]([C:2]([O:3][C:5]#[N:6])=[C:4]([H:9])[H:10])([H:7])[H:8]"
N       -1.14502506       1.13866154       0.29397518
C       -0.59704690      -0.09286354       0.25855432
O       -0.89862315      -0.74589565      -0.84004763
C        0.72603174      -0.44569264       0.64483431
C        0.86796403      -0.71193631      -1.26007746
N        1.68707894      -0.85258626      -2.06478519
H       -2.02832033       1.29371886      -0.15883868
H       -0.71720053       1.84045691       0.86929636
H        1.15792871       0.07770863       1.48819837
H        0.94721255      -1.50157154       0.76889040
10
Frame=12 idx=003072 GeodesicLength=0.9572186342800184 rxn_smarts="[N:1]([C:2](=[O:3])[C:4]([C:5]#[N:6])([H:9])[H:10])([H:7])[H:8]>>[N:1]([C:2]([O:3][C:5]#[N:6])=[C:4]([H:9])[H:10])([H:7])[H:8]"
N       -1.13746389       1.13806831       0.28251648
C       -0.61030354      -0.10626499       0.27600886
O       -0.92969626      -0.77130675      -0.80958406
C        0.71997038      -0.45330436       0.64909455
C        0.87126187      -0.69530953      -1.25914748
N        1.69379298      -0.80512294      -2.06360496
H       -2.03193433       1.28860709      -0.14909481
H       -0.67048154       1.85512663       0.80622915
H        1.13654715       0.05643749       1.50834404
H        0.95830719      -1.50693096       0.75923823
10
Frame=13 idx=003072 GeodesicLength=1.0385175489118856 rxn_smarts="[N:1]([C:2](=[O:3])[C:4]([C:5]#[N:6])([H:9])[H:10])([H:7])[H:8]>>[N:1]([C:2]([O:3][C:5]#[N:6])=[C:4]([H:9])[H:10])([H:7])[H:8]"
N       -1.12962868       1.13713829       0.27113542
C       -0.62297407      -0.11872446       0.29380053
O       -0.96135615      -0.79634291      -0.77741736
C        0.71416930      -0.46082756       0.65336298
C        0.87449159      -0.67887735      -1.25785538
N        1.69972594      -0.75616820      -2.06175207
H       -2.03385757       1.28500631      -0.14028362
H       -0.62530783       1.86581630       0.74157193
H        1.11594257       0.03490419       1.52771077
H        0.96879489      -1.51192460       0.74972680
10
Frame=14 idx=003072 GeodesicLength=1.120234585686155 rxn_smarts="[N:1]([C:2](=[O:3])[C:4]([C:5]#[N:6])([H:9])[H:10])([H:7])[H:8]>>[N:1]([C:2]([O:3][C:5]#[N:6])=[C:4]([H:9])[H:10])([H:7])[H:8]"
N       -1.12153586       1.13615204       0.25948436
C       -0.63510778      -0.13004204       0.31149775
O       -0.99346034      -0.82048728      -0.74408166
C        0.70849436      -0.46809256       0.65746919
C        0.87817127      -0.66217249      -1.25631741
N        1.70545413      -0.70712209      -2.05898768
H       -2.03497838       1.28258837      -0.13123192
H       -0.58161886       1.87217962       0.67590400
H        1.09612214       0.01342449       1.54602232
H        0.97845934      -1.51642804       0.74024104
10
Frame=15 idx=003072 GeodesicLength=1.2024163461725221 rxn_smarts="[N:1]([C:2](=[O:3])[C:4]([C:5]#[N:6])([H:9])[H:10])([H:7])[H:8]>>[N:1]([C:2]([O:3][C:5]#[N:6])=[C:4]([H:9])[H:10])([H:7])[H:8]"
N       -1.11326907       1.13503170       0.24771635
C       -0.64672726      -0.14031721       0.32920159
O       -1.02618337      -0.84379955      -0.70935657
C        0.70296892      -0.47523038       0.66141746
C        0.88231921      -0.64517086      -1.25455674
N        1.71104678      -0.65770774      -2.05530857
H       -2.03516307       1.28136888      -0.12232237
H       -0.53953015       1.87453621       0.60921484
H        1.07722553      -0.00805526       1.56328111
H        0.98731248      -1.52065580       0.73071289
10
Frame=16 idx=003072 GeodesicLength=1.2849270359471792 rxn_smarts="[N:1]([C:2](=[O:3])[C:4]([C:5]#[N:6])([H:9])[H:10])([H:7])[H:8]>>[N:1]([C:2]([O:3][C:5]#[N:6])=[C:4]([H:9])[H:10])([H:7])[H:8]"
N       -1.10460746       1.13384215       0.23542917
C       -0.65772673      -0.14946791       0.34688494
O       -1.05965421      -0.86638596      -0.67285993
C        0.69768409      -0.48219913       0.66503401
C        0.88692198      -0.62826106      -1.25270418
N        1.71646010      -0.60803465      -2.05085988
H       -2.03397306       1.28142504      -0.11452336
H       -0.49994320       1.87303913       0.54324779
H        1.05951179      -0.02934950       1.57921187
H        0.99532670      -1.52460810       0.72113958
