16
Frame=0 idx=004070 GeodesicLength=0.0 rxn_smarts="[C:1]([C@@:2]1([H:10])[C:3]([H:11])([H:12])[C@:4]1([C:5]([H:13])([H:14])[H:15])[O:6][H:16])([H:7])([H:8])[H:9]>>[C:1]([C-:2][C:3]([C+:4][O:6][H:16])([H:11])[H:12])([H:7])([H:8])[H:9].[C:5]([H:10])([H:13])([H:14])[H:15]"
C        1.07182402      -0.78224227       1.26067288
C        1.10692356       0.16188034       0.10195673
C        0.47323329      -0.36494774      -1.16079028
C       -0.88321045      -0.98599110      -1.03042085
C       -0.61374180       1.51715767       0.75412740
O       -1.56885572      -0.67078259      -2.10293883
H        1.90848705      -1.46650623       1.07224125
H        1.29535628      -0.27649623       2.20052194
H        0.17099777      -1.39714913       1.36364247
H        0.54289699       1.34134066       0.41822500
H        0.53562235       0.35263665      -1.98759506
H        1.12676340      -1.21292501      -1.42150165
H       -1.02647202       2.13838851      -0.03858379
H       -0.47491747       2.07757510       1.67735376
H       -1.22048990       0.63370823       0.92165821
H       -2.44441736      -1.06564689      -2.02856911
16
Frame=1 idx=004070 GeodesicLength=0.1593114436856621 rxn_smarts="[C:1]([C@@:2]1([H:10])[C:3]([H:11])([H:12])[C@:4]1([C:5]([H:13])([H:14])[H:15])[O:6][H:16])([H:7])([H:8])[H:9]>>[C:1]([C-:2][C:3]([C+:4][O:6][H:16])([H:11])[H:12])([H:7])([H:8])[H:9].[C:5]([H:10])([H:13])([H:14])[H:15]"
C        1.11037165      -0.77249150       1.25930150
C        1.09668706       0.15011638       0.08451775
C        0.50406965      -0.42179266      -1.17268373
C       -0.89306569      -0.93077572      -1.02495177
C       -0.66430785       1.48519413       0.74016972
O       -1.56289540      -0.57387887      -2.09725912
H        1.98209509      -1.41800190       1.09730509
H        1.30565944      -0.23459574       2.18804524
H        0.23465041      -1.42046930       1.37397120
H        0.51827776       1.34139138       0.38993253
H        0.63052090       0.25388616      -2.02702684
H        1.10349200      -1.32194592      -1.37750047
H       -1.12533516       2.10859471      -0.02400171
H       -0.52157560       2.04898043       1.66144757
H       -1.24926371       0.59359134       0.94050018
H       -2.46938054      -0.88780291      -2.01176714
16
Frame=2 idx=004070 GeodesicLength=0.31693953376506456 rxn_smarts="[C:1]([C@@:2]1([H:10])[C:3]([H:11])([H:12])[C@:4]1([C:5]([H:13])([H:14])[H:15])[O:6][H:16])([H:7])([H:8])[H:9]>>[C:1]([C-:2][C:3]([C+:4][O:6][H:16])([H:11])[H:12])([H:7])([H:8])[H:9].[C:5]([H:10])([H:13])([H:14])[H:15]"
C        1.14921184      -0.76045991       1.25620440
C        1.08486737       0.13694894       0.06492699
C        0.52811612      -0.48223241      -1.18115978
C       -0.90125198      -0.87658555      -1.02148276
C       -0.71399905       1.45325386       0.72836382
O       -1.54884801      -0.47979444      -2.09633665
H        2.05217520      -1.36642254       1.11698706
H        1.31858263      -0.19138455       2.17188186
H        0.29885379      -1.43832321       1.38695498
H        0.49357277       1.34080921       0.36065420
H        0.71423177       0.14798021      -2.05897587
H        1.06945205      -1.42760442      -1.33048769
H       -1.22358966       2.07848210      -0.00317977
H       -0.56451354       2.01898966       1.64807501
H       -1.27748507       0.55493699       0.95973397
H       -2.47937624      -0.70859393      -2.00215977
16
Frame=3 idx=004070 GeodesicLength=0.4724824548527049 rxn_smarts="[C:1]([C@@:2]1([H:10])[C:3]([H:11])([H:12])[C@:4]1([C:5]([H:13])([H:14])[H:15])[O:6][H:16])([H:7])([H:8])[H:9]>>[C:1]([C-:2][C:3]([C+:4][O:6][H:16])([H:11])[H:12])([H:7])([H:8])[H:9].[C:5]([H:10])([H:13])([H:14])[H:15]"
C        1.18854172      -0.74608064       1.25102767
C        1.07157376       0.12264743       0.04348981
C        0.54487294      -0.54552130      -1.18593637
C       -0.90841728      -0.82248305      -1.02002750
C       -0.76291123       1.42152031       0.71934003
O       -1.52711877      -0.38919872      -2.10075550
H        2.11908711      -1.31222373       1.13035721
H        1.33461466      -0.14675309       2.15183130
H        0.36369483      -1.45051281       1.40256147
H        0.46894565       1.33986966       0.33136628
H        0.78706811       0.03552821      -2.08370648
H        1.02424030      -1.52948882      -1.27967236
H       -1.32060244       2.04809277       0.02442370
H       -0.60417846       1.98746701       1.63806101
H       -1.30524145       0.51744269       0.97911758
H       -2.47416945      -0.53030593      -2.00147784
16
Frame=4 idx=004070 GeodesicLength=0.6254335898331345 rxn_smarts="[C:1]([C@@:2]1([H:10])[C:3]([H:11])([H:12])[C@:4]1([C:5]([H:13])([H:14])[H:15])[O:6][H:16])([H:7])([H:8])[H:9]>>[C:1]([C-:2][C:3]([C+:4][O:6][H:16])([H:11])[H:12])([H:7])([H:8])[H:9].[C:5]([H:10])([H:13])([H:14])[H:15]"
C        1.22851968      -0.72938466       1.24341699
C        1.05697480       0.10747590       0.02057506
C        0.55393481      -0.61086041      -1.18668775
C       -0.91481051      -0.76763754      -1.02064646
C       -0.81113631       1.39006516       0.71351993
O       -1.49804370      -0.30254286      -2.11080860
H        2.18323048      -1.25587067       1.13663421
H        1.35394312      -0.10073823       2.12774934
H        0.42938218      -1.45704921       1.42044914
H        0.44461821       1.33886450       0.30304215
H        0.84915602      -0.08282558      -2.10111020
H        0.96751185      -1.62681216      -1.22434300
H       -1.41572447       2.01733725       0.05897106
H       -0.64110214       1.95422842       1.63197745
H       -1.33263488       0.48068319       0.99833253
H       -2.45381915      -0.35493311      -2.01107183
16
Frame=5 idx=004070 GeodesicLength=0.775664818596439 rxn_smarts="[C:1]([C@@:2]1([H:10])[C:3]([H:11])([H:12])[C@:4]1([C:5]([H:13])([H:14])[H:15])[O:6][H:16])([H:7])([H:8])[H:9]>>[C:1]([C-:2][C:3]([C+:4][O:6][H:16])([H:11])[H:12])([H:7])([H:8])[H:9].[C:5]([H:10])([H:13])([H:14])[H:15]"
C        1.26923725      -0.71041177       1.23299480
C        1.04138669       0.09170513      -0.00354679
C        0.55535473      -0.67752957      -1.18321454
C       -0.91999956      -0.71199707      -1.02349561
C       -0.85906971       1.35847359       0.71072794
O       -1.46185689      -0.22086131      -2.12650422
H        2.24502067      -1.19768385       1.13536409
H        1.37629511      -0.05336005       2.09949760
H        0.49622613      -1.45806726       1.43999496
H        0.42066523       1.33796951       0.27649952
H        0.90056639      -0.20670857      -2.11121197
H        0.89967228      -1.71853100      -1.16380010
H       -1.50861779       1.98539615       0.09956413
H       -0.67655160       1.91872533       1.62980580
H       -1.36001109       0.44371031       1.01658054
H       -2.41831784      -0.18082957      -2.02925614
16
Frame=6 idx=004070 GeodesicLength=0.9226294962090182 rxn_smarts="[C:1]([C@@:2]1([H:10])[C:3]([H:11])([H:12])[C@:4]1([C:5]([H:13])([H:14])[H:15])[O:6][H:16])([H:7])([H:8])[H:9]>>[C:1]([C-:2][C:3]([C+:4][O:6][H:16])([H:11])[H:12])([H:7])([H:8])[H:9].[C:5]([H:10])([H:13])([H:14])[H:15]"
C        1.31076169      -0.68938456       1.21935128
C        1.02498356       0.07573635      -0.02849286
C        0.54840110      -0.74441626      -1.17507020
C       -0.92421789      -0.65407334      -1.02853796
C       -0.90647881       1.32700421       0.71164434
O       -1.41880952      -0.14373478      -2.14786956
H        2.30477834      -1.13812975       1.12586689
H        1.40154785      -0.00510485       2.06705241
H        0.56461393      -1.45395099       1.46026889
H        0.39756247       1.33772252       0.25271691
H        0.94098459      -0.33546220      -2.11342537
H        0.81977762      -1.80320885      -1.09719351
H       -1.59863709       1.95253282       0.14663668
H       -0.71033719       1.88085479       1.63237044
H       -1.38727023       0.40641210       1.03405131
H       -2.36766043      -0.01279721      -2.05936969
16
Frame=7 idx=004070 GeodesicLength=1.0670283410142 rxn_smarts="[C:1]([C@@:2]1([H:10])[C:3]([H:11])([H:12])[C@:4]1([C:5]([H:13])([H:14])[H:15])[O:6][H:16])([H:7])([H:8])[H:9]>>[C:1]([C-:2][C:3]([C+:4][O:6][H:16])([H:11])[H:12])([H:7])([H:8])[H:9].[C:5]([H:10])([H:13])([H:14])[H:15]"
C        1.35286899      -0.66650605       1.20213469
C        1.00836439       0.05976620      -0.05419787
C        0.53379796      -0.81079496      -1.16224844
C       -0.92621250      -0.59541565      -1.03547549
C       -0.95399386       1.29467398       0.71479844
O       -1.36971094      -0.07341791      -2.17364215
H        2.36257345      -1.07746026       1.10837220
H        1.42845448       0.04375162       2.03037006
H        0.63475570      -1.44515175       1.48015310
H        0.37536908       1.33809239       0.23199719
H        0.96978750      -0.46818853      -2.10790605
H        0.72983115      -1.87923166      -1.02433901
H       -1.68581688       1.91705462       0.19724281
H       -0.74442547       1.83990028       1.63820594
H       -1.41502625       0.36750733       1.04916170
H       -2.30061681       0.15542035      -2.09462714
16
Frame=8 idx=004070 GeodesicLength=1.2085460296182189 rxn_smarts="[C:1]([C@@:2]1([H:10])[C:3]([H:11])([H:12])[C@:4]1([C:5]([H:13])([H:14])[H:15])[O:6][H:16])([H:7])([H:8])[H:9]>>[C:1]([C-:2][C:3]([C+:4][O:6][H:16])([H:11])[H:12])([H:7])([H:8])[H:9].[C:5]([H:10])([H:13])([H:14])[H:15]"
C        1.39536661      -0.64251613       1.18109434
C        0.99197258       0.04445023      -0.08014809
C        0.51081833      -0.87471592      -1.14442658
C       -0.92608393      -0.53382749      -1.04401169
C       -1.00086083       1.26224812       0.72112897
O       -1.31454507      -0.00750114      -2.20301634
H        2.41839130      -1.01655926       1.08259167
H        1.45648278       0.09172663       1.99007987
H        0.70671993      -1.43280465       1.49804560
H        0.35511728       1.33993476       0.21552299
H        0.98643543      -0.60319186      -2.09397983
H        0.62899502      -1.94414408      -0.94499715
H       -1.76899648       1.88015638       0.25189994
H       -0.77778889       1.79604553       1.64848415
H       -1.44304216       0.32766522       1.06237665
H       -2.21898192       0.31303365      -2.14064450
16
Frame=9 idx=004070 GeodesicLength=1.3482458926879397 rxn_smarts="[C:1]([C@@:2]1([H:10])[C:3]([H:11])([H:12])[C@:4]1([C:5]([H:13])([H:14])[H:15])[O:6][H:16])([H:7])([H:8])[H:9]>>[C:1]([C-:2][C:3]([C+:4][O:6][H:16])([H:11])[H:12])([H:7])([H:8])[H:9].[C:5]([H:10])([H:13])([H:14])[H:15]"
C        1.43800876      -0.61781690       1.15599831
C        0.97640729       0.03015019      -0.10640323
C        0.47992268      -0.93504505      -1.12158257
C       -0.92301012      -0.47016633      -1.05361740
C       -1.04731509       1.22915695       0.72962713
O       -1.25420656       0.05188468      -2.23491795
H        2.47221430      -0.95569216       1.04896906
H        1.48457567       0.13806227       1.94653344
H        0.78056692      -1.41770928       1.51254293
H        0.33707601       1.34339886       0.20340912
H        0.99018532      -0.73922773      -2.07161781
H        0.51915489      -1.99586604      -0.85899995
H       -1.84831628       1.84085359       0.30835060
H       -0.81130556       1.74888220       1.66212393
H       -1.47169655       0.28630726       1.07285588
H       -2.12226166       0.46282746      -2.19327148
16
Frame=10 idx=004070 GeodesicLength=1.4870131655481185 rxn_smarts="[C:1]([C@@:2]1([H:10])[C:3]([H:11])([H:12])[C@:4]1([C:5]([H:13])([H:14])[H:15])[O:6][H:16])([H:7])([H:8])[H:9]>>[C:1]([C-:2][C:3]([C+:4][O:6][H:16])([H:11])[H:12])([H:7])([H:8])[H:9].[C:5]([H:10])([H:13])([H:14])[H:15]"
C        1.47992706      -0.59376804       1.12739576
C        0.96260697       0.01695655      -0.13254768
C        0.44257935      -0.99010535      -1.09438916
C       -0.91615593      -0.40608752      -1.06270862
C       -1.09294785       1.19597348       0.73839983
O       -1.19075913       0.10474948      -2.26600399
H        2.52355551      -0.89562136       1.00939834
H        1.51026409       0.18052388       1.90149927
H        0.85567355      -1.40237530       1.52184796
H        0.32237560       1.34873606       0.19531950
H        0.98068798      -0.87204471      -2.04174826
H        0.40458017      -2.03266428      -0.76881325
H       -1.92324306       1.79956824       0.36325999
H       -0.84489526       1.69982218       1.67677627
H       -1.50109067       0.24455789       1.07980205
H       -2.01315839       0.60177881      -2.24748801
16
Frame=11 idx=004070 GeodesicLength=1.6255353021621242 rxn_smarts="[C:1]([C@@:2]1([H:10])[C:3]([H:11])([H:12])[C@:4]1([C:5]([H:13])([H:14])[H:15])[O:6][H:16])([H:7])([H:8])[H:9]>>[C:1]([C-:2][C:3]([C+:4][O:6][H:16])([H:11])[H:12])([H:7])([H:8])[H:9].[C:5]([H:10])([H:13])([H:14])[H:15]"
C        1.52047555      -0.57153256       1.09600088
C        0.95115865       0.00484856      -0.15830555
C        0.40039600      -1.03866672      -1.06368848
C       -0.90540358      -0.34313767      -1.06988524
C       -1.13748893       1.16341529       0.74603140
O       -1.12650101       0.15076876      -2.29385173
H        2.57214147      -0.83667716       0.96586781
H        1.53172724       0.21711836       1.85682865
H        0.93146936      -1.38914714       1.52455922
H        0.31179831       1.35606190       0.19060672
H        0.95866618      -0.99800270      -2.00568173
H        0.28966506      -2.05407273      -0.67676150
H       -1.99365148       1.75701476       0.41401185
H       -0.87827126       1.65050880       1.69048180
H       -1.53127010       0.20369603       1.08313379
H       -1.89491148       0.72780424      -2.29934791
16
Frame=12 idx=004070 GeodesicLength=1.7644050672660834 rxn_smarts="[C:1]([C@@:2]1([H:10])[C:3]([H:11])([H:12])[C@:4]1([C:5]([H:13])([H:14])[H:15])[O:6][H:16])([H:7])([H:8])[H:9]>>[C:1]([C-:2][C:3]([C+:4][O:6][H:16])([H:11])[H:12])([H:7])([H:8])[H:9].[C:5]([H:10])([H:13])([H:14])[H:15]"
C        1.55941986      -0.55194096       1.06257766
C        0.94225416      -0.00626426      -0.18348771
C        0.35480564      -1.08008316      -1.03026346
C       -0.89113605      -0.28214872      -1.07425525
C       -1.18086081       1.13223819       0.75182553
O       -1.06335325       0.18987829      -2.31729767
H        2.61801907      -0.77877152       0.92007376
H        1.54806477       0.24631291       1.81422761
H        1.00775815      -1.37991691       1.51993550
H        0.30571380       1.36545047       0.18862225
H        0.92574688      -1.11467400      -1.96472539
H        0.17787512      -2.06085243      -0.58466171
H       -2.05989386       1.71415989       0.45946392
H       -0.91105948       1.60234994       1.70215219
H       -1.56225900       0.16485417       1.08332833
H       -1.77109501       0.83940811      -2.34751557
16
Frame=13 idx=004070 GeodesicLength=1.9034546716046195 rxn_smarts="[C:1]([C@@:2]1([H:10])[C:3]([H:11])([H:12])[C@:4]1([C:5]([H:13])([H:14])[H:15])[O:6][H:16])([H:7])([H:8])[H:9]>>[C:1]([C-:2][C:3]([C+:4][O:6][H:16])([H:11])[H:12])([H:7])([H:8])[H:9].[C:5]([H:10])([H:13])([H:14])[H:15]"
C        1.59593509      -0.53544653       1.02795769
C        0.93584709      -0.01728819      -0.20828040
C        0.30855025      -1.11524580      -0.99554363
C       -0.87430030      -0.22722139      -1.07374015
C       -1.22328089       1.10301304       0.75333416
O       -1.00601549       0.22197566      -2.33277254
H        2.66052550      -0.72115415       0.87455935
H        1.55732034       0.26728138       1.77474405
H        1.08371964      -1.37601058       1.50764887
H        0.30423100       1.37616962       0.18705833
H        0.88362262      -1.21929114      -1.92202695
H        0.07538036      -2.05659574      -0.49540339
H       -2.12237237       1.67141778       0.49588329
H       -0.94340673       1.55833495       1.70806063
H       -1.59406712       0.12938132       1.08067989
H       -1.64168899       0.94067976      -2.38215918
16
Frame=14 idx=004070 GeodesicLength=2.0430909872308516 rxn_smarts="[C:1]([C@@:2]1([H:10])[C:3]([H:11])([H:12])[C@:4]1([C:5]([H:13])([H:14])[H:15])[O:6][H:16])([H:7])([H:8])[H:9]>>[C:1]([C-:2][C:3]([C+:4][O:6][H:16])([H:11])[H:12])([H:7])([H:8])[H:9].[C:5]([H:10])([H:13])([H:14])[H:15]"
C        1.63071241      -0.52223085       0.99269070
C        0.93178285      -0.02791762      -0.23239996
C        0.26207934      -1.14385158      -0.95979583
C       -0.85544502      -0.17587708      -1.06923744
C       -1.26485284       1.07621408       0.75222499
O       -0.95336622       0.24903922      -2.34236957
H        2.70025500      -0.66396510       0.82996474
H        1.56091030       0.27933846       1.73934498
H        1.15970408      -1.37778630       1.48785234
H        0.30728690       1.38859419       0.18660280
H        0.83513048      -1.31227481      -1.87780194
H       -0.01846098      -2.04244702      -0.40893736
H       -2.18141427       1.63050601       0.52561640
H       -0.97497098       1.51801651       1.71043129
H       -1.62697565       0.09747447       1.07613372
H       -1.51237540       1.02716742      -2.41031985
16
Frame=15 idx=004070 GeodesicLength=2.183484818689631 rxn_smarts="[C:1]([C@@:2]1([H:10])[C:3]([H:11])([H:12])[C@:4]1([C:5]([H:13])([H:14])[H:15])[O:6][H:16])([H:7])([H:8])[H:9]>>[C:1]([C-:2][C:3]([C+:4][O:6][H:16])([H:11])[H:12])([H:7])([H:8])[H:9].[C:5]([H:10])([H:13])([H:14])[H:15]"
C        1.66400818      -0.51200343       0.95695941
C        0.92971636      -0.03843901      -0.25603505
C        0.21613846      -1.16671711      -0.92324811
C       -0.83517135      -0.12821136      -1.06073367
C       -1.30592178       1.05179664       0.74844290
O       -0.90597820       0.27206275      -2.34624129
H        2.73727224      -0.60616122       0.78702795
H        1.55905088       0.28242241       1.70802628
H        1.23610947      -1.38513225       1.46052056
H        0.31464318       1.40241721       0.18670937
H        0.78174508      -1.39449554      -1.83278478
H       -0.10303158      -2.02056640      -0.32510489
H       -2.23769127       1.59172604       0.54887297
H       -1.00587955       1.48166938       1.70902690
H       -1.66110584       0.06907277       1.07005049
H       -1.38390427       1.10055912      -2.43148905
16
Frame=16 idx=004070 GeodesicLength=2.324572276390014 rxn_smarts="[C:1]([C@@:2]1([H:10])[C:3]([H:11])([H:12])[C@:4]1([C:5]([H:13])([H:14])[H:15])[O:6][H:16])([H:7])([H:8])[H:9]>>[C:1]([C-:2][C:3]([C+:4][O:6][H:16])([H:11])[H:12])([H:7])([H:8])[H:9].[C:5]([H:10])([H:13])([H:14])[H:15]"
C        1.69606293      -0.50464376       0.92114631
C        0.92958921      -0.04904473      -0.27917908
C        0.17150011      -1.18439112      -0.88613626
C       -0.81362153      -0.08375846      -1.04843008
C       -1.34662864       1.02986800       0.74208152
O       -0.86346620       0.29242795      -2.34479146
H        2.77150424      -0.54759638       0.74682936
H        1.55231284       0.27630013       1.68079514
H        1.31287179      -1.39767958       1.42584546
H        0.32642075       1.41749088       0.18715324
H        0.72515389      -1.46652912      -1.78750836
H       -0.17794078      -1.99272753      -0.24396987
H       -2.29158800       1.55560464       0.56606410
H       -1.03611665       1.44941583       1.70393931
H       -1.69650183       0.04421160       1.06257614
H       -1.25955211       1.16105164      -2.44641548
