15
Frame=0 idx=006887 GeodesicLength=0.0 rxn_smarts="[C:1]([C:2]1([O:5][C:6](=[O:7])[H:15])[C:3]([H:11])([H:12])[C:4]1([H:13])[H:14])([H:8])([H:9])[H:10]>>[C:1]([C:2][C:4]([C:3]([O:5][C:6](=[O:7])[H:15])([H:11])[H:12])([H:13])[H:14])([H:8])([H:9])[H:10]"
C       -0.21131052       1.90590667       0.30342587
C       -0.32729166       0.48918467      -0.12129381
C       -0.18694454      -1.43504925       0.54309325
C       -1.37687842      -0.53012683       0.25072180
O        0.74836595      -0.34791453       0.24277241
C        1.78765723      -0.67000167      -1.25070583
O        1.43024876       0.02488253      -2.11352489
H        0.68525177       2.36380203      -0.12357575
H       -0.17377744       2.05413043       1.39660972
H       -1.06407213       2.46971640      -0.07914700
H       -0.01694896      -2.27379138      -0.13316359
H       -0.04392818      -1.73532105       1.57989117
H       -2.05040698      -0.87086723      -0.54089411
H       -1.97580853      -0.30338139       1.14211402
H        2.77584366      -1.14116935      -1.09632321
15
Frame=1 idx=006887 GeodesicLength=0.13625394875535463 rxn_smarts="[C:1]([C:2]1([O:5][C:6](=[O:7])[H:15])[C:3]([H:11])([H:12])[C:4]1([H:13])[H:14])([H:8])([H:9])[H:10]>>[C:1]([C:2][C:4]([C:3]([O:5][C:6](=[O:7])[H:15])([H:11])[H:12])([H:13])[H:14])([H:8])([H:9])[H:10]"
C       -0.23371990       1.90797313       0.26995081
C       -0.33343691       0.47910769      -0.11188129
C       -0.19570258      -1.45466791       0.49738140
C       -1.37966101      -0.51980271       0.30624747
O        0.77207046      -0.36199259       0.24011778
C        1.82171587      -0.64257125      -1.20200893
O        1.51123843       0.06690381      -2.07323721
H        0.66014543       2.35631827      -0.17331056
H       -0.19164605       2.08850905       1.35750942
H       -1.08747637       2.45700622      -0.13105923
H       -0.07299550      -2.26125229      -0.22625363
H       -0.02652997      -1.81753907       1.50982102
H       -2.10484249      -0.82098890      -0.45511066
H       -1.91795941      -0.30438516       1.23748825
H        2.77880001      -1.17261830      -1.04565463
15
Frame=2 idx=006887 GeodesicLength=0.27083884950363624 rxn_smarts="[C:1]([C:2]1([O:5][C:6](=[O:7])[H:15])[C:3]([H:11])([H:12])[C:4]1([H:13])[H:14])([H:8])([H:9])[H:10]>>[C:1]([C:2][C:4]([C:3]([O:5][C:6](=[O:7])[H:15])([H:11])[H:12])([H:13])[H:14])([H:8])([H:9])[H:10]"
C       -0.25758933       1.90958991       0.23644748
C       -0.33840363       0.46990981      -0.10208091
C       -0.20576377      -1.47107852       0.45044148
C       -1.37796388      -0.51011976       0.36209315
O        0.79675566      -0.37554446       0.24027699
C        1.85488643      -0.61796327      -1.15160138
O        1.59196202       0.10672474      -2.02812877
H        0.63399412       2.34873327      -0.22113241
H       -0.21358363       2.12273456       1.31742462
H       -1.11241197       2.44171213      -0.18423557
H       -0.12940602      -2.23975733      -0.31906755
H       -0.01438051      -1.89754448       1.43358162
H       -2.15224120      -0.77198580      -0.36455641
H       -1.85254148      -0.30787648       1.32950965
H        2.77668718      -1.20753433      -0.99897198
15
Frame=3 idx=006887 GeodesicLength=0.40385426899274246 rxn_smarts="[C:1]([C:2]1([O:5][C:6](=[O:7])[H:15])[C:3]([H:11])([H:12])[C:4]1([H:13])[H:14])([H:8])([H:9])[H:10]>>[C:1]([C:2][C:4]([C:3]([O:5][C:6](=[O:7])[H:15])([H:11])[H:12])([H:13])[H:14])([H:8])([H:9])[H:10]"
C       -0.28268934       1.91063769       0.20372269
C       -0.34208296       0.46182321      -0.09210395
C       -0.21678463      -1.48364960       0.40346523
C       -1.37182377      -0.50124646       0.41694304
O        0.82256859      -0.38864157       0.24280703
C        1.88648289      -0.59695249      -1.10061483
O        1.67140406       0.14329648      -1.97940921
H        0.60718656       2.34134030      -0.26575316
H       -0.23973974       2.15578654       1.27735261
H       -1.13848588       2.42389827      -0.23756748
H       -0.18529017      -2.20999502      -0.40882160
H       -0.00743789      -1.97257255       1.35314318
H       -2.19140551      -0.72483730      -0.27166148
H       -1.78115204      -0.31372448       1.41590750
H        2.76924982      -1.24516301      -0.95740958
15
Frame=4 idx=006887 GeodesicLength=0.5356335024570129 rxn_smarts="[C:1]([C:2]1([O:5][C:6](=[O:7])[H:15])[C:3]([H:11])([H:12])[C:4]1([H:13])[H:14])([H:8])([H:9])[H:10]>>[C:1]([C:2][C:4]([C:3]([O:5][C:6](=[O:7])[H:15])([H:11])[H:12])([H:13])[H:14])([H:8])([H:9])[H:10]"
C       -0.30874544       1.91104174       0.17238401
C       -0.34443685       0.45496031      -0.08212614
C       -0.22837690      -1.49214311       0.35756916
C       -1.36160197      -0.49326856       0.46968971
O        0.84958573      -0.40141937       0.24724407
C        1.91597862      -0.58005044      -1.05023173
O        1.74905542       0.17624738      -1.92810017
H        0.58011401       2.33441090      -0.30626571
H       -0.27005787       2.18687306       1.23812450
H       -1.16523392       2.40372958      -0.29018545
H       -0.23990818      -2.17330146      -0.49318485
H       -0.00526768      -2.04058572       1.27071411
H       -2.22191332      -0.68025730      -0.17878485
H       -1.70570425      -0.32154782       1.49505264
H        2.75651262      -1.28468920      -0.92189929
15
Frame=5 idx=006887 GeodesicLength=0.6666006755635355 rxn_smarts="[C:1]([C:2]1([O:5][C:6](=[O:7])[H:15])[C:3]([H:11])([H:12])[C:4]1([H:13])[H:14])([H:8])([H:9])[H:10]>>[C:1]([C:2][C:4]([C:3]([O:5][C:6](=[O:7])[H:15])([H:11])[H:12])([H:13])[H:14])([H:8])([H:9])[H:10]"
C       -0.33546027       1.91077795       0.14278235
C       -0.34548171       0.44933505      -0.07218878
C       -0.24021022      -1.49667711       0.31361396
C       -1.34786940      -0.48615908       0.51962721
O        0.87782137      -0.41407573       0.25322594
C        1.94302669      -0.56748177      -1.00149096
O        1.82465220       0.20552897      -1.87500131
H        0.55315960       2.32811180      -0.34220064
H       -0.30434468       2.21553433       1.20027926
H       -1.19211585       2.38142194      -0.34163074
H       -0.29273881      -2.13122744      -0.57067865
H       -0.00727005      -2.10057641       1.18827196
H       -2.24401186      -0.63852485      -0.08783892
H       -1.62807441      -0.33092377       1.56617642
H        2.73891738      -1.32506389      -0.89294710
15
Frame=6 idx=006887 GeodesicLength=0.7972056666184639 rxn_smarts="[C:1]([C:2]1([O:5][C:6](=[O:7])[H:15])[C:3]([H:11])([H:12])[C:4]1([H:13])[H:14])([H:8])([H:9])[H:10]>>[C:1]([C:2][C:4]([C:3]([O:5][C:6](=[O:7])[H:15])([H:11])[H:12])([H:13])[H:14])([H:8])([H:9])[H:10]"
C       -0.36261761       1.90983217       0.11497439
C       -0.34533192       0.44488103      -0.06239633
C       -0.25207130      -1.49758776       0.27202162
C       -1.33127071      -0.47981717       0.56645815
O        0.90718954      -0.42682244       0.26046935
C        1.96760424      -0.55913573      -0.95501160
O        1.89837728       0.23132652      -1.82051242
H        0.52653950       2.32254444      -0.37356924
H       -0.34224226       2.24152569       1.16401137
H       -1.21874591       2.35717807      -0.39167916
H       -0.34365447      -2.08520306      -0.64077034
H       -0.01273790      -2.15238094       1.10717056
H       -2.25854741      -0.59963143       0.00011330
H       -1.54963461      -0.34133846       1.62930861
H        2.71714355      -1.36537093      -0.87058826
15
Frame=7 idx=006887 GeodesicLength=0.9278039397540316 rxn_smarts="[C:1]([C:2]1([O:5][C:6](=[O:7])[H:15])[C:3]([H:11])([H:12])[C:4]1([H:13])[H:14])([H:8])([H:9])[H:10]>>[C:1]([C:2][C:4]([C:3]([O:5][C:6](=[O:7])[H:15])([H:11])[H:12])([H:13])[H:14])([H:8])([H:9])[H:10]"
C       -0.39006131       1.90822723       0.08890919
C       -0.34409546       0.44153042      -0.05276996
C       -0.26379014      -1.49527003       0.23298775
C       -1.31238648      -0.47410122       0.61012321
O        0.93761375      -0.43984597       0.26881651
C        1.98983265      -0.55469126      -0.91113477
O        1.97041928       0.25373701      -1.76492293
H        0.50036371       2.31778730      -0.40055861
H       -0.38341999       2.26477917       1.12934886
H       -1.24480712       2.33118537      -0.44029079
H       -0.39258987      -2.03638170      -0.70347024
H       -0.02102960      -2.19632229       1.02833419
H       -2.26644679      -0.56336207       0.08443133
H       -1.47143923      -0.35238244       1.68485586
H        2.69183661      -1.40488952      -0.85465961
15
Frame=8 idx=006887 GeodesicLength=1.0586717427688583 rxn_smarts="[C:1]([C:2]1([O:5][C:6](=[O:7])[H:15])[C:3]([H:11])([H:12])[C:4]1([H:13])[H:14])([H:8])([H:9])[H:10]>>[C:1]([C:2][C:4]([C:3]([O:5][C:6](=[O:7])[H:15])([H:11])[H:12])([H:13])[H:14])([H:8])([H:9])[H:10]"
C       -0.41769490       1.90598871       0.06444479
C       -0.34188301       0.43920993      -0.04332910
C       -0.27524997      -1.49011903       0.19651804
C       -1.29170864      -0.46886473       0.65072372
O        0.96901354      -0.45332671       0.27817401
C        2.00992309      -0.55372783      -0.86997283
O        2.04109958       0.27287022      -1.70832561
H        0.47460640       2.31389524      -0.42355344
H       -0.42749062       2.28530711       1.09618545
H       -1.27011696       2.30359389      -0.48746236
H       -0.43960308      -1.98564294      -0.75913354
H       -0.03157963      -2.23298510       0.95228526
H       -2.26864541      -0.52942844       0.16486055
H       -1.39420206      -0.36369385       1.73344291
H        2.66353167      -1.44307646      -0.84485785
15
Frame=9 idx=006887 GeodesicLength=1.1899629511979364 rxn_smarts="[C:1]([C:2]1([O:5][C:6](=[O:7])[H:15])[C:3]([H:11])([H:12])[C:4]1([H:13])[H:14])([H:8])([H:9])[H:10]>>[C:1]([C:2][C:4]([C:3]([O:5][C:6](=[O:7])[H:15])([H:11])[H:12])([H:13])[H:14])([H:8])([H:9])[H:10]"
C       -0.44542204       1.90315878       0.04146651
C       -0.33879110       0.43787555      -0.03402055
C       -0.28639188      -1.48248017       0.16254763
C       -1.26965788      -0.46395868       0.68842286
O        1.00131358      -0.46744396       0.28846319
C        2.02800283      -0.55585347      -0.83162203
O        2.11048116       0.28857890      -1.65100548
H        0.44923445       2.31089185      -0.44290800
H       -0.47406765       2.30315857       1.06441335
H       -1.29448161       2.27456535      -0.53321302
H       -0.48475557      -1.93360705      -0.80824938
H       -0.04392801      -2.26303081       0.87930568
H       -2.26595742      -0.49752931       0.24126163
H       -1.31850402      -0.37504415       1.77573624
H        2.63292515      -1.47928139      -0.84059862
15
Frame=10 idx=006887 GeodesicLength=1.3218296945525216 rxn_smarts="[C:1]([C:2]1([O:5][C:6](=[O:7])[H:15])[C:3]([H:11])([H:12])[C:4]1([H:13])[H:14])([H:8])([H:9])[H:10]>>[C:1]([C:2][C:4]([C:3]([O:5][C:6](=[O:7])[H:15])([H:11])[H:12])([H:13])[H:14])([H:8])([H:9])[H:10]"
C       -0.47323640       1.89976175       0.01976443
C       -0.33492595       0.43747771      -0.02487898
C       -0.29717205      -1.47265068       0.13085766
C       -1.24653287      -0.45926235       0.72345397
O        1.03443271      -0.48235856       0.29966228
C        2.04439590      -0.56057591      -0.79584936
O        2.17886098       0.30081286      -1.59293895
H        0.42409708       2.30880526      -0.45907896
H       -0.52283742       2.31840379       1.03381354
H       -1.31787344       2.24420325      -0.57760101
H       -0.52821579      -1.88066260      -0.85146530
H       -0.05766721      -2.28714765       0.80935908
H       -2.25916161      -0.46736271       0.31386657
H       -1.24450213      -0.38622114       1.81245880
H        2.60033817      -1.51322302      -0.84142376
15
Frame=11 idx=006887 GeodesicLength=1.454317967859734 rxn_smarts="[C:1]([C:2]1([O:5][C:6](=[O:7])[H:15])[C:3]([H:11])([H:12])[C:4]1([H:13])[H:14])([H:8])([H:9])[H:10]>>[C:1]([C:2][C:4]([C:3]([O:5][C:6](=[O:7])[H:15])([H:11])[H:12])([H:13])[H:14])([H:8])([H:9])[H:10]"
C       -0.50111611       1.89582682      -0.00083250
C       -0.33035248       0.43798050      -0.01588967
C       -0.30753031      -1.46089809       0.10132804
C       -1.22258906      -0.45467497       0.75601489
O        1.06833644      -0.49823584       0.31177777
C        2.05935156      -0.56745993      -0.76246312
O        2.24652723       0.30960787      -1.53403865
H        0.39908839       2.30766195      -0.47242274
H       -0.57357251       2.33111979       1.00419422
H       -1.34020770       2.21261015      -0.62073106
H       -0.56999503      -1.82717541      -0.88927727
H       -0.07244589      -2.30591552       0.74253146
H       -2.24886765      -0.43868814       0.38279802
H       -1.17243660      -0.39707621       1.84422717
H        2.56580970      -1.54468297      -0.84721658
15
Frame=12 idx=006887 GeodesicLength=1.5875392361516005 rxn_smarts="[C:1]([C:2]1([O:5][C:6](=[O:7])[H:15])[C:3]([H:11])([H:12])[C:4]1([H:13])[H:14])([H:8])([H:9])[H:10]>>[C:1]([C:2][C:4]([C:3]([O:5][C:6](=[O:7])[H:15])([H:11])[H:12])([H:13])[H:14])([H:8])([H:9])[H:10]"
C       -0.52908581       1.89137442      -0.02032860
C       -0.32517814       0.43936605      -0.00732777
C       -0.31728152      -1.44741557       0.07377605
C       -1.19801088      -0.45010196       0.78607023
O        1.10300306      -0.51505221       0.32471984
C        2.07325864      -0.57601551      -0.73112465
O        2.31361823       0.31438996      -1.47487518
H        0.37394062       2.30761920      -0.48315448
H       -0.62589092       2.34114496       0.97563457
H       -1.36162305       2.18008199      -0.66222982
H       -0.60997753      -1.77360489      -0.92212487
H       -0.08787447      -2.31969498       0.67897208
H       -2.23556307      -0.41134826       0.44794122
H       -1.10247312      -0.40730210       1.87137041
H        2.52913797      -1.57344110      -0.85731904
15
Frame=13 idx=006887 GeodesicLength=1.7213598213227548 rxn_smarts="[C:1]([C:2]1([O:5][C:6](=[O:7])[H:15])[C:3]([H:11])([H:12])[C:4]1([H:13])[H:14])([H:8])([H:9])[H:10]>>[C:1]([C:2][C:4]([C:3]([O:5][C:6](=[O:7])[H:15])([H:11])[H:12])([H:13])[H:14])([H:8])([H:9])[H:10]"
C       -0.55698895       1.88636457      -0.03898882
C       -0.31947126       0.44159816       0.00124071
C       -0.32676819      -1.43233794       0.04795690
C       -1.17298859      -0.44543978       0.81411715
O        1.13825816      -0.53332324       0.33843299
C        2.08569264      -0.58618529      -0.70205141
O        2.37952404       0.31535979      -1.41529163
H        0.34869593       2.30826118      -0.49194625
H       -0.67927617       2.34873987       0.94772694
H       -1.38187072       2.14647789      -0.70248430
H       -0.64876656      -1.71955198      -0.95067492
H       -0.10394746      -2.32923118       0.61798112
H       -2.21973991      -0.38502891       0.50987166
H       -1.03451237      -0.41718252       1.89469154
H        2.49215941      -1.59852062      -0.87058168
15
Frame=14 idx=006887 GeodesicLength=1.8558075125995022 rxn_smarts="[C:1]([C:2]1([O:5][C:6](=[O:7])[H:15])[C:3]([H:11])([H:12])[C:4]1([H:13])[H:14])([H:8])([H:9])[H:10]>>[C:1]([C:2][C:4]([C:3]([O:5][C:6](=[O:7])[H:15])([H:11])[H:12])([H:13])[H:14])([H:8])([H:9])[H:10]"
C       -0.58494786       1.88093661      -0.05670325
C       -0.31339934       0.44469552       0.00928390
C       -0.33568306      -1.41586494       0.02369369
C       -1.14767382      -0.44065154       0.83995458
O        1.17411760      -0.55284717       0.35280985
C        2.09727994      -0.59747086      -0.67474082
O        2.44459339       0.31185147      -1.35622856
H        0.32300019       2.30997691      -0.49888161
H       -0.73342972       2.35375362       0.92080489
H       -1.40131989       2.11237496      -0.74088090
H       -0.68599033      -1.66567016      -0.97525945
H       -0.12024386      -2.33474751       0.55985917
H       -2.20179045      -0.35973013       0.56835616
H       -0.96874638      -0.42635326       1.91429936
H        2.45423360      -1.62025350      -0.88636702
15
Frame=15 idx=006887 GeodesicLength=1.9908075353748254 rxn_smarts="[C:1]([C:2]1([O:5][C:6](=[O:7])[H:15])[C:3]([H:11])([H:12])[C:4]1([H:13])[H:14])([H:8])([H:9])[H:10]>>[C:1]([C:2][C:4]([C:3]([O:5][C:6](=[O:7])[H:15])([H:11])[H:12])([H:13])[H:14])([H:8])([H:9])[H:10]"
C       -0.61293414       1.87508795      -0.07360337
C       -0.30705655       0.44862276       0.01681698
C       -0.34409317      -1.39812610       0.00081078
C       -1.12215644      -0.43567573       0.86377287
O        1.21050121      -0.57386527       0.36778942
C        2.10799619      -0.60965002      -0.64907250
O        2.50881020       0.30399142      -1.29761145
H        0.29675378       2.31261928      -0.50435375
H       -0.78802488       2.35628285       0.89474475
H       -1.42000428       2.07786131      -0.77749185
H       -0.72181205      -1.61198840      -0.99629862
H       -0.13664082      -2.33665501       0.50438717
H       -2.18203660      -0.33531453       0.62367140
H       -0.90506966      -0.43480087       1.93061466
H        2.41576721      -1.63838966      -0.90417650
15
Frame=16 idx=006887 GeodesicLength=2.1262844879623493 rxn_smarts="[C:1]([C:2]1([O:5][C:6](=[O:7])[H:15])[C:3]([H:11])([H:12])[C:4]1([H:13])[H:14])([H:8])([H:9])[H:10]>>[C:1]([C:2][C:4]([C:3]([O:5][C:6](=[O:7])[H:15])([H:11])[H:12])([H:13])[H:14])([H:8])([H:9])[H:10]"
C       -0.64096651       1.86886549      -0.08974910
C       -0.30054784       0.45338355       0.02379419
C       -0.35202956      -1.37921228      -0.02089614
C       -1.09649229      -0.43046243       0.88570040
O        1.24733622      -0.59656216       0.38327372
C        2.11788010      -0.62251817      -0.62489239
O        2.57199444       0.29169805      -1.23974960
H        0.26982458       2.31615217      -0.50862511
H       -0.84281887       2.35641672       0.86953807
H       -1.43802524       2.04311324      -0.81230435
H       -0.75636362      -1.55850374      -1.01419300
H       -0.15302339      -2.33530876       0.45128828
H       -2.16073567      -0.31168386       0.67604048
H       -0.84333968      -0.44251120       1.94395599
H        2.37730734      -1.65286662      -0.92318143
