14
Frame=0 idx=009746 GeodesicLength=0.0 rxn_smarts="[C:1]([C@@:2]([C:3]([C:4]#[N:5])([H:12])[H:13])([C:6]#[C:7][H:14])[H:11])([H:8])([H:9])[H:10]>>[C:1]([C@@:2]([C:3]([C:4]#[N:5])([H:12])[H:13])([C:7](=[C:6])[H:14])[H:11])([H:8])([H:9])[H:10]"
C        0.20300686       1.46361452      -0.06297187
C        0.36521854      -0.04390486       0.03106555
C       -0.91659861      -0.83725628      -0.25572435
C       -1.92571494      -0.60416964       0.77839589
N       -2.69317531      -0.40521049       1.60741282
C        1.33555865      -0.46079873      -1.42462713
C        1.93037488      -0.78600522      -0.37197865
H       -0.12969176       1.75193441      -1.05959378
H       -0.52894664       1.80541980       0.67316528
H        1.15106182       1.96129127       0.13599849
H        0.64210775      -0.27614983       1.06838689
H       -1.32074403      -0.54725527      -1.22620005
H       -0.70085347      -1.90504167      -0.29826760
H        2.58839630      -1.11646802       0.40493850
14
Frame=1 idx=009746 GeodesicLength=0.06160221389766713 rxn_smarts="[C:1]([C@@:2]([C:3]([C:4]#[N:5])([H:12])[H:13])([C:6]#[C:7][H:14])[H:11])([H:8])([H:9])[H:10]>>[C:1]([C@@:2]([C:3]([C:4]#[N:5])([H:12])[H:13])([C:7](=[C:6])[H:14])[H:11])([H:8])([H:9])[H:10]"
C        0.20704914       1.45269862      -0.05366576
C        0.35921689      -0.05707574       0.03702254
C       -0.93021905      -0.83727293      -0.25539570
C       -1.94554330      -0.59028119       0.76925642
N       -2.71349108      -0.38534055       1.59634233
C        1.34258201      -0.48073328      -1.42041827
C        1.91708410      -0.83013429      -0.36943240
H       -0.11939528       1.74626114      -1.05092244
H       -0.52641513       1.79862241       0.67883194
H        1.15767765       1.94307885       0.15137407
H        0.62628251      -0.29065182       1.07670282
H       -1.32549103      -0.54629602      -1.22939325
H       -0.72784897      -1.90788732      -0.29397889
H        2.67851154      -1.01498787       0.36367658
14
Frame=2 idx=009746 GeodesicLength=0.12458012154624798 rxn_smarts="[C:1]([C@@:2]([C:3]([C:4]#[N:5])([H:12])[H:13])([C:6]#[C:7][H:14])[H:11])([H:8])([H:9])[H:10]>>[C:1]([C@@:2]([C:3]([C:4]#[N:5])([H:12])[H:13])([C:7](=[C:6])[H:14])[H:11])([H:8])([H:9])[H:10]"
C        0.21073840       1.44236973      -0.04392519
C        0.35410295      -0.06937477       0.04544705
C       -0.94168561      -0.83778667      -0.25381349
C       -1.96469917      -0.57665224       0.75950173
N       -2.73466746      -0.36490399       1.58298233
C        1.35309557      -0.50195267      -1.41105878
C        1.90768572      -0.87036787      -0.36009805
H       -0.10747783       1.73964869      -1.04284212
H       -0.52584933       1.79266203       0.68315020
H        1.16291215       1.92666620       0.16857931
H        0.60983221      -0.30274986       1.08812402
H       -1.32670784      -0.54726684      -1.23221490
H       -0.75147270      -1.91088608      -0.28692983
H        2.75419295      -0.91940566       0.30309771
14
Frame=3 idx=009746 GeodesicLength=0.18873425599153962 rxn_smarts="[C:1]([C@@:2]([C:3]([C:4]#[N:5])([H:12])[H:13])([C:6]#[C:7][H:14])[H:11])([H:8])([H:9])[H:10]>>[C:1]([C@@:2]([C:3]([C:4]#[N:5])([H:12])[H:13])([C:7](=[C:6])[H:14])[H:11])([H:8])([H:9])[H:10]"
C        0.21273660       1.43420778      -0.03440120
C        0.35034946      -0.07902756       0.05545335
C       -0.94987777      -0.83866202      -0.25080810
C       -1.98161655      -0.56437556       0.74991397
N       -2.75580426      -0.34502515       1.56738696
C        1.36614507      -0.52112017      -1.39888289
C        1.90338812      -0.90185779      -0.34701388
H       -0.09667361       1.73346972      -1.03555708
H       -0.52853085       1.78820111       0.68587083
H        1.16492494       1.91494724       0.18623213
H        0.59428959      -0.31046090       1.10144433
H       -1.32443118      -0.55064585      -1.23412700
H       -0.76921004      -1.91365170      -0.27687214
H        2.81431048      -0.84599916       0.23136073
14
Frame=4 idx=009746 GeodesicLength=0.253505035978919 rxn_smarts="[C:1]([C@@:2]([C:3]([C:4]#[N:5])([H:12])[H:13])([C:6]#[C:7][H:14])[H:11])([H:8])([H:9])[H:10]>>[C:1]([C@@:2]([C:3]([C:4]#[N:5])([H:12])[H:13])([C:7](=[C:6])[H:14])[H:11])([H:8])([H:9])[H:10]"
C        0.21339413       1.42789984      -0.02521039
C        0.34768755      -0.08659086       0.06592474
C       -0.95563638      -0.83976839      -0.24710730
C       -1.99646866      -0.55334230       0.74052426
N       -2.77578807      -0.32608941       1.55091582
C        1.38042145      -0.53834148      -1.38599267
C        1.90329708      -0.92609971      -0.33279975
H       -0.08749836       1.72811159      -1.02878148
H       -0.53322811       1.78483032       0.68785452
H        1.16452869       1.90701931       0.20364803
H        0.57975684      -0.31501678       1.11537457
H       -1.32006583      -0.55560857      -1.23550454
H       -0.78247052      -1.91624397      -0.26520420
H        2.86207018      -0.79075960       0.15635837
14
Frame=5 idx=009746 GeodesicLength=0.31846717546444947 rxn_smarts="[C:1]([C@@:2]([C:3]([C:4]#[N:5])([H:12])[H:13])([C:6]#[C:7][H:14])[H:11])([H:8])([H:9])[H:10]>>[C:1]([C@@:2]([C:3]([C:4]#[N:5])([H:12])[H:13])([C:7](=[C:6])[H:14])[H:11])([H:8])([H:9])[H:10]"
C        0.21286230       1.42324267      -0.01647043
C        0.34582269      -0.09221684       0.07655207
C       -0.95950449      -0.84085640      -0.24289054
C       -2.00956689      -0.54341822       0.73140885
N       -2.79464116      -0.30883594       1.53408050
C        1.39540256      -0.55328826      -1.37301886
C        1.90625911      -0.94430439      -0.31836659
H       -0.08001072       1.72363369      -1.02242786
H       -0.53959156       1.78236444       0.68912478
H        1.16207237       1.90236931       0.22037726
H        0.56604772      -0.31685097       1.12943268
H       -1.31426924      -0.56147614      -1.23627386
H       -0.79220135      -1.91841133      -0.25257943
H        2.90131866      -0.75195159       0.08105144
14
Frame=6 idx=009746 GeodesicLength=0.3840120509377767 rxn_smarts="[C:1]([C@@:2]([C:3]([C:4]#[N:5])([H:12])[H:13])([C:6]#[C:7][H:14])[H:11])([H:8])([H:9])[H:10]>>[C:1]([C@@:2]([C:3]([C:4]#[N:5])([H:12])[H:13])([C:7](=[C:6])[H:14])[H:11])([H:8])([H:9])[H:10]"
C        0.21164477       1.41951969      -0.00783224
C        0.34458950      -0.09682777       0.08717483
C       -0.96213067      -0.84213582      -0.23833806
C       -2.02133891      -0.53443612       0.72256714
N       -2.81284508      -0.29174064       1.51643460
C        1.41041512      -0.56709090      -1.36047791
C        1.91179067      -0.95819917      -0.30436585
H       -0.07368096       1.71979237      -1.01608882
H       -0.54675397       1.78026162       0.69035223
H        1.15840050       1.89966643       0.23684482
H        0.55310929      -0.31735585       1.14339705
H       -1.30767358      -0.56810062      -1.23660005
H       -0.79961575      -1.92054006      -0.23932102
H        2.93408908      -0.72281316       0.00625328
14
Frame=7 idx=009746 GeodesicLength=0.4501869450910454 rxn_smarts="[C:1]([C@@:2]([C:3]([C:4]#[N:5])([H:12])[H:13])([C:6]#[C:7][H:14])[H:11])([H:8])([H:9])[H:10]>>[C:1]([C@@:2]([C:3]([C:4]#[N:5])([H:12])[H:13])([C:7](=[C:6])[H:14])[H:11])([H:8])([H:9])[H:10]"
C        0.20983614       1.41645302       0.00088007
C        0.34390280      -0.10068295       0.09779829
C       -0.96372204      -0.84365375      -0.23340819
C       -2.03197608      -0.52634514       0.71402504
N       -2.83088132      -0.27408726       1.49739174
C        1.42520868      -0.57986795      -1.34854491
C        1.91953849      -0.96835042      -0.29109422
H       -0.06848941       1.71644986      -1.00950180
H       -0.55449062       1.77823483       0.69184274
H        1.15370399       1.89843676       0.25318055
H        0.54094246      -0.31694477       1.15719340
H       -1.30043001      -0.57552994      -1.23642938
H       -0.80510997      -1.92267802      -0.22531412
H        2.96196688      -0.70143427      -0.06801922
14
Frame=8 idx=009746 GeodesicLength=0.5168575459460553 rxn_smarts="[C:1]([C@@:2]([C:3]([C:4]#[N:5])([H:12])[H:13])([C:6]#[C:7][H:14])[H:11])([H:8])([H:9])[H:10]>>[C:1]([C@@:2]([C:3]([C:4]#[N:5])([H:12])[H:13])([C:7](=[C:6])[H:14])[H:11])([H:8])([H:9])[H:10]"
C        0.20760621       1.41384114       0.00965296
C        0.34368487      -0.10401498       0.10832760
C       -0.96450549      -0.84538285      -0.22819333
C       -2.04161420      -0.51904287       0.70580418
N       -2.84858941      -0.25586357       1.47717428
C        1.43967624      -0.59186807      -1.33738831
C        1.92917288      -0.97545673      -0.27877407
H       -0.06421390       1.71353151      -1.00267467
H       -0.56255516       1.77616379       0.69364014
H        1.14824604       1.89828373       0.26935911
H        0.52947548      -0.31597863       1.17071478
H       -1.29275722      -0.58353227      -1.23581016
H       -0.80913219      -1.92483393      -0.21080884
H        2.98550586      -0.68584627      -0.14102366
14
Frame=9 idx=009746 GeodesicLength=0.5837712298004383 rxn_smarts="[C:1]([C@@:2]([C:3]([C:4]#[N:5])([H:12])[H:13])([C:6]#[C:7][H:14])[H:11])([H:8])([H:9])[H:10]>>[C:1]([C@@:2]([C:3]([C:4]#[N:5])([H:12])[H:13])([C:7](=[C:6])[H:14])[H:11])([H:8])([H:9])[H:10]"
C        0.20501096       1.41179183       0.01830363
C        0.34382658      -0.10673413       0.11868709
C       -0.96465990      -0.84711542      -0.22284457
C       -2.05043220      -0.51227430       0.69776492
N       -2.86555998      -0.23828531       1.45665880
C        1.45394755      -0.60299026      -1.32695747
C        1.94025957      -0.98003518      -0.26733463
H       -0.06073335       1.71112111      -0.99583189
H       -0.57093394       1.77427371       0.69546230
H        1.14214337       1.89920747       0.28520379
H        0.51852917      -0.31432762       1.18391862
H       -1.28481143      -0.59176448      -1.23487742
H       -0.81199347      -1.92683355      -0.19612175
H        3.00540706      -0.67603388      -0.21203142
14
Frame=10 idx=009746 GeodesicLength=0.6510225538929052 rxn_smarts="[C:1]([C@@:2]([C:3]([C:4]#[N:5])([H:12])[H:13])([C:6]#[C:7][H:14])[H:11])([H:8])([H:9])[H:10]>>[C:1]([C@@:2]([C:3]([C:4]#[N:5])([H:12])[H:13])([C:7](=[C:6])[H:14])[H:11])([H:8])([H:9])[H:10]"
C        0.20188015       1.41032777       0.02699876
C        0.34430055      -0.10878801       0.12901493
C       -0.96413345      -0.84892527      -0.21724502
C       -2.05846773      -0.50621582       0.68997073
N       -2.88220160      -0.22073327       1.43516720
C        1.46806660      -0.61294356      -1.31717439
C        1.95266370      -0.98200861      -0.25672077
H       -0.05829353       1.70924678      -0.98879140
H       -0.57984895       1.77248227       0.69747678
H        1.13516800       1.90130766       0.30090359
H        0.50811319      -0.31195061       1.19693815
H       -1.27649445      -0.60039571      -1.23355530
H       -0.81357868      -1.92873501      -0.18104408
H        3.02282621      -0.67266862      -0.28193917
14
Frame=11 idx=009746 GeodesicLength=0.7185057936331358 rxn_smarts="[C:1]([C@@:2]([C:3]([C:4]#[N:5])([H:12])[H:13])([C:6]#[C:7][H:14])[H:11])([H:8])([H:9])[H:10]>>[C:1]([C@@:2]([C:3]([C:4]#[N:5])([H:12])[H:13])([C:7](=[C:6])[H:14])[H:11])([H:8])([H:9])[H:10]"
C        0.19850399       1.40914125       0.03572092
C        0.34508680      -0.11052129       0.13920370
C       -0.96314233      -0.85082059      -0.21147619
C       -2.06583089      -0.50065827       0.68241464
N       -2.89837746      -0.20304080       1.41288049
C        1.48187879      -0.62230895      -1.30819054
C        1.96626589      -0.98202005      -0.24715929
H       -0.05650820       1.70770818      -0.98156822
H       -0.58886868       1.77062319       0.69975805
H        1.12774511       1.90402415       0.31642301
H        0.49821155      -0.30930459       1.20964841
H       -1.26800107      -0.60929779      -1.23189828
H       -0.81434418      -1.93057989      -0.16571322
H        3.03738070      -0.67294455      -0.35004348
14
Frame=12 idx=009746 GeodesicLength=0.7861993384348224 rxn_smarts="[C:1]([C@@:2]([C:3]([C:4]#[N:5])([H:12])[H:13])([C:6]#[C:7][H:14])[H:11])([H:8])([H:9])[H:10]>>[C:1]([C@@:2]([C:3]([C:4]#[N:5])([H:12])[H:13])([C:7](=[C:6])[H:14])[H:11])([H:8])([H:9])[H:10]"
C        0.19478420       1.40835373       0.04447343
C        0.34614446      -0.11180365       0.14930642
C       -0.96168334      -0.85274339      -0.20554216
C       -2.07259174      -0.49560235       0.67504598
N       -2.91408052      -0.18552959       1.38987507
C        1.49551630      -0.63083099      -1.29989662
C        1.98090488      -0.98006594      -0.23852522
H       -0.05547178       1.70659579      -0.97417992
H       -0.59816876       1.76879486       0.70224133
H        1.11974330       1.90752073       0.33180428
H        0.48874870      -0.30622734       1.22212405
H       -1.25929051      -0.61842293      -1.22993174
H       -0.81425765      -1.93231188      -0.15014685
H        3.04970248      -0.67772704      -0.41664804
14
Frame=13 idx=009746 GeodesicLength=0.854119028924024 rxn_smarts="[C:1]([C@@:2]([C:3]([C:4]#[N:5])([H:12])[H:13])([C:6]#[C:7][H:14])[H:11])([H:8])([H:9])[H:10]>>[C:1]([C@@:2]([C:3]([C:4]#[N:5])([H:12])[H:13])([C:7](=[C:6])[H:14])[H:11])([H:8])([H:9])[H:10]"
C        0.19064595       1.40796911       0.05334164
C        0.34747574      -0.11261461       0.15937762
C       -0.95972083      -0.85472722      -0.19938817
C       -2.07875028      -0.49114155       0.66791487
N       -2.92942990      -0.16791476       1.36579715
C        1.50902736      -0.63834961      -1.29227737
C        1.99652912      -0.97609928      -0.23083728
H       -0.05530768       1.70592241      -0.96653159
H       -0.60783474       1.76694447       0.70503358
H        1.11106278       1.91182945       0.34713471
H        0.47974860      -0.30271659       1.23441933
H       -1.25030894      -0.62783627      -1.22761449
H       -0.81325058      -1.93395474      -0.13426427
H        3.06011340      -0.68731079      -0.48210573
14
Frame=14 idx=009746 GeodesicLength=0.9221680030165702 rxn_smarts="[C:1]([C@@:2]([C:3]([C:4]#[N:5])([H:12])[H:13])([C:6]#[C:7][H:14])[H:11])([H:8])([H:9])[H:10]>>[C:1]([C@@:2]([C:3]([C:4]#[N:5])([H:12])[H:13])([C:7](=[C:6])[H:14])[H:11])([H:8])([H:9])[H:10]"
C        0.18626778       1.40786940       0.06226092
C        0.34906326      -0.11309102       0.16936072
C       -0.95737843      -0.85671983      -0.19307742
C       -2.08438476      -0.48707425       0.66097362
N       -2.94431157      -0.15048910       1.34094188
C        1.52236264      -0.64517823      -1.28537271
C        2.01302323      -0.97049087      -0.22416589
H       -0.05575849       1.70559629      -0.95870519
H       -0.61763474       1.76506860       0.70807560
H        1.10195795       1.91669028       0.36234534
H        0.47116981      -0.29893391       1.24648259
H       -1.24115321      -0.63741323      -1.22500279
H       -0.81158956      -1.93547692      -0.11816345
H        3.06836608      -0.70035721      -0.54595322
14
Frame=15 idx=009746 GeodesicLength=0.9903202808732575 rxn_smarts="[C:1]([C@@:2]([C:3]([C:4]#[N:5])([H:12])[H:13])([C:6]#[C:7][H:14])[H:11])([H:8])([H:9])[H:10]>>[C:1]([C@@:2]([C:3]([C:4]#[N:5])([H:12])[H:13])([C:7](=[C:6])[H:14])[H:11])([H:8])([H:9])[H:10]"
C        0.18157568       1.40814203       0.07122528
C        0.35088570      -0.11313172       0.17926875
C       -0.95463561      -0.85867129      -0.18664853
C       -2.08950847      -0.48345166       0.65419956
N       -2.95862203      -0.13349912       1.31545120
C        1.53564421      -0.65111782      -1.27911092
C        2.03030013      -0.96319085      -0.21843104
H       -0.05689758       1.70569023      -0.95071617
H       -0.62768280       1.76321815       0.71133763
H        1.09232923       1.92222145       0.37744285
H        0.46295735      -0.29476433       1.25833987
H       -1.23179187      -0.64706692      -1.22213251
H       -0.80921602      -1.93682742      -0.10194901
H        3.07466208      -0.71755071      -0.60827695
14
Frame=16 idx=009746 GeodesicLength=1.0585389915400478 rxn_smarts="[C:1]([C@@:2]([C:3]([C:4]#[N:5])([H:12])[H:13])([C:6]#[C:7][H:14])[H:11])([H:8])([H:9])[H:10]>>[C:1]([C@@:2]([C:3]([C:4]#[N:5])([H:12])[H:13])([C:7](=[C:6])[H:14])[H:11])([H:8])([H:9])[H:10]"
C        0.17656205       1.40882092       0.08021943
C        0.35293529      -0.11269552       0.18909318
C       -0.95149189      -0.86053682      -0.18014397
C       -2.09413036      -0.48027129       0.64757299
N       -2.97228934      -0.11717648       1.28948115
C        1.54894247      -0.65609510      -1.27346645
C        2.04829817      -0.95421559      -0.21361248
H       -0.05871899       1.70623737      -0.94258751
H       -0.63799755       1.76142094       0.71479625
H        1.08216660       1.92844851       0.39241665
H        0.45508138      -0.29016918       1.26998963
H       -1.22221605      -0.65670827      -1.21904178
H       -0.80612688      -1.93796589      -0.08571855
H        3.07898511      -0.73909360      -0.66899855
