12
Frame=0 idx=002798 GeodesicLength=0.0 rxn_smarts="[C:1]([C:2](=[O:3])[C@@:4]1([H:10])[C:5]([H:11])([H:12])[O:6]1)([H:7])([H:8])[H:9]>>[C:1]([C:2]([O-:3])=[C+:4][C:5]([O:6][H:10])([H:11])[H:12])([H:7])([H:8])[H:9]"
C       -1.64994675      -0.32203199      -0.36729060
C       -0.44140730      -0.84080806       0.35882374
O       -0.28025520      -2.00713201       0.64413861
C        0.58551236       0.09947199       0.84526261
C        1.75610729       0.34260472       0.00109687
O        0.83840086       1.43340651      -0.23104681
H       -1.34530170       0.17856060      -1.28850204
H       -2.31981728      -1.14972095      -0.59053176
H       -2.16576786       0.41845318       0.24713375
H        0.45988732       1.45298504       0.83865400
H        1.86207217      -0.24602665      -0.90632336
H        2.70051612       0.64023766       0.44858497
12
Frame=1 idx=002798 GeodesicLength=0.04060777280456467 rxn_smarts="[C:1]([C:2](=[O:3])[C@@:4]1([H:10])[C:5]([H:11])([H:12])[O:6]1)([H:7])([H:8])[H:9]>>[C:1]([C:2]([O-:3])=[C+:4][C:5]([O:6][H:10])([H:11])[H:12])([H:7])([H:8])[H:9]"
C       -1.64586395      -0.32555829      -0.37423150
C       -0.44409570      -0.83953780       0.36561039
O       -0.28911869      -2.00232384       0.66924415
C        0.58821503       0.09672173       0.84465183
C        1.75152546       0.34360763      -0.00907701
O        0.83644522       1.44013104      -0.21495131
H       -1.33402201       0.16888951      -1.29630778
H       -2.31455597      -1.15436821      -0.59685939
H       -2.16573888       0.41936179       0.23135095
H        0.47025040       1.45683654       0.86988493
H        1.84623588      -0.23519993      -0.92411707
H        2.70072322       0.63143985       0.43480182
12
Frame=2 idx=002798 GeodesicLength=0.08126385113888135 rxn_smarts="[C:1]([C:2](=[O:3])[C@@:4]1([H:10])[C:5]([H:11])([H:12])[O:6]1)([H:7])([H:8])[H:9]>>[C:1]([C:2]([O-:3])=[C+:4][C:5]([O:6][H:10])([H:11])[H:12])([H:7])([H:8])[H:9]"
C       -1.64170037      -0.32917060      -0.38121329
C       -0.44687236      -0.83813106       0.37244071
O       -0.29820656      -1.99705667       0.69440643
C        0.59083980       0.09404986       0.84402934
C        1.74670974       0.34476206      -0.01927776
O        0.83462813       1.44668623      -0.19878605
H       -1.32258425       0.15913616      -1.30402783
H       -2.30912744      -1.15916432      -0.60323792
H       -2.16564637       0.42015294       0.21535987
H        0.48122607       1.46010926       0.90128440
H        1.83003915      -0.22411314      -0.94171101
H        2.70069446       0.62273928       0.42073311
12
Frame=3 idx=002798 GeodesicLength=0.1219835472267847 rxn_smarts="[C:1]([C:2](=[O:3])[C@@:4]1([H:10])[C:5]([H:11])([H:12])[O:6]1)([H:7])([H:8])[H:9]>>[C:1]([C:2]([O-:3])=[C+:4][C:5]([O:6][H:10])([H:11])[H:12])([H:7])([H:8])[H:9]"
C       -1.63742895      -0.33288165      -0.38826461
C       -0.44974256      -0.83658399       0.37934438
O       -0.30756920      -1.99130365       0.71973313
C        0.59340538       0.09142841       0.84341587
C        1.74162709       0.34608206      -0.02953135
O        0.83292431       1.45310406      -0.18246700
H       -1.31092648       0.14923220      -1.31170721
H       -2.30351083      -1.16411854      -0.60967289
H       -2.16545360       0.42086072       0.19907167
H        0.49286009       1.46275257       0.93294195
H        1.81339532      -0.21268441      -0.95917091
H        2.70041943       0.61411223       0.40630697
12
Frame=4 idx=002798 GeodesicLength=0.1627346386670463 rxn_smarts="[C:1]([C:2](=[O:3])[C@@:4]1([H:10])[C:5]([H:11])([H:12])[O:6]1)([H:7])([H:8])[H:9]>>[C:1]([C:2]([O-:3])=[C+:4][C:5]([O:6][H:10])([H:11])[H:12])([H:7])([H:8])[H:9]"
C       -1.63310510      -0.33667567      -0.39534021
C       -0.45269405      -0.83489066       0.38624542
O       -0.31713841      -1.98507653       0.74504888
C        0.59588203       0.08889800       0.84277350
C        1.73633295       0.34755648      -0.03977400
O        0.83138669       1.45932830      -0.16614443
H       -1.29918665       0.13928837      -1.31928249
H       -2.29774049      -1.16923163      -0.61614024
H       -2.16523204       0.42141493       0.18263308
H        0.50512886       1.46480457       0.96467016
H        1.79646931      -0.20103220      -0.97635695
H        2.69989690       0.60561604       0.39166728
12
Frame=5 idx=002798 GeodesicLength=0.2036009144390758 rxn_smarts="[C:1]([C:2](=[O:3])[C@@:4]1([H:10])[C:5]([H:11])([H:12])[O:6]1)([H:7])([H:8])[H:9]>>[C:1]([C:2]([O-:3])=[C+:4][C:5]([O:6][H:10])([H:11])[H:12])([H:7])([H:8])[H:9]"
C       -1.62869191      -0.34057440      -0.40246790
C       -0.45574285      -0.83304152       0.39317215
O       -0.32700053      -1.97832741       0.77047336
C        0.59828417       0.08643006       0.84212486
C        1.73079267       0.34920088      -0.05004256
O        0.82998277       1.46540237      -0.14972650
H       -1.28728103       0.12922006      -1.32678251
H       -2.29178900      -1.17451899      -0.62264785
H       -2.16492979       0.42183600       0.16593707
H        0.51807904       1.46621903       0.99659089
H        1.77917136      -0.18906356      -0.99335938
H        2.69912511       0.59721746       0.37672838
12
Frame=6 idx=002798 GeodesicLength=0.24450302051120254 rxn_smarts="[C:1]([C:2](=[O:3])[C@@:4]1([H:10])[C:5]([H:11])([H:12])[O:6]1)([H:7])([H:8])[H:9]>>[C:1]([C:2]([O-:3])=[C+:4][C:5]([O:6][H:10])([H:11])[H:12])([H:7])([H:8])[H:9]"
C       -1.62416757      -0.34458839      -0.40967559
C       -0.45889359      -0.83104341       0.40016162
O       -0.33720208      -1.97104878       0.79610913
C        0.60063069       0.08400550       0.84148303
C        1.72496580       0.35103478      -0.06034869
O        0.82870862       1.47134047      -0.13313428
H       -1.27515515       0.11899346      -1.33425178
H       -2.28562505      -1.17999977      -0.62922468
H       -2.16454688       0.42214883       0.14892039
H        0.53180541       1.46694226       1.02874498
H        1.76139977      -0.17670863      -1.01020186
H        2.69808002       0.58892367       0.36141774
12
Frame=7 idx=002798 GeodesicLength=0.2855804226418749 rxn_smarts="[C:1]([C:2](=[O:3])[C@@:4]1([H:10])[C:5]([H:11])([H:12])[O:6]1)([H:7])([H:8])[H:9]>>[C:1]([C:2]([O-:3])=[C+:4][C:5]([O:6][H:10])([H:11])[H:12])([H:7])([H:8])[H:9]"
C       -1.61949918      -0.34873580      -0.41698864
C       -0.46215730      -0.82886495       0.40723374
O       -0.34781852      -1.96314343       0.82207615
C        0.60294342       0.08159019       0.84086799
C        1.71883206       0.35307003      -0.07073201
O        0.82753041       1.47717657      -0.11627207
H       -1.26273794       0.10850850      -1.34171829
H       -2.27922676      -1.18568699      -0.63586345
H       -2.16401956       0.42237006       0.13147194
H        0.54629963       1.46689830       1.06125482
H        1.74308515      -0.16385632      -1.02698087
H        2.69676860       0.58067386       0.34565069
12
Frame=8 idx=002798 GeodesicLength=0.326759798811851 rxn_smarts="[C:1]([C:2](=[O:3])[C@@:4]1([H:10])[C:5]([H:11])([H:12])[O:6]1)([H:7])([H:8])[H:9]>>[C:1]([C:2]([O-:3])=[C+:4][C:5]([O:6][H:10])([H:11])[H:12])([H:7])([H:8])[H:9]"
C       -1.61473560      -0.35300571      -0.42436453
C       -0.46552949      -0.82652152       0.41432708
O       -0.35878968      -1.95465987       0.84818053
C        0.60518145       0.07922933       0.84024570
C        1.71242052       0.35530348      -0.08112043
O        0.82649667       1.48285248      -0.09929623
H       -1.25015171       0.09787887      -1.34912705
H       -2.27262085      -1.19158342      -0.64254139
H       -2.16341854       0.42244359       0.11372978
H        0.56162369       1.46612897       1.09393102
H        1.72436077      -0.15063571      -1.04353467
H        2.69516277       0.57256949       0.32957020
12
Frame=9 idx=002798 GeodesicLength=0.3680490988643676 rxn_smarts="[C:1]([C:2](=[O:3])[C@@:4]1([H:10])[C:5]([H:11])([H:12])[O:6]1)([H:7])([H:8])[H:9]>>[C:1]([C:2]([O-:3])=[C+:4][C:5]([O:6][H:10])([H:11])[H:12])([H:7])([H:8])[H:9]"
C       -1.60984764      -0.35741473      -0.43183033
C       -0.46901635      -0.82399747       0.42146526
O       -0.37019088      -1.94552974       0.87455593
C        0.60737465       0.07688393       0.83963304
C        1.70571309       0.35775288      -0.09154659
O        0.82559357       1.48840644      -0.08208868
H       -1.23732902       0.08701710      -1.35651635
H       -2.26578888      -1.19770527      -0.64925341
H       -2.16270029       0.42239754       0.09559223
H        0.57777193       1.46455453       1.12684645
H        1.70515154      -0.13692476      -1.05994900
H        2.69326828       0.56455954       0.31309145
12
Frame=10 idx=002798 GeodesicLength=0.4094460643138741 rxn_smarts="[C:1]([C:2](=[O:3])[C@@:4]1([H:10])[C:5]([H:11])([H:12])[O:6]1)([H:7])([H:8])[H:9]>>[C:1]([C:2]([O-:3])=[C+:4][C:5]([O:6][H:10])([H:11])[H:12])([H:7])([H:8])[H:9]"
C       -1.60488658      -0.36195181      -0.43934661
C       -0.47260487      -0.82128995       0.42857434
O       -0.38196594      -1.93574882       0.90103956
C        0.60948835       0.07459320       0.83899549
C        1.69875529       0.36040783      -0.10194868
O        0.82486159       1.49378913      -0.06480028
H       -1.22440013       0.07602718      -1.36382930
H       -2.25875812      -1.20405250      -0.65598097
H       -2.16192989       0.42215478       0.07719299
H        0.59475139       1.46220003       1.15984365
H        1.68561338      -0.12283357      -1.07609507
H        2.69107553       0.55670451       0.29635488
12
Frame=11 idx=002798 GeodesicLength=0.4509111589501862 rxn_smarts="[C:1]([C:2](=[O:3])[C@@:4]1([H:10])[C:5]([H:11])([H:12])[O:6]1)([H:7])([H:8])[H:9]>>[C:1]([C:2]([O-:3])=[C+:4][C:5]([O:6][H:10])([H:11])[H:12])([H:7])([H:8])[H:9]"
C       -1.59989562      -0.36659986      -0.44687525
C       -0.47628276      -0.81839480       0.43559843
O       -0.39404651      -1.92532934       0.92748479
C        0.61149766       0.07239202       0.83830950
C        1.69159915       0.36324973      -0.11227552
O        0.82433331       1.49897016      -0.04755012
H       -1.21147636       0.06500832      -1.37101745
H       -2.25154760      -1.21062098      -0.66270528
H       -2.16117063       0.42165648       0.05865620
H        0.61250563       1.45910380       1.19276620
H        1.66588989      -0.10846745      -1.09187971
H        2.68859384       0.54903194       0.27948822
12
Frame=12 idx=002798 GeodesicLength=0.49239881197398594 rxn_smarts="[C:1]([C:2](=[O:3])[C@@:4]1([H:10])[C:5]([H:11])([H:12])[O:6]1)([H:7])([H:8])[H:9]>>[C:1]([C:2]([O-:3])=[C+:4][C:5]([O:6][H:10])([H:11])[H:12])([H:7])([H:8])[H:9]"
C       -1.59491920      -0.37134335      -0.45438407
C       -0.48003581      -0.81531146       0.44248667
O       -0.40636321      -1.91428921       0.95375973
C        0.61338233       0.07030942       0.83755563
C        1.68429787       0.36626108      -0.12248027
O        0.82403755       1.50393027      -0.03044261
H       -1.19866515       0.05404260      -1.37804647
H       -2.24418594      -1.21740400      -0.66940397
H       -2.16048334       0.42085619       0.04009108
H        0.63097694       1.45530454       1.22547743
H        1.64611986      -0.09392018      -1.10722525
H        2.68583810       0.54156410       0.26261210
12
Frame=13 idx=002798 GeodesicLength=0.5338652811747748 rxn_smarts="[C:1]([C:2](=[O:3])[C@@:4]1([H:10])[C:5]([H:11])([H:12])[O:6]1)([H:7])([H:8])[H:9]>>[C:1]([C:2]([O-:3])=[C+:4][C:5]([O:6][H:10])([H:11])[H:12])([H:7])([H:8])[H:9]"
C       -1.58999238      -0.37616474      -0.46184320
C       -0.48384960      -0.81203877       0.44919693
O       -0.41884454      -1.90264750       0.97974472
C        0.61511969       0.06837246       0.83671859
C        1.67689645       0.36942353      -0.13252201
O        0.82399408       1.50865229      -0.01357616
H       -1.18605939       0.04320562      -1.38488941
H       -2.23669168      -1.22438876      -0.67605452
H       -2.15991741       0.41971438       0.02159862
H        0.65009991       1.45083661       1.25785705
H        1.62642743      -0.07927848      -1.12206881
H        2.68281745       0.53431338       0.24583820
12
Frame=14 idx=002798 GeodesicLength=0.575354525123274 rxn_smarts="[C:1]([C:2](=[O:3])[C@@:4]1([H:10])[C:5]([H:11])([H:12])[O:6]1)([H:7])([H:8])[H:9]>>[C:1]([C:2]([O-:3])=[C+:4][C:5]([O:6][H:10])([H:11])[H:12])([H:7])([H:8])[H:9]"
C       -1.58508447      -0.38108590      -0.46928192
C       -0.48774257      -0.80857297       0.45577274
O       -0.43157019      -1.89036741       1.00555039
C        0.61672892       0.06655950       0.83582131
C        1.66936001       0.37275875      -0.14243139
O        0.82417360       1.51317646       0.00315029
H       -1.17357450       0.03241012      -1.39159140
H       -2.22904088      -1.23160048      -0.68266054
H       -2.15944175       0.41826559       0.00306926
H        0.66994782       1.44564276       1.29000877
H        1.60671156      -0.06444853      -1.13648663
H        2.67953246       0.52726212       0.22907913
12
Frame=15 idx=002798 GeodesicLength=0.6169097274104649 rxn_smarts="[C:1]([C:2](=[O:3])[C@@:4]1([H:10])[C:5]([H:11])([H:12])[O:6]1)([H:7])([H:8])[H:9]>>[C:1]([C:2]([O-:3])=[C+:4][C:5]([O:6][H:10])([H:11])[H:12])([H:7])([H:8])[H:9]"
C       -1.58016029      -0.38613124      -0.47673290
C       -0.49172813      -0.80490663       0.46225008
O       -0.44464078      -1.87737366       1.03132485
C        0.61823050       0.06483909       0.83487984
C        1.66164875       0.37629372      -0.15224112
O        0.82455576       1.51753636       0.01984661
H       -1.16113018       0.02157023      -1.39819538
H       -2.22119348      -1.23906763      -0.68923773
H       -2.15901911       0.41652875      -0.01560869
H        0.69059937       1.43963197       1.32203431
H        1.58686429      -0.04930960      -1.15055320
H        2.67597330       0.52038864       0.21223332
12
Frame=16 idx=002798 GeodesicLength=0.6584891533940864 rxn_smarts="[C:1]([C:2](=[O:3])[C@@:4]1([H:10])[C:5]([H:11])([H:12])[O:6]1)([H:7])([H:8])[H:9]>>[C:1]([C:2]([O-:3])=[C+:4][C:5]([O:6][H:10])([H:11])[H:12])([H:7])([H:8])[H:9]"
C       -1.57525491      -0.39128265      -0.48416359
C       -0.49579752      -0.80103514       0.46859428
O       -0.45797276      -1.86369624       1.05691868
C        0.61959926       0.06324627       0.83388357
C        1.65380608       0.38000801      -0.16190881
O        0.82515912       1.52171484       0.03641026
H       -1.14881227       0.01076585      -1.40466774
H       -2.21316969      -1.24677737      -0.69575755
H       -2.15870353       0.41446503      -0.03433521
H        0.71199093       1.43284719       1.35380772
H        1.56700733      -0.03396494      -1.16419838
H        2.67214798       0.51370915       0.19541678
