16
Frame=0 idx=007629 GeodesicLength=0.0 rxn_smarts="[C:1]([C@:2]12[C:3]([H:11])([H:12])[C@@:4]1([H:13])[C@@:5]1([H:14])[N:6]([H:15])[C@@:7]21[H:16])([H:8])([H:9])[H:10]>>[C:1]([C@@:2]1([H:13])[C:3]([H:11])([H:12])[C:4][C@@:5]2([H:14])[N:6]([H:15])[C@@:7]12[H:16])([H:8])([H:9])[H:10]"
C        1.63626745      -0.68959518       0.84566566
C        0.41472890      -0.04609964       0.24024660
C        0.50142700       0.84910443      -0.97421177
C       -0.50640844       1.51694529      -0.08725186
C       -1.73129830       0.56560166      -0.04685832
N       -1.79835419      -0.61683987      -0.90268788
C       -0.99244422      -0.67504764       0.27927506
H        1.42771468      -1.07008333       1.84703706
H        2.46602279       0.01445648       0.91377329
H        1.95312093      -1.52784085       0.21965199
H        1.44967361       1.37148572      -1.05759572
H        0.19051043       0.43539415      -1.92635341
H        0.18926997       0.92532716       0.99008434
H       -2.66074625       0.90173586       0.38857586
H       -1.28986096      -0.55712970      -1.77425754
H       -1.24962339      -1.39741461       1.04490666
16
Frame=1 idx=007629 GeodesicLength=0.06197018323766867 rxn_smarts="[C:1]([C@:2]12[C:3]([H:11])([H:12])[C@@:4]1([H:13])[C@@:5]1([H:14])[N:6]([H:15])[C@@:7]21[H:16])([H:8])([H:9])[H:10]>>[C:1]([C@@:2]1([H:13])[C:3]([H:11])([H:12])[C:4][C@@:5]2([H:14])[N:6]([H:15])[C@@:7]12[H:16])([H:8])([H:9])[H:10]"
C        1.63321039      -0.69687572       0.83759550
C        0.41312652      -0.03783061       0.24785537
C        0.50294489       0.85161974      -0.97120960
C       -0.51767276       1.51643760      -0.09915797
C       -1.73604610       0.56292466      -0.04958931
N       -1.79125997      -0.62508382      -0.89810870
C       -0.99125504      -0.67214182       0.28866983
H        1.43205114      -1.07603045       1.84105585
H        2.47160858      -0.00236930       0.89869584
H        1.93446459      -1.53791786       0.20754637
H        1.44169718       1.39320639      -1.04380133
H        0.21384730       0.43417232      -1.92857838
H        0.19217694       0.95002860       0.99972633
H       -2.66974178       0.89677524       0.37866160
H       -1.27724093      -0.56684845      -1.76664805
H       -1.25191093      -1.39006650       1.05728665
16
Frame=2 idx=007629 GeodesicLength=0.12392619416983919 rxn_smarts="[C:1]([C@:2]12[C:3]([H:11])([H:12])[C@@:4]1([H:13])[C@@:5]1([H:14])[N:6]([H:15])[C@@:7]21[H:16])([H:8])([H:9])[H:10]>>[C:1]([C@@:2]1([H:13])[C:3]([H:11])([H:12])[C:4][C@@:5]2([H:14])[N:6]([H:15])[C@@:7]12[H:16])([H:8])([H:9])[H:10]"
C        1.62998146      -0.70410977       0.82949717
C        0.41158897      -0.02966583       0.25544961
C        0.50452441       0.85410760      -0.96816383
C       -0.52871483       1.51560398      -0.11103028
C       -1.74068778       0.56014732      -0.05228010
N       -1.78411402      -0.63328651      -0.89342833
C       -0.99005191      -0.66924110       0.29804323
H        1.43628110      -1.08201535       1.83496578
H        2.47674997      -0.01911401       0.88347167
H        1.91565578      -1.54773256       0.19556284
H        1.43340773       1.41448668      -1.03023470
H        0.23753729       0.43334240      -1.93048756
H        0.19516730       0.97504129       1.00914557
H       -2.67855104       0.89164795       0.36883851
H       -1.26458520      -0.57644539      -1.75890378
H       -1.25418923      -1.38276669       1.06955421
16
Frame=3 idx=007629 GeodesicLength=0.18587309998396984 rxn_smarts="[C:1]([C@:2]12[C:3]([H:11])([H:12])[C@@:4]1([H:13])[C@@:5]1([H:14])[N:6]([H:15])[C@@:7]21[H:16])([H:8])([H:9])[H:10]>>[C:1]([C@@:2]1([H:13])[C:3]([H:11])([H:12])[C:4][C@@:5]2([H:14])[N:6]([H:15])[C@@:7]12[H:16])([H:8])([H:9])[H:10]"
C        1.62658203      -0.71129750       0.82137529
C        0.41011658      -0.02161196       0.26302208
C        0.50616303       0.85656251      -0.96508065
C       -0.53953136       1.51444486      -0.12287276
C       -1.74522300       0.55727166      -0.05492863
N       -1.77692543      -0.64144692      -0.88864703
C       -0.98883615      -0.66634889       0.30739190
H        1.44039731      -1.08804403       1.82876715
H        2.48144731      -0.03577087       0.86812392
H        1.89671238      -1.55728370       0.18370259
H        1.42481933       1.43533009      -1.01690298
H        0.26157107       0.43291497      -1.93208284
H        0.19824360       1.00036562       1.01833661
H       -2.68717056       0.88636084       0.35911683
H       -1.25190860      -0.58592528      -1.75102630
H       -1.25645754      -1.37552140       1.08170483
16
Frame=4 idx=007629 GeodesicLength=0.2478184390204891 rxn_smarts="[C:1]([C@:2]12[C:3]([H:11])([H:12])[C@@:4]1([H:13])[C@@:5]1([H:14])[N:6]([H:15])[C@@:7]21[H:16])([H:8])([H:9])[H:10]>>[C:1]([C@@:2]1([H:13])[C:3]([H:11])([H:12])[C:4][C@@:5]2([H:14])[N:6]([H:15])[C@@:7]12[H:16])([H:8])([H:9])[H:10]"
C        1.62301008      -0.71844027       0.81323195
C        0.40871014      -0.01367378       0.27056834
C        0.50785884       0.85898107      -0.96196367
C       -0.55012157       1.51296030      -0.13468826
C       -1.74964938       0.55429702      -0.05753381
N       -1.76969845      -0.64956534      -0.88376253
C       -0.98760907      -0.66346636       0.31671376
H        1.44439357      -1.09411950       1.82246036
H        2.48569977      -0.05233569       0.85266518
H        1.87764125      -1.56657257       0.17196281
H        1.41594093       1.45574172      -1.00380917
H        0.28594477       0.43289779      -1.93336515
H        0.20140994       1.02600475       1.02729520
H       -2.69559625       0.88091520       0.34950112
H       -1.23921823      -0.59529085      -1.74300966
H       -1.25871633      -1.36833347       1.09373355
16
Frame=5 idx=007629 GeodesicLength=0.3097632991512099 rxn_smarts="[C:1]([C@:2]12[C:3]([H:11])([H:12])[C@@:4]1([H:13])[C@@:5]1([H:14])[N:6]([H:15])[C@@:7]21[H:16])([H:8])([H:9])[H:10]>>[C:1]([C@@:2]1([H:13])[C:3]([H:11])([H:12])[C:4][C@@:5]2([H:14])[N:6]([H:15])[C@@:7]12[H:16])([H:8])([H:9])[H:10]"
C        1.61926955      -0.72554061       0.80507101
C        0.40736947      -0.00585874       0.27807941
C        0.50960756       0.86135737      -0.95882107
C       -0.56048286       1.51115128      -0.14647747
C       -1.75396766       0.55122561      -0.06009559
N       -1.76244300      -0.65764480      -0.87877488
C       -0.98637324      -0.66059692       0.32600540
H        1.44826225      -1.10024955       1.81604531
H        2.48951148      -0.06880475       0.83711985
H        1.85846191      -1.57559890       0.16034538
H        1.40678811       1.47573072      -0.99095445
H        0.31064667       0.43330406      -1.93433800
H        0.20466962       1.05196280       1.03601201
H       -2.70382577       0.87531952       0.34000052
H       -1.22652903      -0.60455011      -1.73485878
H       -1.26096505      -1.36120698       1.10564137
16
Frame=6 idx=007629 GeodesicLength=0.37171817825552966 rxn_smarts="[C:1]([C@:2]12[C:3]([H:11])([H:12])[C@@:4]1([H:13])[C@@:5]1([H:14])[N:6]([H:15])[C@@:7]21[H:16])([H:8])([H:9])[H:10]>>[C:1]([C@@:2]1([H:13])[C:3]([H:11])([H:12])[C:4][C@@:5]2([H:14])[N:6]([H:15])[C@@:7]12[H:16])([H:8])([H:9])[H:10]"
C        1.61536283      -0.73259973       0.79689738
C        0.40609516       0.00182729       0.28554826
C        0.51140805       0.86368793      -0.95565757
C       -0.57061445       1.50901807      -0.15824462
C       -1.75817785       0.54805828      -0.06261294
N       -1.75516781      -0.66568406      -0.87368645
C       -0.98512939      -0.65774382       0.33526493
H        1.45199945      -1.10643854       1.80952461
H        2.49288665      -0.08517173       0.82150691
H        1.83918917      -1.58436618       0.14884846
H        1.39737126       1.49529751      -0.97834505
H        0.33566946       0.43414802      -1.93500072
H        0.20802437       1.07824158       1.04448546
H       -2.71185837       0.86958029       0.33062076
H       -1.21385564      -0.61370812      -1.72657661
H       -1.26320287      -1.35414680       1.11742722
16
Frame=7 idx=007629 GeodesicLength=0.43368170277807544 rxn_smarts="[C:1]([C@:2]12[C:3]([H:11])([H:12])[C@@:4]1([H:13])[C@@:5]1([H:14])[N:6]([H:15])[C@@:7]21[H:16])([H:8])([H:9])[H:10]>>[C:1]([C@@:2]1([H:13])[C:3]([H:11])([H:12])[C:4][C@@:5]2([H:14])[N:6]([H:15])[C@@:7]12[H:16])([H:8])([H:9])[H:10]"
C        1.61129363      -0.73961961       0.78871483
C        0.40488683       0.00937783       0.29296859
C        0.51325713       0.86596798      -0.95247864
C       -0.58051507       1.50656129      -0.16998974
C       -1.76228100       0.54479710      -0.06508514
N       -1.74788159      -0.67368469      -0.86849809
C       -0.98387903      -0.65491123       0.34449096
H        1.45559894      -1.11269516       1.80289774
H        2.49582994      -0.10143017       0.80584773
H        1.81983794      -1.59287713       0.13747123
H        1.38770104       1.51444962      -0.96598380
H        0.36100445       0.43544208      -1.93535382
H        0.21148143       1.10484527       1.05270710
H       -2.71969386       0.86370400       0.32136643
H       -1.20121075      -0.62277196      -1.71816759
H       -1.26543004      -1.34715522       1.12909220
16
Frame=8 idx=007629 GeodesicLength=0.4956614912814075 rxn_smarts="[C:1]([C@:2]12[C:3]([H:11])([H:12])[C@@:4]1([H:13])[C@@:5]1([H:14])[N:6]([H:15])[C@@:7]21[H:16])([H:8])([H:9])[H:10]>>[C:1]([C@@:2]1([H:13])[C:3]([H:11])([H:12])[C:4][C@@:5]2([H:14])[N:6]([H:15])[C@@:7]12[H:16])([H:8])([H:9])[H:10]"
C        1.60706031      -0.74660318       0.78052390
C        0.40374528       0.01678826       0.30033499
C        0.51515352       0.86819425      -0.94928883
C       -0.59018480       1.50377957      -0.18171676
C       -1.76627536       0.54144028      -0.06751293
N       -1.74058793      -0.68164972      -0.86320630
C       -0.98262422      -0.65209901       0.35368202
H        1.45905654      -1.11902099       1.79616571
H        2.49834535      -0.11758120       0.79014801
H        1.80041125      -1.60113912       0.12621138
H        1.37778063       1.53319722      -0.95386494
H        0.38664861       0.43720092      -1.93539496
H        0.21504576       1.13178027       1.06067102
H       -2.72733018       0.85769147       0.31223811
H       -1.18859729      -0.63174797      -1.70962680
H       -1.26764747      -1.34023106       1.14063639
16
Frame=9 idx=007629 GeodesicLength=0.5576576639191477 rxn_smarts="[C:1]([C@:2]12[C:3]([H:11])([H:12])[C@@:4]1([H:13])[C@@:5]1([H:14])[N:6]([H:15])[C@@:7]21[H:16])([H:8])([H:9])[H:10]>>[C:1]([C@@:2]1([H:13])[C:3]([H:11])([H:12])[C:4][C@@:5]2([H:14])[N:6]([H:15])[C@@:7]12[H:16])([H:8])([H:9])[H:10]"
C        1.60266814      -0.75355106       0.77232906
C        0.40266965       0.02405234       0.30763954
C        0.51709320       0.87036342      -0.94609419
C       -0.59962373       1.50067496      -0.19342434
C       -1.77016301       0.53798964      -0.06989730
N       -1.73329604      -0.68958194      -0.85781319
C       -0.98136671      -0.64931117       0.36283702
H        1.46236411      -1.12542526       1.78932799
H        2.50044409      -0.13362472       0.77443176
H        1.78092823      -1.60915474       0.11506427
H        1.36762096       1.55154742      -0.94199519
H        0.41259286       0.43944167      -1.93512025
H        0.21872089       1.15905209       1.06837091
H       -2.73476883       0.85155328       0.30323916
H       -1.17602845      -0.64064919      -1.70095810
H       -1.26985535      -1.33337675       1.15206283
16
Frame=10 idx=007629 GeodesicLength=0.619672464020782 rxn_smarts="[C:1]([C@:2]12[C:3]([H:11])([H:12])[C@@:4]1([H:13])[C@@:5]1([H:14])[N:6]([H:15])[C@@:7]21[H:16])([H:8])([H:9])[H:10]>>[C:1]([C@@:2]1([H:13])[C:3]([H:11])([H:12])[C:4][C@@:5]2([H:14])[N:6]([H:15])[C@@:7]12[H:16])([H:8])([H:9])[H:10]"
C        1.59812213      -0.76046888       0.76413157
C        0.40165960       0.03116417       0.31487667
C        0.51907607       0.87247395      -0.94289763
C       -0.60883076       1.49724680      -0.20511461
C       -1.77394674       0.53444672      -0.07223870
N       -1.72601474      -0.69748374      -0.85232136
C       -0.98010830      -0.64655071       0.37195500
H        1.46552137      -1.13191607       1.78238461
H        2.50213372      -0.14955287       0.75871489
H        1.76140269      -1.61693065       0.10403238
H        1.35722818       1.56950469      -0.93037033
H        0.43882784       0.44217474      -1.93453075
H        0.22251231       1.18666755       1.07580064
H       -2.74201249       0.84529582       0.29437205
H       -1.16351732      -0.64947870      -1.69217153
H       -1.27205356      -1.32659284       1.16337710
16
Frame=11 idx=007629 GeodesicLength=0.681711370640755 rxn_smarts="[C:1]([C@:2]12[C:3]([H:11])([H:12])[C@@:4]1([H:13])[C@@:5]1([H:14])[N:6]([H:15])[C@@:7]21[H:16])([H:8])([H:9])[H:10]>>[C:1]([C@@:2]1([H:13])[C:3]([H:11])([H:12])[C:4][C@@:5]2([H:14])[N:6]([H:15])[C@@:7]12[H:16])([H:8])([H:9])[H:10]"
C        1.59342502      -0.76736019       0.75593270
C        0.40071494       0.03811938       0.32204192
C        0.52109988       0.87452445      -0.93970194
C       -0.61780853       1.49349524      -0.21678813
C       -1.77762735       0.53081089      -0.07453815
N       -1.71874881      -0.70535893      -0.84672943
C       -0.97885065      -0.64381915       0.38103618
H        1.46852431      -1.13849933       1.77533567
H        2.50342250      -0.16536835       0.74300758
H        1.74183957      -1.62447294       0.09311156
H        1.34660586       1.58707269      -0.91899517
H        0.46535290       0.44542092      -1.93361759
H        0.22642476       1.21463683       1.08295435
H       -2.74906305       0.83892120       0.28563581
H       -1.15106847      -0.65824476      -1.68326856
H       -1.27424288      -1.31987795       1.17458319
16
Frame=12 idx=007629 GeodesicLength=0.7437719936463308 rxn_smarts="[C:1]([C@:2]12[C:3]([H:11])([H:12])[C@@:4]1([H:13])[C@@:5]1([H:14])[N:6]([H:15])[C@@:7]21[H:16])([H:8])([H:9])[H:10]>>[C:1]([C@@:2]1([H:13])[C:3]([H:11])([H:12])[C:4][C@@:5]2([H:14])[N:6]([H:15])[C@@:7]12[H:16])([H:8])([H:9])[H:10]"
C        1.58858220      -0.77422735       0.74773532
C        0.39983559       0.04491256       0.32912903
C        0.52316379       0.87651264      -0.93651165
C       -0.62655649       1.48942058      -0.22844509
C       -1.78120623       0.52708304      -0.07679710
N       -1.71150505      -0.71321160      -0.84103895
C       -0.97759509      -0.64111926       0.39008053
H        1.47136908      -1.14518276       1.76818134
H        2.50432041      -0.18107027       0.72732214
H        1.72224962      -1.63178973       0.08229627
H        1.33575899       1.60425961      -0.90786405
H        0.49215926       0.44919489      -1.93237495
H        0.23046103       1.24296915       1.08982419
H       -2.75592267       0.83243735       0.27702986
H       -1.13869062      -0.66695839      -1.67425356
H       -1.27642382      -1.31323046       1.18568670
16
Frame=13 idx=007629 GeodesicLength=0.8058536333964025 rxn_smarts="[C:1]([C@:2]12[C:3]([H:11])([H:12])[C@@:4]1([H:13])[C@@:5]1([H:14])[N:6]([H:15])[C@@:7]21[H:16])([H:8])([H:9])[H:10]>>[C:1]([C@@:2]1([H:13])[C:3]([H:11])([H:12])[C:4][C@@:5]2([H:14])[N:6]([H:15])[C@@:7]12[H:16])([H:8])([H:9])[H:10]"
C        1.58359589      -0.78107614       0.73953758
C        0.39902134       0.05153898       0.33613391
C        0.52526626       0.87843778      -0.93332884
C       -0.63507545       1.48502311      -0.24008516
C       -1.78468429       0.52326289      -0.07901720
N       -1.70428841      -0.72104581      -0.83524945
C       -0.97634328      -0.63845258       0.39908890
H        1.47405240      -1.15197321       1.76091950
H        2.50483650      -0.19666209       0.71166756
H        1.70263965      -1.63888602       0.07158245
H        1.32469100       1.62107452      -0.89697421
H        0.51924275       0.45351205      -1.93079400
H        0.23462474       1.27167620       1.09640163
H       -2.76259328       0.82584816       0.26855121
H       -1.12638811      -0.67563055      -1.66512661
H       -1.27859772      -1.30664729       1.19669272
16
Frame=14 idx=007629 GeodesicLength=0.8679601081894515 rxn_smarts="[C:1]([C@:2]12[C:3]([H:11])([H:12])[C@@:4]1([H:13])[C@@:5]1([H:14])[N:6]([H:15])[C@@:7]21[H:16])([H:8])([H:9])[H:10]>>[C:1]([C@@:2]1([H:13])[C:3]([H:11])([H:12])[C:4][C@@:5]2([H:14])[N:6]([H:15])[C@@:7]12[H:16])([H:8])([H:9])[H:10]"
C        1.57847062      -0.78790994       0.73134028
C        0.39827182       0.05799416       0.34305180
C        0.52740625       0.88029864      -0.93015671
C       -0.64336741       1.48030179      -0.25171016
C       -1.78806343       0.51934942      -0.08120045
N       -1.69710431      -0.72886721      -0.82935996
C       -0.97509674      -0.63582091       0.40806207
H        1.47657257      -1.15887642       1.75354983
H        2.50498118      -0.21214628       0.69604926
H        1.68301305      -1.64577175       0.06096716
H        1.31340255       1.63752149      -0.88632290
H        0.54660231       0.45839279      -1.92886112
H        0.23892137       1.30077060       1.10267941
H       -2.76907824       0.81915715       0.26019726
H       -1.11416675      -0.68426814      -1.65589355
H       -1.28076485      -1.30012539       1.20760778
16
Frame=15 idx=007629 GeodesicLength=0.9300867636551645 rxn_smarts="[C:1]([C@:2]12[C:3]([H:11])([H:12])[C@@:4]1([H:13])[C@@:5]1([H:14])[N:6]([H:15])[C@@:7]21[H:16])([H:8])([H:9])[H:10]>>[C:1]([C@@:2]1([H:13])[C:3]([H:11])([H:12])[C:4][C@@:5]2([H:14])[N:6]([H:15])[C@@:7]12[H:16])([H:8])([H:9])[H:10]"
C        1.57321010      -0.79473416       0.72314225
C        0.39758669       0.06427381       0.34987887
C        0.52958304       0.88209583      -0.92699669
C       -0.65143305       1.47525734      -0.26331927
C       -1.79134592       0.51534265      -0.08334914
N       -1.68995736      -0.73668083      -0.82337229
C       -0.97385705      -0.63322568       0.41700088
H        1.47892631      -1.16590020       1.74607065
H        2.50476653      -0.22752726       0.68047641
H        1.66337788      -1.65245308       0.05044452
H        1.30189778       1.65360550      -0.87590986
H        0.57423026       0.46385635      -1.92656253
H        0.24335340       1.33026546       1.10864888
H       -2.77538168       0.81237027       0.25196403
H       -1.10203079      -0.69288391      -1.64655584
H       -1.28292611      -1.29366208       1.21843912
16
Frame=16 idx=007629 GeodesicLength=0.9922313264354542 rxn_smarts="[C:1]([C@:2]12[C:3]([H:11])([H:12])[C@@:4]1([H:13])[C@@:5]1([H:14])[N:6]([H:15])[C@@:7]21[H:16])([H:8])([H:9])[H:10]>>[C:1]([C@@:2]1([H:13])[C:3]([H:11])([H:12])[C:4][C@@:5]2([H:14])[N:6]([H:15])[C@@:7]12[H:16])([H:8])([H:9])[H:10]"
C        1.56781830      -0.80155462       0.71494095
C        0.39696603       0.07037273       0.35661064
C        0.53179569       0.88382762      -0.92385204
C       -0.65927329       1.46988953      -0.27491204
C       -1.79453317       0.51124239      -0.08546534
N       -1.68285244      -0.74449179      -0.81728578
C       -0.97262541      -0.63066915       0.42590670
H        1.48111223      -1.17305010       1.73848005
H        2.50420391      -0.24281022       0.66495188
H        1.64373725      -1.65893883       0.04001089
H        1.29017853       1.66933299      -0.86572930
H        0.60212448       0.46992309      -1.92387988
H        0.24792108       1.36017709       1.11429856
H       -2.78150637       0.80549158       0.24384738
H       -1.08998444      -0.70148871      -1.63711656
H       -1.28508235      -1.28725360       1.22919390
