21
Frame=0 idx=007725 GeodesicLength=0.0 rxn_smarts="[C:1]([C:2]([C:3]([C:4]([C:5]([O:6][C:7]([H:19])([H:20])[H:21])([H:17])[H:18])([H:15])[H:16])([H:13])[H:14])([H:11])[H:12])([H:8])([H:9])[H:10]>>[C:1]([H:8])([H:9])([H:10])[H:14].[C:2](=[C:3]([C:4]([C:5]([O:6][C:7]([H:19])([H:20])[H:21])([H:17])[H:18])([H:15])[H:16])[H:13])([H:11])[H:12]"
C       -2.67384387       0.65510087      -0.87419191
C       -2.16927635      -0.72620921       0.62319894
C       -0.86168968      -1.28269514       0.46325685
C        0.36043095      -0.63032449       1.03722608
C        1.31962698      -0.10471612      -0.01911783
O        2.44438189       0.45815463       0.60842681
C        3.37351727       0.97447673      -0.30380370
H       -3.75926125       0.62213153      -0.79573882
H       -2.36671736       0.38791721      -1.89199125
H       -2.28074924       1.63141325      -0.59205813
H       -2.33283227       0.02526673       1.38692741
H       -3.02023142      -1.36161736       0.41790579
H       -0.78508326      -2.23959132      -0.03610608
H       -1.57052936      -0.36276031      -0.42280533
H        0.91235171      -1.33084119       1.67283537
H        0.07498630       0.20410736       1.68614445
H        1.62544107      -0.92322797      -0.68922425
H        0.81515568       0.65024904      -0.64421090
H        3.75264036       0.19447274      -0.97794606
H        4.20677560       1.38372077       0.26649009
H        2.93490622       1.77497229      -0.91521756
21
Frame=1 idx=007725 GeodesicLength=0.10627990850235715 rxn_smarts="[C:1]([C:2]([C:3]([C:4]([C:5]([O:6][C:7]([H:19])([H:20])[H:21])([H:17])[H:18])([H:15])[H:16])([H:13])[H:14])([H:11])[H:12])([H:8])([H:9])[H:10]>>[C:1]([H:8])([H:9])([H:10])[H:14].[C:2](=[C:3]([C:4]([C:5]([O:6][C:7]([H:19])([H:20])[H:21])([H:17])[H:18])([H:15])[H:16])[H:13])([H:11])[H:12]"
C       -2.70691716       0.64277265      -0.88513985
C       -2.16830789      -0.72339623       0.63244951
C       -0.85822611      -1.26400418       0.44912112
C        0.36443506      -0.62335931       1.03495954
C        1.32879553      -0.09746259      -0.01625748
O        2.45956308       0.44826296       0.61581607
C        3.39219177       0.96494646      -0.29296408
H       -3.79105246       0.61701750      -0.78522863
H       -2.43057366       0.35786144      -1.90683958
H       -2.31354128       1.62792387      -0.63537133
H       -2.32627544       0.02250543       1.40334589
H       -3.01156854      -1.37792628       0.45552649
H       -0.77843184      -2.21465715      -0.06258682
H       -1.56407204      -0.33460482      -0.44169435
H        0.90833007      -1.33427435       1.66583972
H        0.08337023       0.20784801       1.68965863
H        1.62730719      -0.91211479      -0.69462938
H        0.83141773       0.66821850      -0.63405469
H        3.76138374       0.18911809      -0.97770688
H        4.23167316       1.35818549       0.27973137
H        2.96049887       1.77713930      -0.89397528
21
Frame=2 idx=007725 GeodesicLength=0.21195724169317365 rxn_smarts="[C:1]([C:2]([C:3]([C:4]([C:5]([O:6][C:7]([H:19])([H:20])[H:21])([H:17])[H:18])([H:15])[H:16])([H:13])[H:14])([H:11])[H:12])([H:8])([H:9])[H:10]>>[C:1]([H:8])([H:9])([H:10])[H:14].[C:2](=[C:3]([C:4]([C:5]([O:6][C:7]([H:19])([H:20])[H:21])([H:17])[H:18])([H:15])[H:16])[H:13])([H:11])[H:12]"
C       -2.74001247       0.62955521      -0.89603485
C       -2.16749782      -0.72021759       0.64221721
C       -0.85521987      -1.24398928       0.43459782
C        0.36834387      -0.61626505       1.03241866
C        1.33789211      -0.08986918      -0.01349333
O        2.47483906       0.43771000       0.62309486
C        3.41103439       0.95492212      -0.28203803
H       -3.82263109       0.61014411      -0.77658939
H       -2.49258479       0.32642834      -1.91983098
H       -2.34906503       1.62356979      -0.67895142
H       -2.31947261       0.02002627       1.42029795
H       -3.00152658      -1.39401443       0.49390859
H       -0.77262622      -2.18827841      -0.08937084
H       -1.55746630      -0.30412773      -0.46077381
H        0.90393547      -1.33813326       1.65785826
H        0.09209117       0.21132903       1.69347670
H        1.62867591      -0.90016802      -0.70069600
H        0.84793938       0.68702134      -0.62327331
H        3.76992392       0.18381901      -0.97785586
H        4.25678888       1.33137804       0.29297417
H        2.98663861       1.77915969      -0.87193639
21
Frame=3 idx=007725 GeodesicLength=0.3171480425774683 rxn_smarts="[C:1]([C:2]([C:3]([C:4]([C:5]([O:6][C:7]([H:19])([H:20])[H:21])([H:17])[H:18])([H:15])[H:16])([H:13])[H:14])([H:11])[H:12])([H:8])([H:9])[H:10]>>[C:1]([H:8])([H:9])([H:10])[H:14].[C:2](=[C:3]([C:4]([C:5]([O:6][C:7]([H:19])([H:20])[H:21])([H:17])[H:18])([H:15])[H:16])[H:13])([H:11])[H:12]"
C       -2.77294545       0.61544292      -0.90683914
C       -2.16687542      -0.71672029       0.65258298
C       -0.85273966      -1.22254599       0.41972343
C        0.37210415      -0.60900534       1.02960248
C        1.34686723      -0.08192575      -0.01083263
O        2.49014392       0.42648772       0.63021456
C        3.42998616       0.94436838      -0.27107876
H       -3.85392432       0.60130451      -0.76995313
H       -2.55228769       0.29379347      -1.93103045
H       -2.38728010       1.61830563      -0.72254040
H       -2.31248502       0.01775686       1.43787112
H       -2.99003335      -1.40993225       0.53297409
H       -0.76772169      -2.16038340      -0.11637947
H       -1.55073756      -0.27120725      -0.48006642
H        0.89909116      -1.34236928       1.64886240
H        0.10111630       0.21456810       1.69759730
H        1.62949210      -0.88735835      -0.70741154
H        0.86469445       0.70663902      -0.61186181
H        3.77821007       0.17855302      -0.97840750
H        4.28203804       1.30327232       0.30613193
H        3.01328669       1.78095594      -0.84915904
21
Frame=4 idx=007725 GeodesicLength=0.4219587433409711 rxn_smarts="[C:1]([C:2]([C:3]([C:4]([C:5]([O:6][C:7]([H:19])([H:20])[H:21])([H:17])[H:18])([H:15])[H:16])([H:13])[H:14])([H:11])[H:12])([H:8])([H:9])[H:10]>>[C:1]([H:8])([H:9])([H:10])[H:14].[C:2](=[C:3]([C:4]([C:5]([O:6][C:7]([H:19])([H:20])[H:21])([H:17])[H:18])([H:15])[H:16])[H:13])([H:11])[H:12]"
C       -2.80547418       0.60045284      -0.91753326
C       -2.16645898      -0.71296657       0.66363788
C       -0.85086022      -1.19958290       0.40457832
C        0.37565483      -0.60154402       1.02653432
C        1.35565012      -0.07361644      -0.00826870
O        2.50539912       0.41456658       0.63711821
C        3.44895189       0.93325452      -0.26015800
H       -3.88480782       0.59032493      -0.76544165
H       -2.60920361       0.26013843      -1.94057212
H       -2.42802449       1.61209365      -0.76590272
H       -2.30537816       0.01561346       1.45615831
H       -2.97699518      -1.42575125       0.57261939
H       -0.76376780      -2.13092618      -0.14347512
H       -1.54390597      -0.23576039      -0.49960958
H        0.89372226      -1.34692386       1.63884787
H        0.11040116       0.21758312       1.70203716
H        1.62966501      -0.87363980      -0.71476017
H        0.88162632       0.72706382      -0.59978505
H        3.78611860       0.17334625      -0.97944791
H        4.30731889       1.27379039       0.31907611
H        3.04036820       1.78248342      -0.82565330
21
Frame=5 idx=007725 GeodesicLength=0.5266001020175419 rxn_smarts="[C:1]([C:2]([C:3]([C:4]([C:5]([O:6][C:7]([H:19])([H:20])[H:21])([H:17])[H:18])([H:15])[H:16])([H:13])[H:14])([H:11])[H:12])([H:8])([H:9])[H:10]>>[C:1]([H:8])([H:9])([H:10])[H:14].[C:2](=[C:3]([C:4]([C:5]([O:6][C:7]([H:19])([H:20])[H:21])([H:17])[H:18])([H:15])[H:16])[H:13])([H:11])[H:12]"
C       -2.83732530       0.58462627      -0.92804681
C       -2.16630553      -0.70910461       0.67548851
C       -0.84966994      -1.17500089       0.38922258
C        0.37890657      -0.59380049       1.02321263
C        1.36416650      -0.06492747      -0.00581762
O        2.52049447       0.40200270       0.64374700
C        3.46785192       0.92155550      -0.24934333
H       -3.91512377       0.57719268      -0.76302465
H       -2.66296963       0.22568054      -1.94859383
H       -2.47096503       1.60487222      -0.80874122
H       -2.29826806       0.01339727       1.47529073
H       -2.96236011      -1.44163641       0.61264637
H       -0.76079124      -2.09986515      -0.17051931
H       -1.53699435      -0.19778467      -0.51951117
H        0.88771747      -1.35166420       1.62782536
H        0.11985347       0.22046015       1.70674751
H        1.62913723      -0.85900547      -0.72269598
H        0.89869398       0.74825241      -0.58708811
H        3.79361339       0.16813098      -0.98093721
H        4.33251409       1.24299154       0.33171990
H        3.06782388       1.78362710      -0.80158135
21
Frame=6 idx=007725 GeodesicLength=0.6310276471109648 rxn_smarts="[C:1]([C:2]([C:3]([C:4]([C:5]([O:6][C:7]([H:19])([H:20])[H:21])([H:17])[H:18])([H:15])[H:16])([H:13])[H:14])([H:11])[H:12])([H:8])([H:9])[H:10]>>[C:1]([H:8])([H:9])([H:10])[H:14].[C:2](=[C:3]([C:4]([C:5]([O:6][C:7]([H:19])([H:20])[H:21])([H:17])[H:18])([H:15])[H:16])[H:13])([H:11])[H:12]"
C       -2.86808970       0.56809005      -0.93836153
C       -2.16644975      -0.70529929       0.68822122
C       -0.84924996      -1.14878702       0.37382644
C        0.38176616      -0.58572655       1.01970385
C        1.37229118      -0.05585132      -0.00346315
O        2.53528205       0.38882192       0.65001810
C        3.48649887       0.90928371      -0.23876554
H       -3.94456608       0.56197868      -0.76278556
H       -2.71304337       0.19073458      -1.95526186
H       -2.51555591       1.59663962      -0.85080010
H       -2.29126099       0.01086593       1.49539936
H       -2.94607055      -1.45776363       0.65282594
H       -0.75879972      -2.06726266      -0.19724324
H       -1.53002660      -0.15739698      -0.53983160
H        0.88099927      -1.35645502       1.61588656
H        0.12935773       0.22326041       1.71173341
H        1.62778060      -0.84344643      -0.73115292
H        0.91575728       0.77013678      -0.57376724
H        3.80048428       0.16295957      -0.98299744
H        4.35742400       1.21086372       0.34384460
H        3.09547123       1.78435393      -0.77702931
21
Frame=7 idx=007725 GeodesicLength=0.7352656080513785 rxn_smarts="[C:1]([C:2]([C:3]([C:4]([C:5]([O:6][C:7]([H:19])([H:20])[H:21])([H:17])[H:18])([H:15])[H:16])([H:13])[H:14])([H:11])[H:12])([H:8])([H:9])[H:10]>>[C:1]([H:8])([H:9])([H:10])[H:14].[C:2](=[C:3]([C:4]([C:5]([O:6][C:7]([H:19])([H:20])[H:21])([H:17])[H:18])([H:15])[H:16])[H:13])([H:11])[H:12]"
C       -2.89735704       0.55100839      -0.94840253
C       -2.16694765      -0.70178870       0.70191291
C       -0.84968774      -1.12094457       0.35854266
C        0.38412066      -0.57723972       1.01605408
C        1.37990324      -0.04639014      -0.00120699
O        2.54959182       0.37513075       0.65585898
C        3.50472542       0.89646417      -0.22853794
H       -3.97281399       0.54494179      -0.76461132
H       -2.75908983       0.15562053      -1.96074326
H       -2.56107641       1.58739460      -0.89182988
H       -2.28449484       0.00767475       1.51663029
H       -2.92810884      -1.47438140       0.69286408
H       -0.75777034      -2.03319399      -0.22339780
H       -1.52301673      -0.11482823      -0.56073502
H        0.87346692      -1.36109931       1.60314842
H        0.13875879       0.22610779       1.71693782
H        1.62551281      -0.82700475      -0.74002920
H        0.93269315       0.79260651      -0.55989984
H        3.80661331       0.15780578      -0.98562416
H        4.38184246       1.17754001       0.35529105
H        3.12313483       1.78457574      -0.75222233
21
Frame=8 idx=007725 GeodesicLength=0.8393777314717741 rxn_smarts="[C:1]([C:2]([C:3]([C:4]([C:5]([O:6][C:7]([H:19])([H:20])[H:21])([H:17])[H:18])([H:15])[H:16])([H:13])[H:14])([H:11])[H:12])([H:8])([H:9])[H:10]>>[C:1]([H:8])([H:9])([H:10])[H:14].[C:2](=[C:3]([C:4]([C:5]([O:6][C:7]([H:19])([H:20])[H:21])([H:17])[H:18])([H:15])[H:16])[H:13])([H:11])[H:12]"
C       -2.92469254       0.53358592      -0.95815358
C       -2.16781161      -0.69885156       0.71665160
C       -0.85106151      -1.09150621       0.34356837
C        0.38586402      -0.56825138       1.01234420
C        1.38686990      -0.03653922       0.00096981
O        2.56324436       0.36103768       0.66120045
C        3.52232841       0.88313149      -0.21878905
H       -3.99950425       0.52646206      -0.76835544
H       -2.80089446       0.12069139      -1.96524643
H       -2.60666928       1.57718755      -0.93166613
H       -2.27807151       0.00341517       1.53916976
H       -2.90846153      -1.49179266       0.73242265
H       -0.75764588      -1.99779815      -0.24865486
H       -1.51596620      -0.07041241      -0.58246280
H        0.86504811      -1.36537514       1.58978571
H        0.14789143       0.22914567       1.72231971
H        1.62222855      -0.80971915      -0.74920083
H        0.94934980       0.81555820      -0.54554810
H        3.81181361       0.15267465      -0.98886070
H        4.40553444       1.14311857       0.36586295
H        3.15060614       1.78423753      -0.72735730
21
Frame=9 idx=007725 GeodesicLength=0.9437396593613552 rxn_smarts="[C:1]([C:2]([C:3]([C:4]([C:5]([O:6][C:7]([H:19])([H:20])[H:21])([H:17])[H:18])([H:15])[H:16])([H:13])[H:14])([H:11])[H:12])([H:8])([H:9])[H:10]>>[C:1]([H:8])([H:9])([H:10])[H:14].[C:2](=[C:3]([C:4]([C:5]([O:6][C:7]([H:19])([H:20])[H:21])([H:17])[H:18])([H:15])[H:16])[H:13])([H:11])[H:12]"
C       -2.94994633       0.51584346      -0.96741026
C       -2.16908988      -0.69692694       0.73221138
C       -0.85344067      -1.06045172       0.32874257
C        0.38683444      -0.55862964       1.00852204
C        1.39315114      -0.02622499       0.00308707
O        2.57609273       0.34673138       0.66613910
C        3.53929749       0.86935381      -0.20936934
H       -4.02414185       0.50812134      -0.77234205
H       -2.84052021       0.08520137      -1.96857472
H       -2.65096693       1.56567604      -0.97117879
H       -2.27200651      -0.00237089       1.56271329
H       -2.88703541      -1.51010428       0.77125494
H       -0.75821515      -1.96107490      -0.27308141
H       -1.50833520      -0.02475337      -0.60585288
H        0.85555636      -1.36905925       1.57587388
H        0.15645495       0.23257641       1.72772065
H        1.61800242      -0.79154763      -0.75856896
H        0.96576598       0.83901043      -0.53078107
H        3.81621654       0.14752225      -0.99240051
H        4.42840487       1.10781378       0.37577385
H        3.17792122       1.78329334      -0.70247878
21
Frame=10 idx=007725 GeodesicLength=1.0477247164980459 rxn_smarts="[C:1]([C:2]([C:3]([C:4]([C:5]([O:6][C:7]([H:19])([H:20])[H:21])([H:17])[H:18])([H:15])[H:16])([H:13])[H:14])([H:11])[H:12])([H:8])([H:9])[H:10]>>[C:1]([H:8])([H:9])([H:10])[H:14].[C:2](=[C:3]([C:4]([C:5]([O:6][C:7]([H:19])([H:20])[H:21])([H:17])[H:18])([H:15])[H:16])[H:13])([H:11])[H:12]"
C       -2.97230101       0.49833959      -0.97628378
C       -2.17076387      -0.69627711       0.74885695
C       -0.85691509      -1.02808025       0.31466510
C        0.38694222      -0.54835213       1.00483619
C        1.39847870      -0.01555498       0.00516770
O        2.58786679       0.33236776       0.67047488
C        3.55516526       0.85525321      -0.20068886
H       -4.04626320       0.48988855      -0.77757206
H       -2.87593279       0.05046948      -1.97115697
H       -2.69311736       1.55341548      -1.00939614
H       -2.26652091      -0.01024424       1.58778675
H       -2.86391565      -1.52984731       0.80890249
H       -0.75949500      -1.92349031      -0.29590846
H       -1.50046819       0.02151960      -0.63083518
H        0.84504754      -1.37188807       1.56182858
H        0.16431503       0.23654625       1.73318251
H        1.61257811      -0.77273798      -0.76791979
H        0.98149656       0.86262650      -0.51575508
H        3.81932267       0.14242345      -0.99657178
H        4.45000477       1.07187934       0.38444882
H        3.20447543       1.78174315      -0.67806187
21
Frame=11 idx=007725 GeodesicLength=1.1511810583940965 rxn_smarts="[C:1]([C:2]([C:3]([C:4]([C:5]([O:6][C:7]([H:19])([H:20])[H:21])([H:17])[H:18])([H:15])[H:16])([H:13])[H:14])([H:11])[H:12])([H:8])([H:9])[H:10]>>[C:1]([H:8])([H:9])([H:10])[H:14].[C:2](=[C:3]([C:4]([C:5]([O:6][C:7]([H:19])([H:20])[H:21])([H:17])[H:18])([H:15])[H:16])[H:13])([H:11])[H:12]"
C       -2.99132810       0.48147078      -0.98470697
C       -2.17285327      -0.69730923       0.76655237
C       -0.86154198      -0.99465777       0.30157514
C        0.38606027      -0.53735826       1.00139712
C        1.40270467      -0.00458042       0.00723158
O        2.59835120       0.31819760       0.67418075
C        3.56968678       0.84098736      -0.19286755
H       -4.06535111       0.47285150      -0.78357372
H       -2.90743880       0.01683125      -1.97300302
H       -2.73183965       1.54060937      -1.04637757
H       -2.26172081      -0.02082073       1.61445577
H       -2.83915400      -1.55138689       0.84498426
H       -0.76134549      -1.88540947      -0.31675917
H       -1.49213383       0.06752176      -0.65792849
H        0.83347548      -1.37359653       1.54798116
H        0.17122398       0.24126362       1.73861331
H        1.60591218      -0.75348719      -0.77705190
H        0.99631575       0.88617513      -0.50066951
H        3.82099791       0.13738123      -1.00131341
H        4.47004730       1.03573176       0.39174309
H        3.22993152       1.77958514      -0.65446323
21
Frame=12 idx=007725 GeodesicLength=1.2540597899332628 rxn_smarts="[C:1]([C:2]([C:3]([C:4]([C:5]([O:6][C:7]([H:19])([H:20])[H:21])([H:17])[H:18])([H:15])[H:16])([H:13])[H:14])([H:11])[H:12])([H:8])([H:9])[H:10]>>[C:1]([H:8])([H:9])([H:10])[H:14].[C:2](=[C:3]([C:4]([C:5]([O:6][C:7]([H:19])([H:20])[H:21])([H:17])[H:18])([H:15])[H:16])[H:13])([H:11])[H:12]"
C       -3.00669309       0.46564955      -0.99264732
C       -2.17532447      -0.70043445       0.78525166
C       -0.86736204      -0.96046934       0.28969945
C        0.38408379      -0.52557876       0.99833054
C        1.40569841       0.00665400       0.00930950
O        2.60736199       0.30444928       0.67726099
C        3.58263540       0.82671482      -0.18600249
H       -4.08097121       0.45811669      -0.78988384
H       -2.93550066      -0.01540818      -1.97408657
H       -2.76597807       1.52754296      -1.08228711
H       -2.25761955      -0.03471110       1.64278336
H       -2.81276419      -1.57508304       0.87919975
H       -0.76359987      -1.84722561      -0.33527770
H       -1.48305464       0.11229359      -0.68779070
H        0.82082872      -1.37392615       1.53470727
H        0.17694825       0.24696151       1.74393345
H        1.59796444      -0.73399935      -0.78576535
H        1.01000635       0.90945637      -0.48572018
H        3.82107897       0.13242197      -1.00659823
H        4.48827920       0.99970103       0.39754173
H        3.25398225       1.77687419      -0.63195820
21
Frame=13 idx=007725 GeodesicLength=1.3564224226241348 rxn_smarts="[C:1]([C:2]([C:3]([C:4]([C:5]([O:6][C:7]([H:19])([H:20])[H:21])([H:17])[H:18])([H:15])[H:16])([H:13])[H:14])([H:11])[H:12])([H:8])([H:9])[H:10]>>[C:1]([H:8])([H:9])([H:10])[H:14].[C:2](=[C:3]([C:4]([C:5]([O:6][C:7]([H:19])([H:20])[H:21])([H:17])[H:18])([H:15])[H:16])[H:13])([H:11])[H:12]"
C       -3.01822263       0.45126006      -1.00006252
C       -2.17811844      -0.70603635       0.80488350
C       -0.87441283      -0.92579775       0.27920291
C        0.38093532      -0.51295720       0.99574334
C        1.40737083       0.01811397       0.01143903
O        2.61475683       0.29136540       0.67975938
C        3.59385011       0.81258823      -0.18012584
H       -4.09280477       0.44690799      -0.79588766
H       -2.96091746      -0.04610280      -1.97427102
H       -2.79452577       1.51451398      -1.11741332
H       -2.25418361      -0.05247109       1.67276280
H       -2.78472835      -1.60127887       0.91129095
H       -0.76609485      -1.80928444      -0.35121845
H       -1.47285877       0.15478264      -0.72126959
H        0.80711999      -1.37265764       1.52234757
H        0.18128931       0.25386510       1.74906765
H        1.58873746      -0.71446569      -0.79387186
H        1.02240605       0.93230517      -0.47108906
H        3.81950279       0.12752885      -1.01230287
H        4.50450819       0.96416588       0.40183037
H        3.27639062       1.77365456      -0.61081532
21
Frame=14 idx=007725 GeodesicLength=1.4581049019612184 rxn_smarts="[C:1]([C:2]([C:3]([C:4]([C:5]([O:6][C:7]([H:19])([H:20])[H:21])([H:17])[H:18])([H:15])[H:16])([H:13])[H:14])([H:11])[H:12])([H:8])([H:9])[H:10]>>[C:1]([H:8])([H:9])([H:10])[H:14].[C:2](=[C:3]([C:4]([C:5]([O:6][C:7]([H:19])([H:20])[H:21])([H:17])[H:18])([H:15])[H:16])[H:13])([H:11])[H:12]"
C       -3.02567778       0.43871269      -1.00691611
C       -2.18117759      -0.71445527       0.82535893
C       -0.88273526      -0.89096724       0.27023281
C        0.37653757      -0.49948293       0.99374432
C        1.40761021       0.02974278       0.01365235
O        2.62038609       0.27917030       0.68172358
C        3.60312922       0.79880184      -0.17527891
H       -4.10047053       0.44044107      -0.80105635
H       -2.98432986      -0.07502855      -1.97336651
H       -2.81647931       1.50179283      -1.15206533
H       -2.25131092      -0.07458348       1.70434043
H       -2.75505527      -1.63022286       0.94107603
H       -0.76870114      -1.77200516      -0.36432795
H       -1.46117736       0.19381583      -0.75911040
H        0.79238903      -1.36963631       1.51124634
H        0.18405095       0.26214879       1.75396723
H        1.57821122      -0.69510489      -0.80120349
H        1.03329225       0.95455185      -0.45696573
H        3.81614410       0.12275137      -1.01837069
H        4.51851994       0.92951454       0.40458491
H        3.29684445       1.77004279      -0.59126546
21
Frame=15 idx=007725 GeodesicLength=1.5591134583230246 rxn_smarts="[C:1]([C:2]([C:3]([C:4]([C:5]([O:6][C:7]([H:19])([H:20])[H:21])([H:17])[H:18])([H:15])[H:16])([H:13])[H:14])([H:11])[H:12])([H:8])([H:9])[H:10]>>[C:1]([H:8])([H:9])([H:10])[H:14].[C:2](=[C:3]([C:4]([C:5]([O:6][C:7]([H:19])([H:20])[H:21])([H:17])[H:18])([H:15])[H:16])[H:13])([H:11])[H:12]"
C       -3.02889693       0.42841999      -1.01312230
C       -2.18443279      -0.72606737       0.84654465
C       -0.89237252      -0.85632423       0.26286654
C        0.37081191      -0.48514034       0.99240858
C        1.40632994       0.04148468       0.01597693
O        2.62409618       0.26817511       0.68323368
C        3.61030806       0.78556146      -0.17145806
H       -4.10359556       0.44011257      -0.80466689
H       -3.00665409      -0.10198039      -1.97107150
H       -2.83085457       1.48964412      -1.18654026
H       -2.24888727      -0.10156738       1.73741256
H       -2.72375773      -1.66216513       0.96831821
H       -0.77127815      -1.73579677      -0.37445127
H       -1.44757352       0.22806736      -0.80221265
H        0.77667236      -1.36470056       1.50173446
H        0.18502006       0.27201072       1.75854019
H        1.56643577      -0.67616812      -0.80756004
H        1.04247142       0.97599673      -0.44359203
H        3.81101093       0.11803943      -1.02456161
H        4.53008876       0.89631574       0.40587072
H        3.31505775       1.76608238      -0.57366993
21
Frame=16 idx=007725 GeodesicLength=1.6600348611785338 rxn_smarts="[C:1]([C:2]([C:3]([C:4]([C:5]([O:6][C:7]([H:19])([H:20])[H:21])([H:17])[H:18])([H:15])[H:16])([H:13])[H:14])([H:11])[H:12])([H:8])([H:9])[H:10]>>[C:1]([H:8])([H:9])([H:10])[H:14].[C:2](=[C:3]([C:4]([C:5]([O:6][C:7]([H:19])([H:20])[H:21])([H:17])[H:18])([H:15])[H:16])[H:13])([H:11])[H:12]"
C       -3.02806390       0.42073092      -1.01864644
C       -2.18770711      -0.74114571       0.86828867
C       -0.90335140      -0.82213863       0.25711233
C        0.36374040      -0.46991188       0.99181133
C        1.40352523       0.05330239       0.01846424
O        2.62586766       0.25852603       0.68444756
C        3.61534274       0.77301720      -0.16854682
H       -4.10221396       0.44716567      -0.80599327
H       -3.02917892      -0.12702210      -1.96699681
H       -2.83732643       1.47840549      -1.22134253
H       -2.24662275      -0.13373518       1.77176178
H       -2.69062291      -1.69726850       0.99298412
H       -0.77368053      -1.70095438      -0.38155655
H       -1.43136614       0.25624716      -0.85183543
H        0.76005003      -1.35776177       1.49412358
H        0.18407673       0.28364951       1.76275812
H        1.55347641      -0.65785283      -0.81281935
H        1.04985420       0.99657923      -0.43112020
H        3.80410749       0.11341989      -1.03075613
H        4.53918101       0.86479810       0.40589245
H        3.33091214       1.76194941      -0.55803064
