14
Frame=0 idx=002044 GeodesicLength=0.0 rxn_smarts="[C:1]1([H:7])([H:8])[C:2]([H:9])([H:10])[O:3][C:4]([H:11])([H:12])[O:5][C:6]1([H:13])[H:14]>>[C:1](=[C:2]([H:9])[H:10])([C:6]([O:5][C:4]([O:3][H:7])([H:11])[H:12])([H:13])[H:14])[H:8]"
C        1.03115492       0.69084903       0.01632677
C        1.19487833      -0.64682650      -0.39402828
O       -0.01412227      -1.21756455       0.91519820
C       -1.26937162      -0.78035326       0.43643655
O       -1.36142482       0.61903648       0.38292770
C       -0.32006532       1.26600084      -0.35387427
H        0.55451987      -0.12815841       1.08424561
H        1.88150028       1.32016600       0.23726210
H        0.62161526      -1.09258366      -1.20607723
H        2.11111271      -1.17602551      -0.15592068
H       -2.05643090      -1.10772685       1.11773125
H       -1.44490667      -1.22593101      -0.55524227
H       -0.40023322       2.32060864      -0.09561840
H       -0.52822654       1.15850877      -1.42936708
14
Frame=1 idx=002044 GeodesicLength=0.07222496136320061 rxn_smarts="[C:1]1([H:7])([H:8])[C:2]([H:9])([H:10])[O:3][C:4]([H:11])([H:12])[O:5][C:6]1([H:13])[H:14]>>[C:1](=[C:2]([H:9])[H:10])([C:6]([O:5][C:4]([O:3][H:7])([H:11])[H:12])([H:13])[H:14])[H:8]"
C        1.03177404       0.68846463       0.02137563
C        1.20262016      -0.64709490      -0.39667188
O       -0.02421112      -1.22396954       0.91145692
C       -1.27802632      -0.77829175       0.43788459
O       -1.36221171       0.62149833       0.38839268
C       -0.31971653       1.26135865      -0.35196561
H        0.55706181      -0.13183366       1.10762866
H        1.88041799       1.32460118       0.22978619
H        0.64126779      -1.08448173      -1.22152627
H        2.12332920      -1.17039215      -0.16251697
H       -2.06445916      -1.10307217       1.12109503
H       -1.45877325      -1.21775913      -0.55549020
H       -0.39850348       2.31859060      -0.10386440
H       -0.53056941       1.14238164      -1.42558437
14
Frame=2 idx=002044 GeodesicLength=0.144450293990331 rxn_smarts="[C:1]1([H:7])([H:8])[C:2]([H:9])([H:10])[O:3][C:4]([H:11])([H:12])[O:5][C:6]1([H:13])[H:14]>>[C:1](=[C:2]([H:9])[H:10])([C:6]([O:5][C:4]([O:3][H:7])([H:11])[H:12])([H:13])[H:14])[H:8]"
C        1.03239241       0.68590386       0.02648178
C        1.21045440      -0.64738266      -0.39955049
O       -0.03437678      -1.23020962       0.90757902
C       -1.28682638      -0.77617982       0.43944541
O       -1.36304199       0.62395363       0.39366478
C       -0.31932145       1.25657746      -0.35015421
H        0.55936128      -0.13568174       1.13128508
H        1.87908816       1.32881056       0.22262268
H        0.66147513      -1.07592734      -1.23729804
H        2.13572072      -1.16452399      -0.16936130
H       -2.07244535      -1.09819621       1.12484869
H       -1.47300977      -1.20963972      -0.55546917
H       -0.39669887       2.31635455      -0.11230650
H       -0.53277151       1.12614105      -1.42178773
14
Frame=3 idx=002044 GeodesicLength=0.21667691497233288 rxn_smarts="[C:1]1([H:7])([H:8])[C:2]([H:9])([H:10])[O:3][C:4]([H:11])([H:12])[O:5][C:6]1([H:13])[H:14]>>[C:1](=[C:2]([H:9])[H:10])([C:6]([O:5][C:4]([O:3][H:7])([H:11])[H:12])([H:13])[H:14])[H:8]"
C        1.03300969       0.68315632       0.03163080
C        1.21838091      -0.64769391      -0.40267648
O       -0.04462110      -1.23628501       0.90356958
C       -1.29577263      -0.77401506       0.44112486
O       -1.36391364       0.62640569       0.39874599
C       -0.31888002       1.25165034      -0.34844714
H        0.56140419      -0.13969808       1.15522646
H        1.87751263       1.33278111       0.21579739
H        0.68226011      -1.06688634      -1.25340266
H        2.14828351      -1.15841585      -0.17645694
H       -2.08038428      -1.09309666       1.12899944
H       -1.48762382      -1.20156824      -0.55517179
H       -0.39481113       2.31389297      -0.12095821
H       -0.53484443       1.10977271      -1.41798130
14
Frame=4 idx=002044 GeodesicLength=0.2889049946945649 rxn_smarts="[C:1]1([H:7])([H:8])[C:2]([H:9])([H:10])[O:3][C:4]([H:11])([H:12])[O:5][C:6]1([H:13])[H:14]>>[C:1](=[C:2]([H:9])[H:10])([C:6]([O:5][C:4]([O:3][H:7])([H:11])[H:12])([H:13])[H:14])[H:8]"
C        1.03362541       0.68021115       0.03680842
C        1.22639938      -0.64803342      -0.40606087
O       -0.05494679      -1.24219615       0.89943478
C       -1.30486602      -0.77179501       0.44292880
O       -1.36482456       0.62885779       0.40363784
C       -0.31839254       1.24656992      -0.34685108
H        0.56317520      -0.14387875       1.17946591
H        1.87569452       1.33650034       0.20933473
H        0.70364635      -1.05732078      -1.26985031
H        2.16101207      -1.15206214      -0.18380963
H       -2.08827047      -1.08777056       1.13355395
H       -1.50262220      -1.19354043      -0.55458969
H       -0.39283216       2.31119755      -0.12983345
H       -0.53679819       1.09326050      -1.41416939
14
Frame=5 idx=002044 GeodesicLength=0.36113725806122887 rxn_smarts="[C:1]1([H:7])([H:8])[C:2]([H:9])([H:10])[O:3][C:4]([H:11])([H:12])[O:5][C:6]1([H:13])[H:14]>>[C:1](=[C:2]([H:9])[H:10])([C:6]([O:5][C:4]([O:3][H:7])([H:11])[H:12])([H:13])[H:14])[H:8]"
C        1.03423854       0.67705694       0.04199976
C        1.23450889      -0.64840567      -0.40971862
O       -0.06535684      -1.24794612       0.89517946
C       -1.31410703      -0.76951755       0.44486306
O       -1.36577258       0.63131234       0.40834281
C       -0.31786017       1.24132908      -0.34537209
H        0.56465969      -0.14821693       1.20401558
H        1.87364043       1.33995672       0.20325379
H        0.72566083      -1.04719105      -1.28664692
H        2.17389887      -1.14546100      -0.19141938
H       -2.09609929      -1.08221575       1.13851785
H       -1.51801112      -1.18555079      -0.55371564
H       -0.39075475       2.30825980      -0.13894513
H       -0.53864546       1.07658998      -1.41035454
14
Frame=6 idx=002044 GeodesicLength=0.433375605594805 rxn_smarts="[C:1]1([H:7])([H:8])[C:2]([H:9])([H:10])[O:3][C:4]([H:11])([H:12])[O:5][C:6]1([H:13])[H:14]>>[C:1](=[C:2]([H:9])[H:10])([C:6]([O:5][C:4]([O:3][H:7])([H:11])[H:12])([H:13])[H:14])[H:8]"
C        1.03484816       0.67368095       0.04718974
C        1.24270818      -0.64881612      -0.41366362
O       -0.07585497      -1.25353607       0.89081008
C       -1.32349712      -0.76718023       0.44693418
O       -1.36675557       0.63377209       0.41286281
C       -0.31728332       1.23591931      -0.34401700
H        0.56584133      -0.15270873       1.22889080
H        1.87135613       1.34313716       0.19757245
H        0.74833226      -1.03644855      -1.30380134
H        2.18693613      -1.13860942      -0.19928727
H       -2.10386543      -1.07642941       1.14389755
H       -1.53379715      -1.17759420      -0.55254116
H       -0.38857056       2.30506988      -0.14830746
H       -0.54039807       1.05974333      -1.40653976
14
Frame=7 idx=002044 GeodesicLength=0.5056254410715284 rxn_smarts="[C:1]1([H:7])([H:8])[C:2]([H:9])([H:10])[O:3][C:4]([H:11])([H:12])[O:5][C:6]1([H:13])[H:14]>>[C:1](=[C:2]([H:9])[H:10])([C:6]([O:5][C:4]([O:3][H:7])([H:11])[H:12])([H:13])[H:14])[H:8]"
C        1.03545273       0.67007042       0.05236222
C        1.25099507      -0.64926985      -0.41791259
O       -0.08644635      -1.25897108       0.88633193
C       -1.33303706      -0.76478128       0.44914797
O       -1.36777064       0.63623864       0.41720052
C       -0.31666382       1.23033256      -0.34279184
H        0.56670647      -0.15734684       1.25410544
H        1.86884999       1.34602999       0.19230097
H        0.77169236      -1.02504317      -1.32131798
H        2.20011386      -1.13150925      -0.20740804
H       -2.11156441      -1.07040848       1.14969711
H       -1.54998557      -1.16966400      -0.55105765
H       -0.38627392       2.30161748      -0.15793162
H       -0.54206871       1.04270486      -1.40272644
14
Frame=8 idx=002044 GeodesicLength=0.5778880922683161 rxn_smarts="[C:1]1([H:7])([H:8])[C:2]([H:9])([H:10])[O:3][C:4]([H:11])([H:12])[O:5][C:6]1([H:13])[H:14]>>[C:1](=[C:2]([H:9])[H:10])([C:6]([O:5][C:4]([O:3][H:7])([H:11])[H:12])([H:13])[H:14])[H:8]"
C        1.03605093       0.66621036       0.05750248
C        1.25936734      -0.64977222      -0.42248512
O       -0.09713474      -1.26425349       0.88175213
C       -1.34272768      -0.76231865       0.45151104
O       -1.36881539       0.63871368       0.42135700
C       -0.31600242       1.22455957      -0.34170316
H        0.56723579      -0.16212358       1.27967561
H        1.86612978       1.34862157       0.18745225
H        0.79577282      -1.01291763      -1.33920063
H        2.21342008      -1.12416158      -0.21578074
H       -2.11919053      -1.06414992       1.15592218
H       -1.56658049      -1.16175583      -0.54925556
H       -0.38385602       2.29789111      -0.16783148
H       -0.54366945       1.02545661      -1.39891600
14
Frame=9 idx=002044 GeodesicLength=0.6501697421348928 rxn_smarts="[C:1]1([H:7])([H:8])[C:2]([H:9])([H:10])[O:3][C:4]([H:11])([H:12])[O:5][C:6]1([H:13])[H:14]>>[C:1](=[C:2]([H:9])[H:10])([C:6]([O:5][C:4]([O:3][H:7])([H:11])[H:12])([H:13])[H:14])[H:8]"
C        1.03664259       0.66208809       0.06258982
C        1.26782430      -0.65032565      -0.42741169
O       -0.10792412      -1.26938770       0.87707761
C       -1.35256555      -0.75979153       0.45403030
O       -1.36988532       0.64119623       0.42533362
C       -0.31530162       1.21859283      -0.34075669
H        0.56741873      -0.16703005       1.30561379
H        1.86320386       1.35090075       0.18303248
H        0.82060358      -1.00001070      -1.35744092
H        2.22683381      -1.11658068      -0.22438996
H       -2.12673884      -1.05765126       1.16257404
H       -1.58358302      -1.15386169      -0.54712719
H       -0.38131601       2.29387918      -0.17801481
H       -0.54521239       1.00798218      -1.39511040
14
Frame=10 idx=002044 GeodesicLength=0.722461189835112 rxn_smarts="[C:1]1([H:7])([H:8])[C:2]([H:9])([H:10])[O:3][C:4]([H:11])([H:12])[O:5][C:6]1([H:13])[H:14]>>[C:1](=[C:2]([H:9])[H:10])([C:6]([O:5][C:4]([O:3][H:7])([H:11])[H:12])([H:13])[H:14])[H:8]"
C        1.03722473       0.65768825       0.06761164
C        1.27636078      -0.65093483      -0.43270670
O       -0.11881945      -1.27437645       0.87231434
C       -1.36255384      -0.75719666       0.45671149
O       -1.37097875       0.64368933       0.42913237
C       -0.31456263       1.21242243      -0.33995925
H        0.56723551      -0.17206385       1.33193726
H        1.86008115       1.35285348       0.17904693
H        0.84622288      -0.98626253      -1.37604261
H        2.24034422      -1.10876631      -0.23323543
H       -2.13420240      -1.05090896       1.16965844
H       -1.60099798      -1.14597719      -0.54466215
H       -0.37864260       2.28956967      -0.18849781
H       -0.54671161       0.99026362      -1.39130854
14
Frame=11 idx=002044 GeodesicLength=0.7947618453993126 rxn_smarts="[C:1]1([H:7])([H:8])[C:2]([H:9])([H:10])[O:3][C:4]([H:11])([H:12])[O:5][C:6]1([H:13])[H:14]>>[C:1](=[C:2]([H:9])[H:10])([C:6]([O:5][C:4]([O:3][H:7])([H:11])[H:12])([H:13])[H:14])[H:8]"
C        1.03779617       0.65299647       0.07255003
C        1.28497396      -0.65160256      -0.43839647
O       -0.12982513      -1.27922476       0.86746822
C       -1.37269133      -0.75453248       0.45956037
O       -1.37209141       0.64619302       0.43275470
C       -0.31378739       1.20603919      -0.33931778
H        0.56667117      -0.17721645       1.35866137
H        1.85677017       1.35446738       0.17549884
H        0.87266570      -0.97160833      -1.39499668
H        2.25392951      -1.10072979      -0.24230779
H       -2.14157397      -1.04392000       1.17717777
H       -1.61882650      -1.13809526      -0.54185103
H       -0.37583060       2.28494958      -0.19929213
H       -0.54818034       0.97228399      -1.38750941
14
Frame=12 idx=002044 GeodesicLength=0.8670716799968681 rxn_smarts="[C:1]1([H:7])([H:8])[C:2]([H:9])([H:10])[O:3][C:4]([H:11])([H:12])[O:5][C:6]1([H:13])[H:14]>>[C:1](=[C:2]([H:9])[H:10])([C:6]([O:5][C:4]([O:3][H:7])([H:11])[H:12])([H:13])[H:14])[H:8]"
C        1.03835567       0.64799760       0.07738654
C        1.29365984      -0.65232970      -0.44451227
O       -0.14094497      -1.28393794       0.86254411
C       -1.38297652      -0.75179700       0.46258338
O       -1.37321922       0.64870759       0.43620241
C       -0.31297829       1.19943398      -0.33883836
H        0.56571074      -0.18248061       1.38580296
H        1.85327977       1.35572919       0.17238769
H        0.89996939      -0.95597480      -1.41428820
H        2.26756603      -1.09248716      -0.25159408
H       -2.14884494      -1.03668227       1.18513462
H       -1.63707065      -1.13020868      -0.53868489
H       -0.37287427       2.28000557      -0.21041064
H       -0.54963258       0.95402421      -1.38371327
14
Frame=13 idx=002044 GeodesicLength=0.9393827365448457 rxn_smarts="[C:1]1([H:7])([H:8])[C:2]([H:9])([H:10])[O:3][C:4]([H:11])([H:12])[O:5][C:6]1([H:13])[H:14]>>[C:1](=[C:2]([H:9])[H:10])([C:6]([O:5][C:4]([O:3][H:7])([H:11])[H:12])([H:13])[H:14])[H:8]"
C        1.03890210       0.64267697       0.08210370
C        1.30241561      -0.65311519      -0.45108627
O       -0.15218210      -1.28851985       0.85754953
C       -1.39340649      -0.74898905       0.46578593
O       -1.37435748       0.65123174       0.43947472
C       -0.31213747       1.19259772      -0.33852825
H        0.56433917      -0.18784623       1.41337647
H        1.84961813       1.35662745       0.16971302
H        0.92816329      -0.93929163      -1.43390036
H        2.28122808      -1.08405918      -0.26108256
H       -2.15600691      -1.02919198       1.19352880
H       -1.65572647      -1.12231266      -0.53515314
H       -0.36977007       2.27472390      -0.22186309
H       -0.55107939       0.93546799      -1.37991850
14
Frame=14 idx=002044 GeodesicLength=1.0116999439187648 rxn_smarts="[C:1]1([H:7])([H:8])[C:2]([H:9])([H:10])[O:3][C:4]([H:11])([H:12])[O:5][C:6]1([H:13])[H:14]>>[C:1](=[C:2]([H:9])[H:10])([C:6]([O:5][C:4]([O:3][H:7])([H:11])[H:12])([H:13])[H:14])[H:8]"
C        1.03943380       0.63701701       0.08668010
C        1.31123523      -0.65395689      -0.45816194
O       -0.16353988      -1.29297706       0.85248872
C       -1.40397827      -0.74610715       0.46917441
O       -1.37550165       0.65376460       0.44257254
C       -0.31126790       1.18552044      -0.33839485
H        0.56254119      -0.19330232       1.44140086
H        1.84579396       1.35714590       0.16746658
H        0.95728854      -0.92147224      -1.45380485
H        2.29488737      -1.07547195      -0.27075283
H       -2.16304891      -1.02144766       1.20236315
H       -1.67479480      -1.11439854      -0.53124684
H       -0.36651350       2.26908939      -0.23366039
H       -0.55253518       0.91659647      -1.37612466
14
Frame=15 idx=002044 GeodesicLength=1.084015167351875 rxn_smarts="[C:1]1([H:7])([H:8])[C:2]([H:9])([H:10])[O:3][C:4]([H:11])([H:12])[O:5][C:6]1([H:13])[H:14]>>[C:1](=[C:2]([H:9])[H:10])([C:6]([O:5][C:4]([O:3][H:7])([H:11])[H:12])([H:13])[H:14])[H:8]"
C        1.03994989       0.63100270       0.09109438
C        1.32011492      -0.65484889      -0.46578231
O       -0.17502048      -1.29731459       0.84736681
C       -1.41468709      -0.74314989       0.47275372
O       -1.37664591       0.65630450       0.44549581
C       -0.31037276       1.17819331      -0.33844572
H        0.56030491      -0.19884073       1.46989054
H        1.84181524       1.35727289       0.16564070
H        0.98737710      -0.90243461      -1.47396433
H        2.30851057      -1.06675819      -0.28058631
H       -2.16996011      -1.01344695       1.21163651
H       -1.69427044      -1.10645951      -0.52695654
H       -0.36310263       2.26308756      -0.24581294
H       -0.55401322       0.89739240      -1.37233032
14
Frame=16 idx=002044 GeodesicLength=1.1563260091088061 rxn_smarts="[C:1]1([H:7])([H:8])[C:2]([H:9])([H:10])[O:3][C:4]([H:11])([H:12])[O:5][C:6]1([H:13])[H:14]>>[C:1](=[C:2]([H:9])[H:10])([C:6]([O:5][C:4]([O:3][H:7])([H:11])[H:12])([H:13])[H:14])[H:8]"
C        1.04044939       0.62461695       0.09532357
C        1.32904919      -0.65578344      -0.47399886
O       -0.18662449      -1.30153735       0.84218965
C       -1.42552681      -0.74011654       0.47652970
O       -1.37778454       0.65884900       0.44824227
C       -0.30945504       1.17060679      -0.33868946
H        0.55761456      -0.20445131       1.49886453
H        1.83768996       1.35699402       0.16422342
H        1.01846152      -0.88208654      -1.49433329
H        2.32206185      -1.05795612      -0.29056193
H       -2.17672695      -1.00518825       1.22134935
H       -1.71414820      -1.09848887      -0.52227337
H       -0.35953522       2.25670370      -0.25833009
H       -0.55552523       0.87783795      -1.36853547
