13
Frame=0 idx=001298 GeodesicLength=0.0 rxn_smarts="[N:1]([C:2](=[O:3])[C:4]([C:5]([O:6][H:13])([H:11])[H:12])([H:9])[H:10])([H:7])[H:8]>>[N:1]([C:2]([O:3][C:5]([O:6][H:13])([H:11])[H:12])=[C:4]([H:9])[H:10])([H:7])[H:8]"
N       -1.75505471      -0.93858279      -0.70100301
C       -0.68350071      -0.11443262      -0.49926947
O        0.44425379      -0.55047070      -0.93405610
C       -0.81124663       1.10468701       0.14809267
C        1.65680520       0.33194085       0.59770324
O        1.93094173      -0.87807129       0.96610859
H       -2.66700589      -0.66401756      -0.39135457
H       -1.57744287      -1.91182441      -0.86337873
H       -1.76442495       1.40817011       0.56464715
H       -0.15481155       1.90379830      -0.16989136
H        2.09778197       0.76474346      -0.28818564
H        1.33771234       0.97122781       1.40673530
H        1.94599230      -1.42716822       0.16385191
13
Frame=1 idx=001298 GeodesicLength=0.08767377129241749 rxn_smarts="[N:1]([C:2](=[O:3])[C:4]([C:5]([O:6][H:13])([H:11])[H:12])([H:9])[H:10])([H:7])[H:8]>>[N:1]([C:2]([O:3][C:5]([O:6][H:13])([H:11])[H:12])=[C:4]([H:9])[H:10])([H:7])[H:8]"
N       -1.72496928      -0.94958391      -0.66976346
C       -0.68367832      -0.07027468      -0.56971735
O        0.44842135      -0.48908758      -1.01145765
C       -0.80130229       1.12911655       0.11972219
C        1.60802424       0.31249915       0.60019885
O        1.85147878      -0.91282349       0.96453758
H       -2.61408891      -0.72185569      -0.26849358
H       -1.51843113      -1.91363443      -0.85189554
H       -1.75130361       1.42251361       0.55051926
H       -0.15371280       1.93786586      -0.19230078
H        2.11475703       0.75328490      -0.24657150
H        1.30758403       0.94889602       1.41948630
H        1.91722091      -1.44691630       0.15573567
13
Frame=2 idx=001298 GeodesicLength=0.17672377236483183 rxn_smarts="[N:1]([C:2](=[O:3])[C:4]([C:5]([O:6][H:13])([H:11])[H:12])([H:9])[H:10])([H:7])[H:8]>>[N:1]([C:2]([O:3][C:5]([O:6][H:13])([H:11])[H:12])=[C:4]([H:9])[H:10])([H:7])[H:8]"
N       -1.69358742      -0.95736867      -0.64276168
C       -0.68709086      -0.03289832      -0.62669511
O        0.44918405      -0.43237783      -1.07773427
C       -0.79281806       1.15072447       0.09616989
C        1.56055214       0.29536069       0.59849708
O        1.77579276      -0.94298429       0.96244282
H       -2.55034224      -0.77261336      -0.15722193
H       -1.46476454      -1.91175918      -0.84815707
H       -1.73906813       1.43487625       0.54125210
H       -0.15592707       1.96810017      -0.21569583
H        2.12607050       0.73717709      -0.21063591
H        1.28121772       0.93041858       1.42721462
H        1.89078116      -1.46665560       0.15332528
13
Frame=3 idx=001298 GeodesicLength=0.26657903287708695 rxn_smarts="[N:1]([C:2](=[O:3])[C:4]([C:5]([O:6][H:13])([H:11])[H:12])([H:9])[H:10])([H:7])[H:8]>>[N:1]([C:2]([O:3][C:5]([O:6][H:13])([H:11])[H:12])=[C:4]([H:9])[H:10])([H:7])[H:8]"
N       -1.66279149      -0.96257759      -0.62047867
C       -0.69263095      -0.00080178      -0.67368156
O        0.44733106      -0.37992842      -1.13544119
C       -0.78545343       1.16979810       0.07680202
C        1.51496030       0.28051126       0.59345196
O        1.70355566      -0.96893379       0.96074849
H       -2.47896993      -0.81740856      -0.05721606
H       -1.41683754      -1.90734848      -0.84984938
H       -1.72729050       1.44462434       0.53696354
H       -0.16111791       1.99542292      -0.23900552
H        2.13337845       0.71740505      -0.17993762
H        1.25894829       0.91564455       1.43066827
H        1.86691800      -1.48640759       0.15697571
13
Frame=4 idx=001298 GeodesicLength=0.3570949095220927 rxn_smarts="[N:1]([C:2](=[O:3])[C:4]([C:5]([O:6][H:13])([H:11])[H:12])([H:9])[H:10])([H:7])[H:8]>>[N:1]([C:2]([O:3][C:5]([O:6][H:13])([H:11])[H:12])=[C:4]([H:9])[H:10])([H:7])[H:8]"
N       -1.63336576      -0.96576545      -0.60195728
C       -0.69983663       0.02752935      -0.71321751
O        0.44317713      -0.33082916      -1.18662022
C       -0.77896386       1.18700752       0.06086779
C        1.47119432       0.26725094       0.58590033
O        1.63451189      -0.99184919       0.95913980
H       -2.40250147      -0.85746244       0.03190915
H       -1.37363428      -1.90129907      -0.85371401
H       -1.71605269       1.45272512       0.53597443
H       -0.16858945       2.02056621      -0.26165742
H        2.13734272       0.69512470      -0.15332104
H        1.24011134       0.90295720       1.43103478
H        1.84660674      -1.50595574       0.16566118
13
Frame=5 idx=001298 GeodesicLength=0.4479479289737842 rxn_smarts="[N:1]([C:2](=[O:3])[C:4]([C:5]([O:6][H:13])([H:11])[H:12])([H:9])[H:10])([H:7])[H:8]>>[N:1]([C:2]([O:3][C:5]([O:6][H:13])([H:11])[H:12])=[C:4]([H:9])[H:10])([H:7])[H:8]"
N       -1.60546355      -0.96772628      -0.58678872
C       -0.70822245       0.05277126      -0.74692739
O        0.43712595      -0.28446009      -1.23274113
C       -0.77318214       1.20211357       0.04833228
C        1.42974870       0.25581174       0.57586792
O        1.56845727      -1.01145225       0.95819024
H       -2.32447643      -0.89195400       0.10819575
H       -1.33382341      -1.89457831      -0.85808901
H       -1.70470781       1.45791271       0.53966603
H       -0.17865589       2.04385374      -0.28269179
H        2.13911402       0.67039803      -0.13129050
H        1.22543954       0.89285706       1.42804911
H        1.82864622      -1.52554718       0.18022723
13
Frame=6 idx=001298 GeodesicLength=0.539139126639795 rxn_smarts="[N:1]([C:2](=[O:3])[C:4]([C:5]([O:6][H:13])([H:11])[H:12])([H:9])[H:10])([H:7])[H:8]>>[N:1]([C:2]([O:3][C:5]([O:6][H:13])([H:11])[H:12])=[C:4]([H:9])[H:10])([H:7])[H:8]"
N       -1.57935527      -0.96859848      -0.57399031
C       -0.71770905       0.07569856      -0.77588234
O        0.42918859      -0.24034346      -1.27478403
C       -0.76789241       1.21580744       0.03845111
C        1.39027289       0.24538753       0.56402722
O        1.50529854      -1.02894854       0.95732353
H       -2.24630884      -0.92234012       0.17394545
H       -1.29694139      -1.88724408      -0.86245438
H       -1.69346262       1.46178474       0.54592036
H       -0.19053925       2.06565208      -0.30241076
H        2.13867107       0.64410070      -0.11276132
H        1.21386395       0.88368140       1.42273512
H        1.81491377      -1.54463777       0.19988034
13
Frame=7 idx=001298 GeodesicLength=0.6306178964958349 rxn_smarts="[N:1]([C:2](=[O:3])[C:4]([C:5]([O:6][H:13])([H:11])[H:12])([H:9])[H:10])([H:7])[H:8]>>[N:1]([C:2]([O:3][C:5]([O:6][H:13])([H:11])[H:12])=[C:4]([H:9])[H:10])([H:7])[H:8]"
N       -1.55489864      -0.96877042      -0.56326700
C       -0.72809538       0.09676113      -0.80099384
O        0.41955251      -0.19794581      -1.31366708
C       -0.76296356       1.22816525       0.03098719
C        1.35284221       0.23590070       0.55045624
O        1.44478906      -1.04444280       0.95671530
H       -2.16950462      -0.94889615       0.22979605
H       -1.26223858      -1.87956541      -0.86686600
H       -1.68204748       1.46412660       0.55489344
H       -0.20422452       2.08622615      -0.32051491
H        2.13655942       0.61630102      -0.09783513
H        1.20544653       0.87541250       1.41505282
H        1.80478306      -1.56327276       0.22524293
13
Frame=8 idx=001298 GeodesicLength=0.722333638759581 rxn_smarts="[N:1]([C:2](=[O:3])[C:4]([C:5]([O:6][H:13])([H:11])[H:12])([H:9])[H:10])([H:7])[H:8]>>[N:1]([C:2]([O:3][C:5]([O:6][H:13])([H:11])[H:12])=[C:4]([H:9])[H:10])([H:7])[H:8]"
N       -1.53202524      -0.96844418      -0.55425404
C       -0.73932223       0.11632677      -0.82287517
O        0.40823000      -0.15692770      -1.35005449
C       -0.75824535       1.23937334       0.02568059
C        1.31736503       0.22700128       0.53528182
O        1.38684345      -1.05847306       0.95601666
H       -2.09596172      -0.97183365       0.27631116
H       -1.22917653      -1.87175707      -0.87088475
H       -1.67034601       1.46526333       0.56618182
H       -0.21947468       2.10575452      -0.33692861
H        2.13298881       0.58727728      -0.08633689
H        1.19991462       0.86741148       1.40524792
H        1.79920985      -1.58097234       0.25661397
13
Frame=9 idx=001298 GeodesicLength=0.8139985615937595 rxn_smarts="[N:1]([C:2](=[O:3])[C:4]([C:5]([O:6][H:13])([H:11])[H:12])([H:9])[H:10])([H:7])[H:8]>>[N:1]([C:2]([O:3][C:5]([O:6][H:13])([H:11])[H:12])=[C:4]([H:9])[H:10])([H:7])[H:8]"
N       -1.50993856      -0.96799626      -0.54732026
C       -0.75110275       0.13477128      -0.84204771
O        0.39545412      -0.11627748      -1.38457143
C       -0.75369951       1.24906138       0.02277339
C        1.28431780       0.21908472       0.51815919
O        1.33098126      -1.06996704       0.95634017
H       -2.02583394      -0.99185431       0.31396102
H       -1.19628708      -1.86373827      -0.87542794
H       -1.65804995       1.46393722       0.58063012
H       -0.23689051       2.12425795      -0.35077589
H        2.12884143       0.55619676      -0.07911275
H        1.19857128       0.86098382       1.39215146
H        1.79363641      -1.59845977       0.29524062
13
Frame=10 idx=001298 GeodesicLength=0.905703821598537 rxn_smarts="[N:1]([C:2](=[O:3])[C:4]([C:5]([O:6][H:13])([H:11])[H:12])([H:9])[H:10])([H:7])[H:8]>>[N:1]([C:2]([O:3][C:5]([O:6][H:13])([H:11])[H:12])=[C:4]([H:9])[H:10])([H:7])[H:8]"
N       -1.48908640      -0.96727272      -0.54189436
C       -0.76357464       0.15229728      -0.85889856
O        0.38103682      -0.07620863      -1.41756838
C       -0.74911768       1.25782933       0.02156730
C        1.25306973       0.21125034       0.49955293
O        1.27749871      -1.08050571       0.95640016
H       -1.96021129      -1.00924903       0.34438572
H       -1.16415502      -1.85551530      -0.88001245
H       -1.64522353       1.46162429       0.59677909
H       -0.25554961       2.14193936      -0.36270594
H        2.12349441       0.52395342      -0.07531177
H        1.19978819       0.85413363       1.37693612
H        1.79203031      -1.61427625       0.34077014
13
Frame=11 idx=001298 GeodesicLength=0.9973826372918541 rxn_smarts="[N:1]([C:2](=[O:3])[C:4]([C:5]([O:6][H:13])([H:11])[H:12])([H:9])[H:10])([H:7])[H:8]>>[N:1]([C:2]([O:3][C:5]([O:6][H:13])([H:11])[H:12])=[C:4]([H:9])[H:10])([H:7])[H:8]"
N       -1.46920514      -0.96638093      -0.53812754
C       -0.77667035       0.16914944      -0.87378755
O        0.36498609      -0.03624018      -1.44944644
C       -0.74440757       1.26562274       0.02201129
C        1.22364912       0.20342192       0.47931345
O        1.22614224      -1.09001078       0.95630041
H       -1.89918278      -1.02452528       0.36831155
H       -1.13225825      -1.84698160      -0.88509008
H       -1.63164600       1.45797986       0.61481266
H       -0.27551180       2.15885280      -0.37242065
H        2.11722680       0.49019711      -0.07524871
H        1.20380148       0.84696159       1.35921317
H        1.79307617      -1.62804670       0.39415844
13
Frame=12 idx=001298 GeodesicLength=1.0889764227025605 rxn_smarts="[N:1]([C:2](=[O:3])[C:4]([C:5]([O:6][H:13])([H:11])[H:12])([H:9])[H:10])([H:7])[H:8]>>[N:1]([C:2]([O:3][C:5]([O:6][H:13])([H:11])[H:12])=[C:4]([H:9])[H:10])([H:7])[H:8]"
N       -1.45013460      -0.96538953      -0.53609060
C       -0.79035918       0.18551936      -0.88698959
O        0.34726181       0.00395542      -1.48051755
C       -0.73945237       1.27244842       0.02402739
C        1.19599853       0.19540533       0.45734194
O        1.17681851      -1.09867350       0.95587637
H       -1.84292769      -1.03811171       0.38640464
H       -1.10029163      -1.83807837      -0.89091509
H       -1.61717056       1.45291377       0.63466875
H       -0.29664959       2.17504943      -0.37967564
H        2.11014662       0.45470721      -0.07913787
H        1.21063477       0.83925493       1.33880325
H        1.79612540      -1.63900074       0.45620402
13
Frame=13 idx=001298 GeodesicLength=1.1804348189572065 rxn_smarts="[N:1]([C:2](=[O:3])[C:4]([C:5]([O:6][H:13])([H:11])[H:12])([H:9])[H:10])([H:7])[H:8]>>[N:1]([C:2]([O:3][C:5]([O:6][H:13])([H:11])[H:12])=[C:4]([H:9])[H:10])([H:7])[H:8]"
N       -1.43104945      -0.96467073      -0.53637866
C       -0.80441762       0.20163300      -0.89864875
O        0.32797638       0.04535839      -1.51108238
C       -0.73420646       1.27789284       0.02810373
C        1.17063687       0.18767084       0.43318027
O        1.12867777      -1.10498777       0.95672450
H       -1.79090805      -1.05112449       0.39861470
H       -1.06669625      -1.82871028      -0.89833423
H       -1.60142542       1.44503410       0.65743003
H       -0.31968568       2.19054269      -0.38349394
H        2.10301106       0.41595612      -0.08809252
H        1.22207632       0.83277566       1.31406774
H        1.79601054      -1.64737037       0.52790951
13
Frame=14 idx=001298 GeodesicLength=1.271715214775551 rxn_smarts="[N:1]([C:2](=[O:3])[C:4]([C:5]([O:6][H:13])([H:11])[H:12])([H:9])[H:10])([H:7])[H:8]>>[N:1]([C:2]([O:3][C:5]([O:6][H:13])([H:11])[H:12])=[C:4]([H:9])[H:10])([H:7])[H:8]"
N       -1.41245466      -0.96390019      -0.53844333
C       -0.81900676       0.21750935      -0.90898643
O        0.30690774       0.08750165      -1.54112344
C       -0.72843358       1.28234044       0.03351946
C        1.14680910       0.17923409       0.40721990
O        1.08259752      -1.11085586       0.95692910
H       -1.74324934      -1.06321263       0.40627044
H       -1.03249635      -1.81869655      -0.90684695
H       -1.58442120       1.43559844       0.68165856
H       -0.34346294       2.20523852      -0.38445143
H        2.09490139       0.37488705      -0.10119959
H        1.23609244       0.82502458       1.28635888
H        1.79621665      -1.65066889       0.60909484
13
Frame=15 idx=001298 GeodesicLength=1.3628843975171683 rxn_smarts="[N:1]([C:2](=[O:3])[C:4]([C:5]([O:6][H:13])([H:11])[H:12])([H:9])[H:10])([H:7])[H:8]>>[N:1]([C:2]([O:3][C:5]([O:6][H:13])([H:11])[H:12])=[C:4]([H:9])[H:10])([H:7])[H:8]"
N       -1.39358213      -0.96345605      -0.54271135
C       -0.83389042       0.23323341      -0.91803460
O        0.28418800       0.13113852      -1.57074276
C       -0.72203713       1.28542771       0.04067249
C        1.12491311       0.17047484       0.37915652
O        1.03790893      -1.11492808       0.95801236
H       -1.69935964      -1.07534979       0.40929975
H       -0.99619141      -1.80801043      -0.91688694
H       -1.56578484       1.42344569       0.70819435
H       -0.36846661       2.21909721      -0.38172349
H        2.08630222       0.33002547      -0.11928157
H        1.25412914       0.81747043       1.25427769
H        1.79187077      -1.64856893       0.69976754
13
Frame=16 idx=001298 GeodesicLength=1.4541114370250445 rxn_smarts="[N:1]([C:2](=[O:3])[C:4]([C:5]([O:6][H:13])([H:11])[H:12])([H:9])[H:10])([H:7])[H:8]>>[N:1]([C:2]([O:3][C:5]([O:6][H:13])([H:11])[H:12])=[C:4]([H:9])[H:10])([H:7])[H:8]"
N       -1.37402610      -0.96346939      -0.54925262
C       -0.84893196       0.24879661      -0.92581292
O        0.25986691       0.17653119      -1.59980387
C       -0.71486291       1.28697805       0.04959075
C        1.10493230       0.16132850       0.34900961
O        0.99437947      -1.11668255       0.96065049
H       -1.65886421      -1.08797356       0.40796274
H       -0.95696106      -1.79651722      -0.92834044
H       -1.54525550       1.40816303       0.73703415
H       -0.39458288       2.23193992      -0.37491195
H        2.07703868       0.28048810      -0.14239979
H        1.27650511       0.81027135       1.21726513
H        1.78076215      -1.63985403       0.79900873
