15
Frame=0 idx=003961 GeodesicLength=0.0 rxn_smarts="[C:1]([C:2]([C:3]([N:4]([C:5](=[O:6])[H:15])[H:14])([H:12])[H:13])([H:10])[H:11])([H:7])([H:8])[H:9]>>[C:1]([C@:2]1([H:11])[C:3]([H:12])([H:13])[N:4]1[H:14])([H:7])([H:8])[H:9].[C:5](=[O:6])([H:10])[H:15]"
C       -1.79994084       0.35623950       0.67232438
C       -0.87822401      -0.34739980      -0.24240597
C        0.28731112      -1.11184789       0.23384178
N        1.00525349       0.11421513       0.42399949
C        1.53553780       0.66948963      -0.87389588
O        2.56325739       0.05833367      -1.29814475
H       -1.94615344       1.39478493       0.36878062
H       -2.78388473      -0.12522785       0.60519914
H       -1.45160867       0.33958875       1.70322665
H        0.55225897       0.55672800      -1.49237356
H       -1.17655896      -0.40106258      -1.28285376
H        0.75164538      -1.78468858      -0.48972897
H        0.09955207      -1.62837003       1.17687587
H        1.64343559       0.13867178       1.21375455
H        1.59811878       1.77054530      -0.71859964
15
Frame=1 idx=003961 GeodesicLength=0.10544908053830052 rxn_smarts="[C:1]([C:2]([C:3]([N:4]([C:5](=[O:6])[H:15])[H:14])([H:12])[H:13])([H:10])[H:11])([H:7])([H:8])[H:9]>>[C:1]([C@:2]1([H:11])[C:3]([H:12])([H:13])[N:4]1[H:14])([H:7])([H:8])[H:9].[C:5](=[O:6])([H:10])[H:15]"
C       -1.79709193       0.35750806       0.67056431
C       -0.86552719      -0.33225618      -0.24729998
C        0.28554017      -1.11859373       0.23267123
N        1.00653568       0.10611605       0.42505278
C        1.55008528       0.67805098      -0.87981030
O        2.55144323       0.04782750      -1.32664553
H       -1.97488318       1.38742491       0.35474133
H       -2.76821629      -0.15118819       0.62519198
H       -1.43926904       0.36671135       1.69850760
H        0.53257619       0.57533375      -1.48831450
H       -1.17823698      -0.41581971      -1.28162783
H        0.75087415      -1.78737251      -0.49344945
H        0.09030988      -1.63582344       1.17335662
H        1.61138545       0.14936443       1.23844917
H        1.64447458       1.77271672      -0.70138742
15
Frame=2 idx=003961 GeodesicLength=0.21079132997136163 rxn_smarts="[C:1]([C:2]([C:3]([N:4]([C:5](=[O:6])[H:15])[H:14])([H:12])[H:13])([H:10])[H:11])([H:7])([H:8])[H:9]>>[C:1]([C@:2]1([H:11])[C:3]([H:12])([H:13])[N:4]1[H:14])([H:7])([H:8])[H:9].[C:5](=[O:6])([H:10])[H:15]"
C       -1.79411654       0.35846795       0.66880111
C       -0.85279976      -0.31747070      -0.25213008
C        0.28371113      -1.12521061       0.23150156
N        1.00800143       0.09801965       0.42617936
C        1.56503303       0.68655210      -0.88590625
O        2.53852350       0.03793499      -1.35621191
H       -2.00302484       1.37884501       0.34125086
H       -2.75155937      -0.17641535       0.64505142
H       -1.42762127       0.39341072       1.69334816
H        0.51276936       0.59447500      -1.48389379
H       -1.17941192      -0.43013719      -1.27955357
H        0.75022765      -1.79000111      -0.49697471
H        0.08113642      -1.64316120       1.16979890
H        1.57661461       0.16151566       1.26276094
H        1.69251655       1.77317507      -0.68402199
15
Frame=3 idx=003961 GeodesicLength=0.3160601990782612 rxn_smarts="[C:1]([C:2]([C:3]([N:4]([C:5](=[O:6])[H:15])[H:14])([H:12])[H:13])([H:10])[H:11])([H:7])([H:8])[H:9]>>[C:1]([C@:2]1([H:11])[C:3]([H:12])([H:13])[N:4]1[H:14])([H:7])([H:8])[H:9].[C:5](=[O:6])([H:10])[H:15]"
C       -1.79105453       0.35910248       0.66703153
C       -0.84003767      -0.30308043      -0.25684027
C        0.28187535      -1.13168590       0.23039880
N        1.00965236       0.08996596       0.42749522
C        1.58038657       0.69499529      -0.89213817
O        2.52439564       0.02876800      -1.38681720
H       -2.03047679       1.36909409       0.32832637
H       -2.73404919      -0.20086518       0.66466500
H       -1.41677149       0.41958022       1.68780173
H        0.49278181       0.61417421      -1.47903014
H       -1.18002085      -0.44395633      -1.27668037
H        0.74977415      -1.79255150      -0.50023934
H        0.07208901      -1.65037923       1.16626889
H        1.53914182       0.17509457       1.28629481
H        1.74231379       1.77174374      -0.66653685
15
Frame=4 idx=003961 GeodesicLength=0.4213195079476313 rxn_smarts="[C:1]([C:2]([C:3]([N:4]([C:5](=[O:6])[H:15])[H:14])([H:12])[H:13])([H:10])[H:11])([H:7])([H:8])[H:9]>>[C:1]([C@:2]1([H:11])[C:3]([H:12])([H:13])[N:4]1[H:14])([H:7])([H:8])[H:9].[C:5](=[O:6])([H:10])[H:15]"
C       -1.78797162       0.35939468       0.66524588
C       -0.82724844      -0.28909958      -0.26138188
C        0.28007053      -1.13798887       0.22942905
N        1.01145636       0.08202752       0.42912275
C        1.59615705       0.70339157      -0.89844890
O        2.50894890       0.02044911      -1.41840659
H       -2.05726821       1.35819666       0.31591918
H       -2.71581184      -0.22457206       0.68397864
H       -1.40682168       0.44519360       1.68190507
H        0.47254945       0.63447924      -1.47363730
H       -1.18001168      -0.45722183      -1.27307005
H        0.74957562      -1.79497903      -0.50317434
H        0.06320813      -1.65745500       1.16283163
H        1.49916869       0.18996938       1.30864151
H        1.79399873       1.76821462      -0.64895466
15
Frame=5 idx=003961 GeodesicLength=0.5264630719036251 rxn_smarts="[C:1]([C:2]([C:3]([N:4]([C:5](=[O:6])[H:15])[H:14])([H:12])[H:13])([H:10])[H:11])([H:7])([H:8])[H:9]>>[C:1]([C@:2]1([H:11])[C:3]([H:12])([H:13])[N:4]1[H:14])([H:7])([H:8])[H:9].[C:5](=[O:6])([H:10])[H:15]"
C       -1.78492234       0.35933063       0.66341496
C       -0.81444664      -0.27556328      -0.26573506
C        0.27832964      -1.14408344       0.22865749
N        1.01332646       0.07432310       0.43113416
C        1.61232007       0.71175926      -0.90483856
O        2.49208119       0.01303759      -1.45093095
H       -2.08342876       1.34619896       0.30396670
H       -2.69700717      -0.24749423       0.70288810
H       -1.39784837       0.47021543       1.67565836
H        0.45202085       0.65543831      -1.46765724
H       -1.17935758      -0.46993189      -1.26879578
H        0.74970174      -1.79724002      -0.50570193
H        0.05455699      -1.66432138       1.15957605
H        1.45718387       0.20590339       1.32955325
H        1.84749005       1.76242756      -0.63118954
15
Frame=6 idx=003961 GeodesicLength=0.6316368311223296 rxn_smarts="[C:1]([C:2]([C:3]([N:4]([C:5](=[O:6])[H:15])[H:14])([H:12])[H:13])([H:10])[H:11])([H:7])([H:8])[H:9]>>[C:1]([C@:2]1([H:11])[C:3]([H:12])([H:13])[N:4]1[H:14])([H:7])([H:8])[H:9].[C:5](=[O:6])([H:10])[H:15]"
C       -1.78200328       0.35890068       0.66153104
C       -0.80166337      -0.26244320      -0.26985063
C        0.27667639      -1.14991239       0.22814806
N        1.01519647       0.06695613       0.43367089
C        1.62890103       0.72011261      -0.91122815
O        2.47372580       0.00673658      -1.48419940
H       -2.10900116       1.33311761       0.29243159
H       -2.67776008      -0.26972325       0.72136755
H       -1.38999177       0.49462532       1.66910758
H        0.43112867       0.67706462      -1.46102604
H       -1.17802051      -0.48202261      -1.26393647
H        0.75021441      -1.79925313      -0.50774756
H        0.04614024      -1.67095582       1.15655022
H        1.41353498       0.22268978       1.34858755
H        1.90292221       1.75410707      -0.61340623
15
Frame=7 idx=003961 GeodesicLength=0.7368405545955428 rxn_smarts="[C:1]([C:2]([C:3]([N:4]([C:5](=[O:6])[H:15])[H:14])([H:12])[H:13])([H:10])[H:11])([H:7])([H:8])[H:9]>>[C:1]([C@:2]1([H:11])[C:3]([H:12])([H:13])[N:4]1[H:14])([H:7])([H:8])[H:9].[C:5](=[O:6])([H:10])[H:15]"
C       -1.77929031       0.35809725       0.65957860
C       -0.78893578      -0.24973307      -0.27370303
C        0.27512450      -1.15542562       0.22795346
N        1.01695462       0.06005342       0.43682455
C        1.64587965       0.72849442      -0.91757994
O        2.45384339       0.00170949      -1.51801349
H       -2.13400402       1.31899162       0.28125815
H       -2.65820503      -0.29128295       0.73935759
H       -1.38335447       0.51840228       1.66226590
H        0.40981167       0.69933720      -1.45372270
H       -1.17599706      -0.49348371      -1.25857079
H        0.75117080      -1.80093505      -0.50924419
H        0.03797507      -1.67731786       1.15380326
H        1.36876380       0.24005373       1.36550234
H        1.96026317       1.74303884      -0.59570974
15
Frame=8 idx=003961 GeodesicLength=0.8421186531928874 rxn_smarts="[C:1]([C:2]([C:3]([N:4]([C:5](=[O:6])[H:15])[H:14])([H:12])[H:13])([H:10])[H:11])([H:7])([H:8])[H:9]>>[C:1]([C@:2]1([H:11])[C:3]([H:12])([H:13])[N:4]1[H:14])([H:7])([H:8])[H:9].[C:5](=[O:6])([H:10])[H:15]"
C       -1.77684526       0.35692573       0.65753767
C       -0.77630344      -0.23741187      -0.27728637
C        0.27368175      -1.16057411       0.22810396
N        1.01848545       0.05373296       0.44065175
C        1.66326279       0.73693199      -0.92386662
O        2.43242600      -0.00186289      -1.55215487
H       -2.15849929       1.30384942       0.27036554
H       -2.63845052      -0.31220098       0.75685145
H       -1.37799774       0.54157198       1.65513409
H        0.38799784       0.72222686      -1.44575101
H       -1.17329347      -0.50431459      -1.25278358
H        0.75263279      -1.80220039      -0.51015350
H        0.03006836      -1.68337285       1.15135905
H        1.32343074       0.25772169       1.38020400
H        2.01940399       1.72897706      -0.57821154
15
Frame=9 idx=003961 GeodesicLength=0.9473733320269662 rxn_smarts="[C:1]([C:2]([C:3]([N:4]([C:5](=[O:6])[H:15])[H:14])([H:12])[H:13])([H:10])[H:11])([H:7])([H:8])[H:9]>>[C:1]([C@:2]1([H:11])[C:3]([H:12])([H:13])[N:4]1[H:14])([H:7])([H:8])[H:9].[C:5](=[O:6])([H:10])[H:15]"
C       -1.77467911       0.35540796       0.65538275
C       -0.76378956      -0.22548466      -0.28062494
C        0.27236564      -1.16532864       0.22860357
N        1.01967346       0.04810696       0.44511898
C        1.68101716       0.74548292      -0.93014099
O        2.40951817      -0.00391580      -1.58651302
H       -2.18254493       1.28776030       0.25970096
H       -2.61860821      -0.33241648       0.77381367
H       -1.37388830       0.56415670       1.64768541
H        0.36561688       0.74561441      -1.43722375
H       -1.16997192      -0.51459158      -1.24664577
H        0.75465936      -1.80298768      -0.51046778
H        0.02246865      -1.68906602       1.14924704
H        1.27807544       0.27547157       1.39282821
H        2.08008726       1.71179004      -0.56076436
15
Frame=10 idx=003961 GeodesicLength=1.0526923056925146 rxn_smarts="[C:1]([C:2]([C:3]([N:4]([C:5](=[O:6])[H:15])[H:14])([H:12])[H:13])([H:10])[H:11])([H:7])([H:8])[H:9]>>[C:1]([C@:2]1([H:11])[C:3]([H:12])([H:13])[N:4]1[H:14])([H:7])([H:8])[H:9].[C:5](=[O:6])([H:10])[H:15]"
C       -1.77286023       0.35353889       0.65311574
C       -0.75143858      -0.21388960      -0.28370332
C        0.27117470      -1.16964212       0.22945935
N        1.02044012       0.04325764       0.45029231
C        1.69918401       0.75417127      -0.93633362
O        2.38515338      -0.00418080      -1.62077235
H       -2.20617677       1.27071212       0.24920376
H       -2.59873328      -0.35204121       0.79030235
H       -1.37110710       0.58618140       1.63994476
H        0.34259605       0.76949594      -1.42812790
H       -1.16602568      -0.52426634      -1.24024002
H        0.75729586      -1.80319552      -0.51017907
H        0.01514686      -1.69440526       1.14743831
H        1.23302748       0.29315948       1.40334912
H        2.14232317       1.69110412      -0.54374944
15
Frame=11 idx=003961 GeodesicLength=1.1580533281690635 rxn_smarts="[C:1]([C:2]([C:3]([N:4]([C:5](=[O:6])[H:15])[H:14])([H:12])[H:13])([H:10])[H:11])([H:7])([H:8])[H:9]>>[C:1]([C@:2]1([H:11])[C:3]([H:12])([H:13])[N:4]1[H:14])([H:7])([H:8])[H:9].[C:5](=[O:6])([H:10])[H:15]"
C       -1.77138534       0.35133716       0.65073234
C       -0.73926568      -0.20259742      -0.28653900
C        0.27011712      -1.17349413       0.23066028
N        1.02070971       0.03923896       0.45616578
C        1.71778111       0.76304566      -0.94242892
O        2.35943720      -0.00252450      -1.65472370
H       -2.22936421       1.25278843       0.23884363
H       -2.57888000      -0.37105501       0.80630791
H       -1.36963428       0.60762339       1.63192450
H        0.31886245       0.79374585      -1.41855755
H       -1.16149555      -0.53337197      -1.23362282
H        0.76058472      -1.80275113      -0.50930457
H        0.00811283      -1.69939348       1.14590962
H        1.18857994       0.31066218       1.41196175
H        2.20583997       1.66674602      -0.52732922
15
Frame=12 idx=003961 GeodesicLength=1.263425523161507 rxn_smarts="[C:1]([C:2]([C:3]([N:4]([C:5](=[O:6])[H:15])[H:14])([H:12])[H:13])([H:10])[H:11])([H:7])([H:8])[H:9]>>[C:1]([C@:2]1([H:11])[C:3]([H:12])([H:13])[N:4]1[H:14])([H:7])([H:8])[H:9].[C:5](=[O:6])([H:10])[H:15]"
C       -1.77026014       0.34881926       0.64823740
C       -0.72727964      -0.19155949      -0.28914055
C        0.26921243      -1.17685580       0.23217954
N        1.02044614       0.03610293       0.46271640
C        1.73685686       0.77211746      -0.94843940
O        2.33248498       0.00119170      -1.68816173
H       -2.25213520       1.23400871       0.22859081
H       -2.55909361      -0.38947033       0.82186399
H       -1.36944517       0.62850704       1.62363560
H        0.29434454       0.81829729      -1.40858703
H       -1.15640406      -0.54192030      -1.22685148
H        0.76457895      -1.80157848      -0.50788342
H        0.00137864      -1.70402382       1.14462176
H        1.14492287       0.32792677       1.41888071
H        2.27039241       1.63843708      -0.51166260
15
Frame=13 idx=003961 GeodesicLength=1.3687539023719861 rxn_smarts="[C:1]([C:2]([C:3]([N:4]([C:5](=[O:6])[H:15])[H:14])([H:12])[H:13])([H:10])[H:11])([H:7])([H:8])[H:9]>>[C:1]([C@:2]1([H:11])[C:3]([H:12])([H:13])[N:4]1[H:14])([H:7])([H:8])[H:9].[C:5](=[O:6])([H:10])[H:15]"
C       -1.76945364       0.34601394       0.64562629
C       -0.71547950      -0.18075042      -0.29154427
C        0.26848762      -1.17971340       0.23398595
N        1.01961349       0.03389485       0.46986592
C        1.75644599       0.78144262      -0.95440302
O        2.30442044       0.00704921      -1.72103149
H       -2.27454171       1.21442088       0.21841959
H       -2.53939546      -0.40725717       0.83699920
H       -1.37043927       0.64887703       1.61505403
H        0.26892766       0.84301246      -1.39838961
H       -1.15082932      -0.54999713      -1.21995031
H        0.76931690      -1.79963363      -0.50595563
H       -0.00500483      -1.70827519       1.14355614
H        1.10220182       0.34494064       1.42437991
H        2.33572983       1.60597531      -0.49661272
15
Frame=14 idx=003961 GeodesicLength=1.4740720907141267 rxn_smarts="[C:1]([C:2]([C:3]([N:4]([C:5](=[O:6])[H:15])[H:14])([H:12])[H:13])([H:10])[H:11])([H:7])([H:8])[H:9]>>[C:1]([C@:2]1([H:11])[C:3]([H:12])([H:13])[N:4]1[H:14])([H:7])([H:8])[H:9].[C:5](=[O:6])([H:10])[H:15]"
C       -1.76897284       0.34291861       0.64291041
C       -0.70385292      -0.17009139      -0.29374065
C        0.26795968      -1.18204504       0.23606744
N        1.01822298       0.03262335       0.47767817
C        1.77666692       0.79099492      -0.96023813
O        2.27535990       0.01521329      -1.75306544
H       -2.29654503       1.19404039       0.20831279
H       -2.51979070      -0.42447579       0.85172541
H       -1.37265172       0.66869763       1.60622786
H        0.24255742       0.86790747      -1.38794294
H       -1.14472068      -0.55753620      -1.21297373
H        0.77484114      -1.79684320      -0.50354519
H       -0.01105738      -1.71218607       1.14265463
H        1.06039357       0.36171887       1.42863108
H        2.40158968       1.56906316      -0.48270171
15
Frame=15 idx=003961 GeodesicLength=1.5793162962843919 rxn_smarts="[C:1]([C:2]([C:3]([N:4]([C:5](=[O:6])[H:15])[H:14])([H:12])[H:13])([H:10])[H:11])([H:7])([H:8])[H:9]>>[C:1]([C@:2]1([H:11])[C:3]([H:12])([H:13])[N:4]1[H:14])([H:7])([H:8])[H:9].[C:5](=[O:6])([H:10])[H:15]"
C       -1.76878970       0.33955154       0.64009294
C       -0.69238131      -0.15953069      -0.29574288
C        0.26765664      -1.18383862       0.23840168
N        1.01628374       0.03229984       0.48613441
C        1.79760916       0.80076732      -0.96594177
O        2.24545280       0.02575431      -1.78412951
H       -2.31811802       1.17292273       0.19826163
H       -2.50028985      -0.44112399       0.86603939
H       -1.37602911       0.68795692       1.59717784
H        0.21515627       0.89291002      -1.37733843
H       -1.13809268      -0.56455877      -1.20594072
H        0.78118693      -1.79316420      -0.50068192
H       -0.01675659      -1.71576409       1.14188102
H        1.01949654       0.37827548       1.43186277
H        2.46761515       1.52754221      -0.47007643
15
Frame=16 idx=003961 GeodesicLength=1.6844844797404348 rxn_smarts="[C:1]([C:2]([C:3]([N:4]([C:5](=[O:6])[H:15])[H:14])([H:12])[H:13])([H:10])[H:11])([H:7])([H:8])[H:9]>>[C:1]([C@:2]1([H:11])[C:3]([H:12])([H:13])[N:4]1[H:14])([H:7])([H:8])[H:9].[C:5](=[O:6])([H:10])[H:15]"
C       -1.76888198       0.33593010       0.63717382
C       -0.68103657      -0.14901649      -0.29756295
C        0.26761973      -1.18508604       0.24097555
N        1.01382198       0.03293844       0.49523715
C        1.81940863       0.81072900      -0.97148256
O        2.21482366       0.03877466      -1.81412457
H       -2.33925805       1.15111776       0.18825602
H       -2.48091263      -0.45720081       0.87992037
H       -1.38053490       0.70664600       1.58793217
H        0.18662434       0.91798553      -1.36664210
H       -1.13094060      -0.57108158      -1.19887842
H        0.78840870      -1.78857464      -0.49738621
H       -0.02206953      -1.71901611       1.14121037
H        0.97948153       0.39464841       1.43429395
H        2.53344571       1.48120578      -0.45892258
