12
Frame=0 idx=002012 GeodesicLength=0.0 rxn_smarts="[C:1]([C:2]#[C:3][C:4]([C:5](=[O:6])[H:12])([H:10])[H:11])([H:7])([H:8])[H:9]>>[C-:5]#[O+:6].[C:1]([C:2](=[C:3]=[C:4]([H:10])[H:11])[H:12])([H:7])([H:8])[H:9]"
C        2.12661892      -0.42590598       0.07149614
C        0.71376363      -0.00159677       0.12674379
C       -0.15826050       0.78821373       0.56288784
C       -1.51620006       0.97288609       0.44695622
C       -1.69385885      -0.57339212      -0.74729459
O       -2.66389730      -0.98746930      -1.19556032
H        2.74910519       0.21801959       0.69213230
H        2.50172175      -0.38657725      -0.95238427
H        2.23429069      -1.45328601       0.42286771
H       -1.88279529       1.81199764      -0.14023242
H       -2.15396789       0.72662849       1.29310648
H       -0.25652028      -0.68951810      -0.58071887
12
Frame=1 idx=002012 GeodesicLength=0.06367521028205327 rxn_smarts="[C:1]([C:2]#[C:3][C:4]([C:5](=[O:6])[H:12])([H:10])[H:11])([H:7])([H:8])[H:9]>>[C-:5]#[O+:6].[C:1]([C:2](=[C:3]=[C:4]([H:10])[H:11])[H:12])([H:7])([H:8])[H:9]"
C        2.13359483      -0.42098425       0.07528173
C        0.71531432      -0.01370800       0.12380849
C       -0.15491636       0.77781949       0.56164984
C       -1.51201764       0.97331020       0.44224310
C       -1.71160452      -0.57062039      -0.77206926
O       -2.69725678      -0.99459953      -1.17669146
H        2.74511150       0.22358734       0.70617005
H        2.51648072      -0.36809954      -0.94513732
H        2.25061798      -1.45000614       0.41888818
H       -1.86564994       1.82506411      -0.13491145
H       -2.15160093       0.73133329       1.28823079
H       -0.26807317      -0.71309657      -0.58746269
12
Frame=2 idx=002012 GeodesicLength=0.12715201791162503 rxn_smarts="[C:1]([C:2]#[C:3][C:4]([C:5](=[O:6])[H:12])([H:10])[H:11])([H:7])([H:8])[H:9]>>[C-:5]#[O+:6].[C:1]([C:2](=[C:3]=[C:4]([H:10])[H:11])[H:12])([H:7])([H:8])[H:9]"
C        2.14039779      -0.41619083       0.07929612
C        0.71719545      -0.02483638       0.11973169
C       -0.15129341       0.76852702       0.55895554
C       -1.50782532       0.97344601       0.43770993
C       -1.73024283      -0.57062617      -0.79316325
O       -2.72946160      -1.00028460      -1.15898204
H        2.74072315       0.22786140       0.72146773
H        2.53197183      -0.34924275      -0.93702681
H        2.26564746      -1.44704754       0.41453161
H       -1.84997943       1.83600464      -0.13056275
H       -2.14765089       0.73701595       1.28504737
H       -0.27948220      -0.73462676      -0.59700515
12
Frame=3 idx=002012 GeodesicLength=0.1905022250693366 rxn_smarts="[C:1]([C:2]#[C:3][C:4]([C:5](=[O:6])[H:12])([H:10])[H:11])([H:7])([H:8])[H:9]>>[C-:5]#[O+:6].[C:1]([C:2](=[C:3]=[C:4]([H:10])[H:11])[H:12])([H:7])([H:8])[H:9]"
C        2.14700607      -0.41181256       0.08396611
C        0.71963849      -0.03416841       0.11332073
C       -0.14724070       0.76087568       0.55392639
C       -1.50357572       0.97359905       0.43292526
C       -1.75008489      -0.57329073      -0.81075124
O       -2.76140504      -1.00781737      -1.13798083
H        2.73527223       0.22859465       0.74085479
H        2.54999554      -0.32837992      -0.92669427
H        2.27801054      -1.44551459       0.40814291
H       -1.83605115       1.84518057      -0.12760487
H       -2.14170431       0.74394130       1.28337697
H       -0.28986105      -0.75120766      -0.61348195
12
Frame=4 idx=002012 GeodesicLength=0.25371283652338616 rxn_smarts="[C:1]([C:2]#[C:3][C:4]([C:5](=[O:6])[H:12])([H:10])[H:11])([H:7])([H:8])[H:9]>>[C-:5]#[O+:6].[C:1]([C:2](=[C:3]=[C:4]([H:10])[H:11])[H:12])([H:7])([H:8])[H:9]"
C        2.15344147      -0.40772110       0.08905568
C        0.72247204      -0.04229439       0.10543792
C       -0.14296363       0.75418314       0.54755055
C       -1.49931432       0.97377493       0.42794694
C       -1.77079246      -0.57707898      -0.82677096
O       -2.79259586      -1.01678348      -1.11437459
H        2.72909794       0.22712216       0.76239926
H        2.56929260      -0.30657777      -0.91478954
H        2.28882264      -1.44473305       0.40074333
H       -1.82308397       1.85348604      -0.12526664
H       -2.13462906       0.75134718       1.28239791
H       -0.29974738      -0.76472466      -0.63432986
12
Frame=5 idx=002012 GeodesicLength=0.3168873175371345 rxn_smarts="[C:1]([C:2]#[C:3][C:4]([C:5](=[O:6])[H:12])([H:10])[H:11])([H:7])([H:8])[H:9]>>[C-:5]#[O+:6].[C:1]([C:2](=[C:3]=[C:4]([H:10])[H:11])[H:12])([H:7])([H:8])[H:9]"
C        2.15991708      -0.40335079       0.09392036
C        0.72546060      -0.05056743       0.09801656
C       -0.13866636       0.74727089       0.54150381
C       -1.49503374       0.97354249       0.42327626
C       -1.79184987      -0.58127724      -0.84226682
O       -2.82312528      -1.02283137      -1.09411485
H        2.72325135       0.22695630       0.78187290
H        2.58729619      -0.28594645      -0.90332836
H        2.30057434      -1.44292909       0.39465267
H       -1.81011359       1.86111656      -0.12269955
H       -2.12738897       0.75836113       1.28175711
H       -0.31032175      -0.78034499      -0.65259010
12
Frame=6 idx=002012 GeodesicLength=0.3799737491307443 rxn_smarts="[C:1]([C:2]#[C:3][C:4]([C:5](=[O:6])[H:12])([H:10])[H:11])([H:7])([H:8])[H:9]>>[C-:5]#[O+:6].[C:1]([C:2](=[C:3]=[C:4]([H:10])[H:11])[H:12])([H:7])([H:8])[H:9]"
C        2.16633139      -0.39899366       0.09888651
C        0.72873521      -0.05829256       0.09013919
C       -0.13425264       0.74070130       0.53503894
C       -1.49073254       0.97315693       0.41862500
C       -1.81342149      -0.58585372      -0.85719540
O       -2.85301597      -1.02849732      -1.07386205
H        2.71724128       0.22640190       0.80131184
H        2.60525865      -0.26554263      -0.89134048
H        2.31201823      -1.44098851       0.38879802
H       -1.79752330       1.86820947      -0.12018276
H       -2.11962201       0.76522807       1.28142237
H       -0.32101680      -0.79552929      -0.67164118
12
Frame=7 idx=002012 GeodesicLength=0.4429963162154505 rxn_smarts="[C:1]([C:2]#[C:3][C:4]([C:5](=[O:6])[H:12])([H:10])[H:11])([H:7])([H:8])[H:9]>>[C-:5]#[O+:6].[C:1]([C:2](=[C:3]=[C:4]([H:10])[H:11])[H:12])([H:7])([H:8])[H:9]"
C        2.17273793      -0.39454510       0.10384752
C        0.73225777      -0.06573873       0.08218325
C       -0.12976175       0.73422853       0.52849071
C       -1.48639902       0.97255692       0.41405146
C       -1.83541016      -0.59065188      -0.87177941
O       -2.88240779      -1.03314181      -1.05449139
H        2.71125570       0.22601225       0.82011328
H        2.62278512      -0.24557081      -0.87918552
H        2.32359377      -1.43865772       0.38344857
H       -1.78507518       1.87482909      -0.11760824
H       -2.11154181       0.77183114       1.28126657
H       -0.33203459      -0.81115188      -0.69033680
12
Frame=8 idx=002012 GeodesicLength=0.505980160414672 rxn_smarts="[C:1]([C:2]#[C:3][C:4]([C:5](=[O:6])[H:12])([H:10])[H:11])([H:7])([H:8])[H:9]>>[C-:5]#[O+:6].[C:1]([C:2](=[C:3]=[C:4]([H:10])[H:11])[H:12])([H:7])([H:8])[H:9]"
C        2.17915070      -0.39001276       0.10882641
C        0.73604305      -0.07289826       0.07414750
C       -0.12518601       0.72785537       0.52185258
C       -1.48202542       0.97175830       0.40952596
C       -1.85782846      -0.59565432      -0.88603756
O       -2.91141765      -1.03693072      -1.03579115
H        2.70528795       0.22570416       0.83842049
H        2.63995597      -0.22592375      -0.86682723
H        2.33526871      -1.43599657       0.37851061
H       -1.77274891       1.88100309      -0.11501552
H       -2.10315667       0.77819306       1.28124698
H       -0.34334327      -0.82709758      -0.70885908
12
Frame=9 idx=002012 GeodesicLength=0.5688581888054403 rxn_smarts="[C:1]([C:2]#[C:3][C:4]([C:5](=[O:6])[H:12])([H:10])[H:11])([H:7])([H:8])[H:9]>>[C-:5]#[O+:6].[C:1]([C:2](=[C:3]=[C:4]([H:10])[H:11])[H:12])([H:7])([H:8])[H:9]"
C        2.18547536      -0.38561287       0.11404793
C        0.74019094      -0.07921873       0.06531145
C       -0.12044295       0.72205752       0.51450544
C       -1.47761980       0.97093398       0.40486594
C       -1.88085107      -0.60101097      -0.89968640
O       -2.93984435      -1.04144205      -1.01567309
H        2.69890970       0.22429392       0.85750838
H        2.65760926      -0.20610452      -0.85347772
H        2.34619532      -1.43356806       0.37332398
H       -1.76092435       1.88675339      -0.11265939
H       -2.09412531       0.78453872       1.28143141
H       -0.35457274      -0.84162034      -0.72949792
12
Frame=10 idx=002012 GeodesicLength=0.631681932776614 rxn_smarts="[C:1]([C:2]#[C:3][C:4]([C:5](=[O:6])[H:12])([H:10])[H:11])([H:7])([H:8])[H:9]>>[C-:5]#[O+:6].[C:1]([C:2](=[C:3]=[C:4]([H:10])[H:11])[H:12])([H:7])([H:8])[H:9]"
C        2.19188633      -0.38096399       0.11909051
C        0.74451645      -0.08570931       0.05709052
C       -0.11570823       0.71591918       0.50771746
C       -1.47318064       0.96977440       0.40043504
C       -1.90409502      -0.60606247      -0.91366762
O       -2.96792593      -1.04402813      -0.99779401
H        2.69300846       0.22416836       0.87481688
H        2.67412184      -0.18731600      -0.84073419
H        2.35791464      -1.43031925       0.36935865
H       -1.74884913       1.89221050      -0.10983942
H       -2.08521672       0.79022155       1.28156680
H       -0.36647205      -0.85789484      -0.74804063
12
Frame=11 idx=002012 GeodesicLength=0.6944700363016395 rxn_smarts="[C:1]([C:2]#[C:3][C:4]([C:5](=[O:6])[H:12])([H:10])[H:11])([H:7])([H:8])[H:9]>>[C-:5]#[O+:6].[C:1]([C:2](=[C:3]=[C:4]([H:10])[H:11])[H:12])([H:7])([H:8])[H:9]"
C        2.19839242      -0.37610060       0.12402758
C        0.74906204      -0.09225458       0.04926426
C       -0.11094508       0.70953931       0.50128886
C       -1.46868640       0.96833408       0.39612186
C       -1.92764963      -0.61099280      -0.92775962
O       -2.99585763      -1.04510261      -0.98147236
H        2.68743001       0.22483034       0.89100241
H        2.68987902      -0.16905288      -0.82831834
H        2.37021043      -1.42647801       0.36613268
H       -1.73657305       1.89732532      -0.10679620
H       -2.07631907       0.79544872       1.28164824
H       -0.37894306      -0.87549628      -0.76513935
12
Frame=12 idx=002012 GeodesicLength=0.7572445148061497 rxn_smarts="[C:1]([C:2]#[C:3][C:4]([C:5](=[O:6])[H:12])([H:10])[H:11])([H:7])([H:8])[H:9]>>[C-:5]#[O+:6].[C:1]([C:2](=[C:3]=[C:4]([H:10])[H:11])[H:12])([H:7])([H:8])[H:9]"
C        2.20488760      -0.37128466       0.12915709
C        0.75394898      -0.09825323       0.04097385
C       -0.10604348       0.70345921       0.49444398
C       -1.46413072       0.96684687       0.39165078
C       -1.95183457      -0.61614786      -0.94140455
O       -3.02347386      -1.04658188      -0.96413264
H        2.68157318       0.22472035       0.90772660
H        2.70591808      -0.15052682      -0.81514358
H        2.38214907      -1.42273747       0.36269369
H       -1.72449161       1.90210097      -0.10402821
H       -2.06699196       0.80068452       1.28174609
H       -0.39151071      -0.89228000      -0.78368311
12
Frame=13 idx=002012 GeodesicLength=0.8199591424355421 rxn_smarts="[C:1]([C:2]#[C:3][C:4]([C:5](=[O:6])[H:12])([H:10])[H:11])([H:7])([H:8])[H:9]>>[C-:5]#[O+:6].[C:1]([C:2](=[C:3]=[C:4]([H:10])[H:11])[H:12])([H:7])([H:8])[H:9]"
C        2.21140840      -0.36644087       0.13442722
C        0.75917934      -0.10378195       0.03227107
C       -0.10100156       0.69759519       0.48723706
C       -1.45948183       0.96528024       0.38699660
C       -1.97663350      -0.62167531      -0.95447463
O       -3.05093675      -1.04803670      -0.94616160
H        2.67541800       0.22380942       0.92500363
H        2.72220211      -0.13143983      -0.80120386
H        2.39393493      -1.41902742       0.35879043
H       -1.71251349       1.90647213      -0.10166014
H       -2.05723797       0.80601064       1.28181543
H       -0.40433770      -0.90876556      -0.80304121
12
Frame=14 idx=002012 GeodesicLength=0.882674893171444 rxn_smarts="[C:1]([C:2]#[C:3][C:4]([C:5](=[O:6])[H:12])([H:10])[H:11])([H:7])([H:8])[H:9]>>[C-:5]#[O+:6].[C:1]([C:2](=[C:3]=[C:4]([H:10])[H:11])[H:12])([H:7])([H:8])[H:9]"
C        2.21788603      -0.36172830       0.13999854
C        0.76483645      -0.10847060       0.02267948
C       -0.09575726       0.69226945       0.47924326
C       -1.45475298       0.96376864       0.38203098
C       -2.00223837      -0.62762970      -0.96677845
O       -3.07800055      -1.05055274      -0.92619388
H        2.66863510       0.22136493       0.94350905
H        2.73920924      -0.11163748      -0.78590232
H        2.40508431      -1.41566416       0.35412656
H       -1.70089166       1.91051842      -0.09986073
H       -2.04683542       0.81157538       1.28188133
H       -0.41717490      -0.92381385      -0.82473382
12
Frame=15 idx=002012 GeodesicLength=0.9453738405855533 rxn_smarts="[C:1]([C:2]#[C:3][C:4]([C:5](=[O:6])[H:12])([H:10])[H:11])([H:7])([H:8])[H:9]>>[C-:5]#[O+:6].[C:1]([C:2](=[C:3]=[C:4]([H:10])[H:11])[H:12])([H:7])([H:8])[H:9]"
C        2.22434862      -0.35707780       0.14579641
C        0.77090757      -0.11244444       0.01238749
C       -0.09032874       0.68735413       0.47063913
C       -1.44993799       0.96224660       0.37681906
C       -2.02857935      -0.63390984      -0.97845450
O       -3.10467696      -1.05363821      -0.90486857
H        2.66133889       0.21775677       0.96280069
H        2.75668355      -0.09132312      -0.76945492
H        2.41585722      -1.41245362       0.34893056
H       -1.68953388       1.91424921      -0.09849383
H       -2.03588083       0.81722982       1.28190644
H       -0.43019809      -0.93798950      -0.84800795
12
Frame=16 idx=002012 GeodesicLength=1.008056390759834 rxn_smarts="[C:1]([C:2]#[C:3][C:4]([C:5](=[O:6])[H:12])([H:10])[H:11])([H:7])([H:8])[H:9]>>[C-:5]#[O+:6].[C:1]([C:2](=[C:3]=[C:4]([H:10])[H:11])[H:12])([H:7])([H:8])[H:9]"
C        2.23082054      -0.35244044       0.15177150
C        0.77739138      -0.11579721       0.00153855
C       -0.08472386       0.68275698       0.46154865
C       -1.44503199       0.96066225       0.37141066
C       -2.05561351      -0.64042587      -0.98961416
O       -3.13099166      -1.05694953      -0.88263953
H        2.65361794       0.21327185       0.98254945
H        2.77444111      -0.07066694      -0.75202413
H        2.42644239      -1.40925252       0.34339571
H       -1.67837892       1.91767331      -0.09744616
H       -2.02444337       0.82284804       1.28186662
H       -0.44353005      -0.95167994      -0.87235717
