17
Frame=0 idx=011057 GeodesicLength=0.0 rxn_smarts="[C:1]([C:2]([C@@:3]1([H:13])[O:4][C@@:5]2([H:14])[C:6]([H:15])([H:16])[C@@:7]12[H:17])([H:11])[H:12])([H:8])([H:9])[H:10]>>[C:1](/[C:2](=[C:3](\[O:4][C:5]1([H:14])[C:6]([H:15])=[C:7]1[H:17])[H:13])[H:11])([H:8])([H:9])[H:10].[H:12][H:16]"
C        2.13122656       0.63641987       0.30010899
C        1.27441088      -0.45209487      -0.31104040
C        0.22896728      -1.03653292       0.35733492
O       -0.36091813      -0.32309780       1.38678952
C       -1.63812918      -0.03272803       0.84123669
C       -1.70432706       0.64049197      -0.48892320
C       -1.84881800      -0.70025034      -0.44478652
H        2.92406513       0.18892923       0.90399275
H        1.53497296       1.27686401       0.94777336
H        2.60029519       1.24943814      -0.46996510
H        1.75901564      -1.07721282      -1.05688333
H        0.41728101       0.58831356      -1.03115584
H       -0.00829080      -2.09046050       0.28684069
H       -2.37601328       0.13659111       1.62023287
H       -2.21211997       1.50925540      -0.87616926
H       -0.37129334       1.00699439      -1.03654150
H       -2.35032496      -1.52092039      -0.92884470
17
Frame=1 idx=011057 GeodesicLength=0.10298785119090244 rxn_smarts="[C:1]([C:2]([C@@:3]1([H:13])[O:4][C@@:5]2([H:14])[C:6]([H:15])([H:16])[C@@:7]12[H:17])([H:11])[H:12])([H:8])([H:9])[H:10]>>[C:1](/[C:2](=[C:3](\[O:4][C:5]1([H:14])[C:6]([H:15])=[C:7]1[H:17])[H:13])[H:11])([H:8])([H:9])[H:10].[H:12][H:16]"
C        2.16730008       0.61736963       0.30245622
C        1.27067496      -0.43393138      -0.31467425
C        0.22508580      -1.00977519       0.36612447
O       -0.37551368      -0.28070270       1.37975788
C       -1.66066041      -0.03149438       0.83353438
C       -1.73503414       0.63565373      -0.49836537
C       -1.84320839      -0.71175079      -0.45115178
H        2.95227148       0.13732486       0.89166377
H        1.59833286       1.26767408       0.96492034
H        2.64805513       1.22675812      -0.46342471
H        1.73424915      -1.06037109      -1.07301463
H        0.42021579       0.62867074      -1.03403705
H        0.00781963      -2.07039200       0.34085506
H       -2.40680145       0.10465232       1.61085925
H       -2.27868861       1.48134854      -0.88810102
H       -0.39362768       1.03897585      -1.03053256
H       -2.33047052      -1.54001033      -0.93686999
17
Frame=2 idx=011057 GeodesicLength=0.20459826801684805 rxn_smarts="[C:1]([C:2]([C@@:3]1([H:13])[O:4][C@@:5]2([H:14])[C:6]([H:15])([H:16])[C@@:7]12[H:17])([H:11])[H:12])([H:8])([H:9])[H:10]>>[C:1](/[C:2](=[C:3](\[O:4][C:5]1([H:14])[C:6]([H:15])=[C:7]1[H:17])[H:13])[H:11])([H:8])([H:9])[H:10].[H:12][H:16]"
C        2.20245303       0.59742388       0.30514237
C        1.26710412      -0.41478595      -0.31802621
C        0.22127916      -0.98251808       0.37451429
O       -0.39038138      -0.23811461       1.37181129
C       -1.68249944      -0.02999930       0.82577750
C       -1.76558486       0.63034235      -0.50814098
C       -1.83725554      -0.72273157      -0.45696136
H        2.97837227       0.08477820       0.87889932
H        1.66104950       1.25585956       0.98279487
H        2.69489367       1.20339563      -0.45619102
H        1.70977767      -1.04196769      -1.08849271
H        0.42341756       0.66999576      -1.03692251
H        0.02400976      -2.04751124       0.39418943
H       -2.43484816       0.07320441       1.60191123
H       -2.34451696       1.45119477      -0.90037399
H       -0.41701847       1.07009046      -1.02619782
H       -2.31025193      -1.55865657      -0.94373373
17
Frame=3 idx=011057 GeodesicLength=0.3049159625737625 rxn_smarts="[C:1]([C:2]([C@@:3]1([H:13])[O:4][C@@:5]2([H:14])[C:6]([H:15])([H:16])[C@@:7]12[H:17])([H:11])[H:12])([H:8])([H:9])[H:10]>>[C:1](/[C:2](=[C:3](\[O:4][C:5]1([H:14])[C:6]([H:15])=[C:7]1[H:17])[H:13])[H:11])([H:8])([H:9])[H:10].[H:12][H:16]"
C        2.23664514       0.57658971       0.30815544
C        1.26376069      -0.39464055      -0.32105677
C        0.21754925      -0.95476181       0.38249110
O       -0.40551847      -0.19537968       1.36293511
C       -1.70363644      -0.02824488       0.81797462
C       -1.79597110       0.62453631      -0.51822735
C       -1.83097975      -0.73319925      -0.46221844
H        3.00234458       0.03135640       0.86559964
H        1.72302922       1.24132944       1.00142963
H        2.74071635       1.17939716      -0.44824820
H        1.68569266      -1.02196772      -1.10330332
H        0.42690722       0.71225769      -1.03978180
H        0.04023910      -2.02184989       0.44676511
H       -2.46017051       0.04233587       1.59344716
H       -2.40947064       1.41879422      -0.91286330
H       -0.44143648       1.10029325      -1.02366032
H       -2.28970084      -1.57684627      -0.94943830
17
Frame=4 idx=011057 GeodesicLength=0.4040857350126381 rxn_smarts="[C:1]([C:2]([C@@:3]1([H:13])[O:4][C@@:5]2([H:14])[C:6]([H:15])([H:16])[C@@:7]12[H:17])([H:11])[H:12])([H:8])([H:9])[H:10]>>[C:1](/[C:2](=[C:3](\[O:4][C:5]1([H:14])[C:6]([H:15])=[C:7]1[H:17])[H:13])[H:11])([H:8])([H:9])[H:10].[H:12][H:16]"
C        2.26987933       0.55485470       0.31147595
C        1.26069753      -0.37345776      -0.32372706
C        0.21389559      -0.92648445       0.39006066
O       -0.42092317      -0.15249673       1.35312387
C       -1.72409437      -0.02623199       0.81013260
C       -1.82620160       0.61820521      -0.52860757
C       -1.82438667      -0.74317032      -0.46693045
H        3.02419567      -0.02293165       0.85161206
H        1.78425634       1.22396949       1.02087887
H        2.78549296       1.15480170      -0.43957377
H        1.66205715      -1.00031344      -1.11744365
H        0.43070194       0.75545534      -1.04257236
H        0.05645425      -1.99341552       0.49854329
H       -2.48283734       0.01212351       1.58550220
H       -2.47353070       1.38408822      -0.92550113
H       -0.46685090       1.12959832      -1.02297612
H       -2.26880604      -1.59459465      -0.95399739
17
Frame=5 idx=011057 GeodesicLength=0.5024813718255472 rxn_smarts="[C:1]([C:2]([C@@:3]1([H:13])[O:4][C@@:5]2([H:14])[C:6]([H:15])([H:16])[C@@:7]12[H:17])([H:11])[H:12])([H:8])([H:9])[H:10]>>[C:1](/[C:2](=[C:3](\[O:4][C:5]1([H:14])[C:6]([H:15])=[C:7]1[H:17])[H:13])[H:11])([H:8])([H:9])[H:10].[H:12][H:16]"
C        2.30222950       0.53222706       0.31508355
C        1.25792580      -0.35119113      -0.32599971
C        0.21030168      -0.89763748       0.39723207
O       -0.43657365      -0.10943054       1.34239752
C       -1.74393323      -0.02399192       0.80228439
C       -1.85634310       0.61133368      -0.53920087
C       -1.81747633      -0.75265329      -0.47110760
H        3.04392234      -0.07800561       0.83693568
H        1.84483387       1.20381340       1.04103488
H        2.82944171       1.12954274      -0.43018839
H        1.63892980      -0.97697325      -1.13087522
H        0.43481944       0.79959672      -1.04535140
H        0.07252015      -1.96239800       0.54943062
H       -2.50296135      -0.01740820       1.57802854
H       -2.53678874       1.34699987      -0.93822439
H       -0.49333285       1.15807896      -1.02401101
H       -2.24751502      -1.61190301      -0.95746864
17
Frame=6 idx=011057 GeodesicLength=0.6000209049380474 rxn_smarts="[C:1]([C:2]([C@@:3]1([H:13])[O:4][C@@:5]2([H:14])[C:6]([H:15])([H:16])[C@@:7]12[H:17])([H:11])[H:12])([H:8])([H:9])[H:10]>>[C:1](/[C:2](=[C:3](\[O:4][C:5]1([H:14])[C:6]([H:15])=[C:7]1[H:17])[H:13])[H:11])([H:8])([H:9])[H:10].[H:12][H:16]"
C        2.33361047       0.50869018       0.31896332
C        1.25553735      -0.32782701      -0.32783557
C        0.20678275      -0.86822987       0.40399110
O       -0.45248793      -0.06622554       1.33071920
C       -1.76313699      -0.02152387       0.79441905
C       -1.88637120       0.60386855      -0.55002228
C       -1.81025402      -0.76167321      -0.47476153
H        3.06146316      -0.13384972       0.82138843
H        1.90457086       1.18069252       1.06194811
H        2.87239919       1.10368301      -0.42004043
H        1.61637803      -0.95187623      -1.14363720
H        0.43926881       0.84466196      -1.04808348
H        0.08845292      -1.92868198       0.59945777
H       -2.52056724      -0.04616880       1.57111974
H       -2.59903459       1.30754693      -0.95087839
H       -0.52077331       1.18570722      -1.02690194
H       -2.22583825      -1.62879413      -0.95984591
17
Frame=7 idx=011057 GeodesicLength=0.6966980595955738 rxn_smarts="[C:1]([C:2]([C@@:3]1([H:13])[O:4][C@@:5]2([H:14])[C:6]([H:15])([H:16])[C@@:7]12[H:17])([H:11])[H:12])([H:8])([H:9])[H:10]>>[C:1](/[C:2](=[C:3](\[O:4][C:5]1([H:14])[C:6]([H:15])=[C:7]1[H:17])[H:13])[H:11])([H:8])([H:9])[H:10].[H:12][H:16]"
C        2.36397016       0.48425034       0.32308526
C        1.25358328      -0.30334278      -0.32919926
C        0.20334424      -0.83825351       0.41034278
O       -0.46866822      -0.02290565       1.31808931
C       -1.78170546      -0.01884412       0.78654246
C       -1.91626514       0.59576807      -0.56104658
C       -1.80270601      -0.77024930      -0.47790233
H        3.07675744      -0.19037362       0.80485654
H        1.96336890       1.15450440       1.08360795
H        2.91431415       1.07725842      -0.40911991
H        1.59445036      -0.92497843      -1.15573580
H        0.44405286       0.89062050      -1.05077506
H        0.10418797      -1.89231754       0.64859115
H       -2.53570027      -0.07407871       1.56480070
H       -2.66012149       1.26574556      -0.96335086
H       -0.54911509       1.21247142      -1.03164687
H       -2.20374767      -1.64527507      -0.96113947
17
Frame=8 idx=011057 GeodesicLength=0.7926047939983768 rxn_smarts="[C:1]([C:2]([C@@:3]1([H:13])[O:4][C@@:5]2([H:14])[C:6]([H:15])([H:16])[C@@:7]12[H:17])([H:11])[H:12])([H:8])([H:9])[H:10]>>[C:1](/[C:2](=[C:3](\[O:4][C:5]1([H:14])[C:6]([H:15])=[C:7]1[H:17])[H:13])[H:11])([H:8])([H:9])[H:10].[H:12][H:16]"
C        2.39330677       0.45890228       0.32742042
C        1.25211303      -0.27770460      -0.33004912
C        0.19998713      -0.80769955       0.41628887
O       -0.48511324       0.02052844       1.30449325
C       -1.79966500      -0.01597464       0.77865994
C       -1.94604270       0.58697844      -0.57224437
C       -1.79482504      -0.77840493      -0.48053510
H        3.08973301      -0.24753052       0.78724905
H        2.02115851       1.12518693       1.10594928
H        2.95525147       1.05023916      -0.39739414
H        1.57321169      -0.89620684      -1.16717323
H        0.44917501       0.93746913      -1.05345011
H        0.11966177      -1.85329700       0.69679210
H       -2.54842662      -0.10108332       1.55909047
H       -2.71998225       1.22157226      -0.97554346
H       -0.57833539       1.23839535      -1.03818984
H       -2.18120814      -1.66137058      -0.96136402
17
Frame=9 idx=011057 GeodesicLength=0.8879679830633437 rxn_smarts="[C:1]([C:2]([C@@:3]1([H:13])[O:4][C@@:5]2([H:14])[C:6]([H:15])([H:16])[C@@:7]12[H:17])([H:11])[H:12])([H:8])([H:9])[H:10]>>[C:1](/[C:2](=[C:3](\[O:4][C:5]1([H:14])[C:6]([H:15])=[C:7]1[H:17])[H:13])[H:11])([H:8])([H:9])[H:10].[H:12][H:16]"
C        2.42162568       0.43268669       0.33188898
C        1.25113598      -0.25089684      -0.33030146
C        0.19670631      -0.77655660       0.42185387
O       -0.50180528       0.06402462       1.28998635
C       -1.81706291      -0.01299827       0.77085265
C       -1.97572273       0.57752237      -0.58346789
C       -1.78659767      -0.78610502      -0.48271005
H        3.10025408      -0.30511152       0.76874834
H        2.07792347       1.09297070       1.12859094
H        2.99543594       1.02244823      -0.38502369
H        1.55276493      -0.86557793      -1.17782311
H        0.45471356       0.98510165      -1.05620107
H        0.13473248      -1.81190367       0.74397012
H       -2.55888520      -0.12725257       1.55392470
H       -2.77857622       1.17505314      -0.98732458
H       -0.60848744       1.26358604      -1.04627025
H       -2.15815497      -1.67699102      -0.96069384
17
Frame=10 idx=011057 GeodesicLength=0.9827299089274519 rxn_smarts="[C:1]([C:2]([C@@:3]1([H:13])[O:4][C@@:5]2([H:14])[C:6]([H:15])([H:16])[C@@:7]12[H:17])([H:11])[H:12])([H:8])([H:9])[H:10]>>[C:1](/[C:2](=[C:3](\[O:4][C:5]1([H:14])[C:6]([H:15])=[C:7]1[H:17])[H:13])[H:11])([H:8])([H:9])[H:10].[H:12][H:16]"
C        2.44887318       0.40554142       0.33652203
C        1.25074585      -0.22286431      -0.32996323
C        0.19352220      -0.74478739       0.42701814
O       -0.51877912       0.10763973       1.27447239
C       -1.83387477      -0.00987878       0.76304284
C       -2.00530169       0.56725844      -0.59480999
C       -1.77799220      -0.79343305      -0.48440407
H        3.10829694      -0.36319853       0.74899657
H        2.13350010       1.05746342       1.15179448
H        3.03473429       0.99396189      -0.37179922
H        1.53311271      -0.83293033      -1.18782242
H        0.46064761       1.03364447      -1.05905233
H        0.14942160      -1.76788323       0.79020382
H       -2.56704093      -0.15240965       1.54940650
H       -2.83580239       1.12612871      -0.99863246
H       -0.63952173       1.28802211      -1.05598934
H       -2.13454166      -1.69227493      -0.95898371
17
Frame=11 idx=011057 GeodesicLength=1.0769285780030782 rxn_smarts="[C:1]([C:2]([C@@:3]1([H:13])[O:4][C@@:5]2([H:14])[C:6]([H:15])([H:16])[C@@:7]12[H:17])([H:11])[H:12])([H:8])([H:9])[H:10]>>[C:1](/[C:2](=[C:3](\[O:4][C:5]1([H:14])[C:6]([H:15])=[C:7]1[H:17])[H:13])[H:11])([H:8])([H:9])[H:10].[H:12][H:16]"
C        2.47498273       0.37746236       0.34127086
C        1.25099745      -0.19358611      -0.32897657
C        0.19044693      -0.71237965       0.43179093
O       -0.53604252       0.15134715       1.25794196
C       -1.85009958      -0.00666153       0.75524273
C       -2.03475330       0.55613262      -0.60622544
C       -1.76896883      -0.80040422      -0.48563506
H        3.11372759      -0.42167601       0.72795595
H        2.18772620       1.01864558       1.17540229
H        3.07317595       0.96467990      -0.35774759
H        1.51430131      -0.79819734      -1.19715447
H        0.46705020       1.08310205      -1.06202778
H        0.16366196      -1.72127270       0.83548538
H       -2.57294093      -0.17653330       1.54554064
H       -2.89152330       1.07482232      -1.00934955
H       -0.67144330       1.31173420      -1.06724300
H       -2.11029855      -1.70721531      -0.95627128
17
Frame=12 idx=011057 GeodesicLength=1.1706995304082741 rxn_smarts="[C:1]([C:2]([C@@:3]1([H:13])[O:4][C@@:5]2([H:14])[C:6]([H:15])([H:16])[C@@:7]12[H:17])([H:11])[H:12])([H:8])([H:9])[H:10]>>[C:1](/[C:2](=[C:3](\[O:4][C:5]1([H:14])[C:6]([H:15])=[C:7]1[H:17])[H:13])[H:11])([H:8])([H:9])[H:10].[H:12][H:16]"
C        2.49993663       0.34842062       0.34610443
C        1.25194554      -0.16300156      -0.32728702
C        0.18748848      -0.67929846       0.43616517
O       -0.55361192       0.19516345       1.24034519
C       -1.86574003      -0.00336098       0.74746070
C       -2.06409424       0.54405925      -0.61768593
C       -1.75949907      -0.80704678      -0.48640311
H        3.11642070      -0.48048708       0.70553243
H        2.24051669       0.97640830       1.19934040
H        3.11084677       0.93450629      -0.34281344
H        1.49639838      -0.76124078      -1.20581586
H        0.47400815       1.13354324      -1.06516725
H        0.17738726      -1.67207018       0.87978799
H       -2.57662635      -0.19955365       1.54233802
H       -2.94567601       1.02107515      -1.01938750
H       -0.70433117       1.33473996      -1.07997462
H       -2.08536981      -1.72185678      -0.95253960
17
Frame=13 idx=011057 GeodesicLength=1.2642149596640957 rxn_smarts="[C:1]([C:2]([C@@:3]1([H:13])[O:4][C@@:5]2([H:14])[C:6]([H:15])([H:16])[C@@:7]12[H:17])([H:11])[H:12])([H:8])([H:9])[H:10]>>[C:1](/[C:2](=[C:3](\[O:4][C:5]1([H:14])[C:6]([H:15])=[C:7]1[H:17])[H:13])[H:11])([H:8])([H:9])[H:10].[H:12][H:16]"
C        2.52374343       0.31839698       0.35097296
C        1.25360935      -0.13104494      -0.32480750
C        0.18464153      -0.64550115       0.44015038
O       -0.57149292       0.23908210       1.22166980
C       -1.88083136      -0.00004081       0.73972785
C       -2.09336605       0.53096501      -0.62911453
C       -1.74955923      -0.81337205      -0.48673949
H        3.11621850      -0.53951165       0.68183906
H        2.29187566       0.93085580       1.22331055
H        3.14796627       0.90317797      -0.32708085
H        1.47948954      -0.72193975      -1.21372331
H        0.48164290       1.18506713      -1.06846284
H        0.19050645      -1.62041498       0.92306959
H       -2.57819238      -0.22147544       1.53974882
H       -2.99822961       0.96487290      -1.02865176
H       -0.73835307       1.35708430      -1.09404110
H       -2.05966901      -1.73620144      -0.94786762
17
Frame=14 idx=011057 GeodesicLength=1.357421918833858 rxn_smarts="[C:1]([C:2]([C@@:3]1([H:13])[O:4][C@@:5]2([H:14])[C:6]([H:15])([H:16])[C@@:7]12[H:17])([H:11])[H:12])([H:8])([H:9])[H:10]>>[C:1](/[C:2](=[C:3](\[O:4][C:5]1([H:14])[C:6]([H:15])=[C:7]1[H:17])[H:13])[H:11])([H:8])([H:9])[H:10].[H:12][H:16]"
C        2.54628955       0.28728982       0.35583117
C        1.25608108      -0.09762109      -0.32146426
C        0.18193554      -0.61091455       0.44377273
O       -0.58975103       0.28316302       1.20182380
C       -1.89533386       0.00332766       0.73198366
C       -2.12249990       0.51668363      -0.64058727
C       -1.73905237      -0.81945341      -0.48660951
H        3.11297188      -0.59880807       0.65642783
H        2.34157880       0.88152994       1.24745509
H        3.18438329       0.87067095      -0.31043633
H        1.46351709      -0.68000131      -1.22097511
H        0.49005385       1.23793487      -1.07171926
H        0.20302075      -1.56604285       0.96546085
H       -2.57761291      -0.24214032       1.53782932
H       -3.04900312       0.90605338      -1.03713920
H       -0.77351126       1.37868396      -1.10956349
H       -2.03306738      -1.75035563      -0.94209003
17
Frame=15 idx=011057 GeodesicLength=1.450363960664561 rxn_smarts="[C:1]([C:2]([C@@:3]1([H:13])[O:4][C@@:5]2([H:14])[C:6]([H:15])([H:16])[C@@:7]12[H:17])([H:11])[H:12])([H:8])([H:9])[H:10]>>[C:1](/[C:2](=[C:3](\[O:4][C:5]1([H:14])[C:6]([H:15])=[C:7]1[H:17])[H:13])[H:11])([H:8])([H:9])[H:10].[H:12][H:16]"
C        2.56749128       0.25504912       0.36061019
C        1.25941191      -0.06266336      -0.31715828
C        0.17938261      -0.57548889       0.44705303
O       -0.60841202       0.32740989       1.18075309
C       -1.90923461       0.00671301       0.72422211
C       -2.15145709       0.50108398      -0.65209155
C       -1.72790985      -0.82533642      -0.48600786
H        3.10648607      -0.65828544       0.62917180
H        2.38947486       0.82831834       1.27160652
H        3.22012610       0.83678687      -0.29291134
H        1.44851260      -0.63520820      -1.22754308
H        0.49940566       1.29235444      -1.07474433
H        0.21487700      -1.50893359       1.00698746
H       -2.57493287      -0.26147659       1.53655374
H       -3.09787220       0.84458590      -1.04477471
H       -0.80988876       1.39946396      -1.12656403
H       -2.00546068      -1.76437301      -0.93516277
17
Frame=16 idx=011057 GeodesicLength=1.5430969432514987 rxn_smarts="[C:1]([C:2]([C@@:3]1([H:13])[O:4][C@@:5]2([H:14])[C:6]([H:15])([H:16])[C@@:7]12[H:17])([H:11])[H:12])([H:8])([H:9])[H:10]>>[C:1](/[C:2](=[C:3](\[O:4][C:5]1([H:14])[C:6]([H:15])=[C:7]1[H:17])[H:13])[H:11])([H:8])([H:9])[H:10].[H:12][H:16]"
C        2.58728728       0.22157696       0.36520874
C        1.26364533      -0.02605079      -0.31174394
C        0.17698579      -0.53913543       0.45004240
O       -0.62753354       0.37186152       1.15839424
C       -1.92253584       0.01011321       0.71642448
C       -2.18019169       0.48399718      -0.66364908
C       -1.71604678      -0.83107518      -0.48490718
H        3.09653283      -0.71790435       0.59979509
H        2.43547358       0.77095570       1.29563514
H        3.25523607       0.80131515      -0.27453974
H        1.43448891      -0.58722152      -1.23338043
H        0.50985220       1.34864797      -1.07722147
H        0.22601775      -1.44898559       1.04772447
H       -2.57022167      -0.27936345       1.53589688
H       -3.14469880       0.78029916      -1.05157259
H       -0.84758481       1.41930779      -1.14511915
H       -1.97670663      -1.77833833      -0.92698785
