10
Frame=0 idx=008750 GeodesicLength=0.0 rxn_smarts="[O:1]=[C:2]([c:3]1[n:4][o:5][c:6]([H:9])[c:7]1[H:10])[H:8]>>[O+:1]#[C:2][C:3]1=[C:7]([H:10])[C:6]([H:8])([H:9])[O:5][N-:4]1"
O       -2.53546237       0.26063393      -0.52201558
C       -1.40703633       0.03202960      -0.63510532
C       -0.06030215       0.55308884      -0.99637915
N        0.43449203      -0.68591138      -1.37867981
O        1.19607834      -1.09942958      -0.40330506
C        0.83771782      -0.33056343       0.71463975
C        0.51613793       0.94731059       0.21602017
H       -0.54965080      -0.83981217       0.59840832
H        1.38272024      -0.62430931       1.60280215
H        0.18530529       1.78696292       0.80361453
10
Frame=1 idx=008750 GeodesicLength=0.06627827874840947 rxn_smarts="[O:1]=[C:2]([c:3]1[n:4][o:5][c:6]([H:9])[c:7]1[H:10])[H:8]>>[O+:1]#[C:2][C:3]1=[C:7]([H:10])[C:6]([H:8])([H:9])[O:5][N-:4]1"
O       -2.54235883       0.28071983      -0.53889537
C       -1.41721571       0.02824860      -0.63894703
C       -0.06848469       0.54431786      -0.98912236
N        0.43972920      -0.68260782      -1.38035810
O        1.20424929      -1.09741868      -0.40157806
C        0.84007083      -0.33596767       0.71984259
C        0.51388424       0.94270477       0.21986495
H       -0.56865799      -0.85456431       0.60522139
H        1.41168787      -0.61030789       1.59791129
H        0.18709578       1.78487531       0.80606071
10
Frame=2 idx=008750 GeodesicLength=0.13253645123749447 rxn_smarts="[O:1]=[C:2]([c:3]1[n:4][o:5][c:6]([H:9])[c:7]1[H:10])[H:8]>>[O+:1]#[C:2][C:3]1=[C:7]([H:10])[C:6]([H:8])([H:9])[O:5][N-:4]1"
O       -2.54880867       0.30067463      -0.55595150
C       -1.42751662       0.02461587      -0.64267030
C       -0.07669849       0.53532120      -0.98161561
N        0.44489423      -0.67918914      -1.38194942
O        1.21245022      -1.09538968      -0.39984900
C        0.84277543      -0.34142532       0.72513818
C        0.51166603       0.93800002       0.22383397
H       -0.58811958      -0.86949952       0.61209682
H        1.44033624      -0.59584564       1.59239529
H        0.18902121       1.78273757       0.80857158
10
Frame=3 idx=008750 GeodesicLength=0.198772859578106 rxn_smarts="[O:1]=[C:2]([c:3]1[n:4][o:5][c:6]([H:9])[c:7]1[H:10])[H:8]>>[O+:1]#[C:2][C:3]1=[C:7]([H:10])[C:6]([H:8])([H:9])[O:5][N-:4]1"
O       -2.55481112       0.32048326      -0.57314303
C       -1.43793250       0.02112808      -0.64626899
C       -0.08494724       0.52608897      -0.97386235
N        0.44999259      -0.67564761      -1.38346243
O        1.22070704      -1.09332395      -0.39813741
C        0.84587779      -0.34690362       0.73050254
C        0.50948987       0.93321261       0.22790727
H       -0.60803294      -0.88460993       0.61904237
H        1.46857375      -0.58099380       1.58630092
H        0.19108278       1.78056600       0.81112112
10
Frame=4 idx=008750 GeodesicLength=0.26498782374254976 rxn_smarts="[O:1]=[C:2]([c:3]1[n:4][o:5][c:6]([H:9])[c:7]1[H:10])[H:8]>>[O+:1]#[C:2][C:3]1=[C:7]([H:10])[C:6]([H:8])([H:9])[O:5][N-:4]1"
O       -2.56036419       0.34013532      -0.59045708
C       -1.44846166       0.01778468      -0.64973275
C       -0.09323778       0.51661003      -0.96586050
N        0.45502460      -0.67197541      -1.38490334
O        1.22903999      -1.09120626      -0.39646163
C        0.84941594      -0.35237471       0.73591558
C        0.50735740       0.92835528       0.23207123
H       -0.62840733      -0.89989038       0.62606801
H        1.49635160      -0.56581216       1.57967132
H        0.19328142       1.77837360       0.81368916
10
Frame=5 idx=008750 GeodesicLength=0.33118268434536685 rxn_smarts="[O:1]=[C:2]([c:3]1[n:4][o:5][c:6]([H:9])[c:7]1[H:10])[H:8]>>[O+:1]#[C:2][C:3]1=[C:7]([H:10])[C:6]([H:8])([H:9])[O:5][N-:4]1"
O       -2.56547466       0.35962893      -0.60786664
C       -1.45910002       0.01458407      -0.65306428
C       -0.10157232       0.50687182      -0.95761127
N        0.45999538      -0.66816528      -1.38627900
O        1.23746893      -1.08902094      -0.39483658
C        0.85342370      -0.35781216       0.74135602
C        0.50527005       0.92343876       0.23631103
H       -0.64925923      -0.91533955       0.63317691
H        1.52363673      -0.55035704       1.57255946
H        0.19561145       1.77617139       0.81625434
10
Frame=6 idx=008750 GeodesicLength=0.3973567420836478 rxn_smarts="[O:1]=[C:2]([c:3]1[n:4][o:5][c:6]([H:9])[c:7]1[H:10])[H:8]>>[O+:1]#[C:2][C:3]1=[C:7]([H:10])[C:6]([H:8])([H:9])[O:5][N-:4]1"
O       -2.57013548       0.37896297      -0.62537772
C       -1.46985044       0.01152899      -0.65625535
C       -0.10995758       0.49685913      -0.94910535
N        0.46490214      -0.66420898      -1.38759378
O        1.24600719      -1.08675879      -0.39327783
C        0.85792970      -0.36319561       0.74680973
C        0.50322574       0.91846910       0.24062126
H       -0.67061392      -0.93095903       0.64037665
H        1.55042438      -0.53466414       1.56499878
H        0.19806826       1.77396635       0.81880361
10
Frame=7 idx=008750 GeodesicLength=0.4635167032137744 rxn_smarts="[O:1]=[C:2]([c:3]1[n:4][o:5][c:6]([H:9])[c:7]1[H:10])[H:8]>>[O+:1]#[C:2][C:3]1=[C:7]([H:10])[C:6]([H:8])([H:9])[O:5][N-:4]1"
O       -2.57435088       0.39815177      -0.64297123
C       -1.48071058       0.00861432      -0.65931290
C       -0.11839598       0.48655183      -0.94033761
N        0.46975048      -0.66010069      -1.38885222
O        1.25467443      -1.08440477      -0.39179804
C        0.86296375      -0.36850422       0.75226039
C        0.50122183       0.91345071       0.24499333
H       -0.69250578      -0.94675354       0.64766611
H        1.57671281      -0.51876875       1.55703214
H        0.20063992       1.77176334       0.82132002
10
Frame=8 idx=008750 GeodesicLength=0.5296598402904943 rxn_smarts="[O:1]=[C:2]([c:3]1[n:4][o:5][c:6]([H:9])[c:7]1[H:10])[H:8]>>[O+:1]#[C:2][C:3]1=[C:7]([H:10])[C:6]([H:8])([H:9])[O:5][N-:4]1"
O       -2.57811171       0.41719951      -0.66067779
C       -1.49168816       0.00584971      -0.66223118
C       -0.12689222       0.47593061      -0.93129243
N        0.47453378      -0.65583056      -1.39005415
O        1.26347462      -1.08195689      -0.39040760
C        0.86854353      -0.37372876       0.75770103
C        0.49925113       0.90838036       0.24943273
H       -0.71498016      -0.96272774       0.65505076
H        1.60255179      -0.50267739       1.54867718
H        0.20331741       1.76956115       0.82380146
10
Frame=9 idx=008750 GeodesicLength=0.5957827665646167 rxn_smarts="[O:1]=[C:2]([c:3]1[n:4][o:5][c:6]([H:9])[c:7]1[H:10])[H:8]>>[O+:1]#[C:2][C:3]1=[C:7]([H:10])[C:6]([H:8])([H:9])[O:5][N-:4]1"
O       -2.58142136       0.43613134      -0.67846228
C       -1.50277724       0.00322876      -0.66502950
C       -0.13544696       0.46497159      -0.92196251
N        0.47926365      -0.65139407      -1.39120278
O        1.27242505      -1.07940359      -0.38911119
C        0.87469773      -0.37884673       0.76311716
C        0.49730967       0.90326134       0.25393099
H       -0.73807506      -0.97889517       0.66252261
H        1.62794350      -0.48641632       1.53996845
H        0.20608102       1.76736285       0.82622905
10
Frame=10 idx=008750 GeodesicLength=0.6618935664823595 rxn_smarts="[O:1]=[C:2]([c:3]1[n:4][o:5][c:6]([H:9])[c:7]1[H:10])[H:8]>>[O+:1]#[C:2][C:3]1=[C:7]([H:10])[C:6]([H:8])([H:9])[O:5][N-:4]1"
O       -2.58426101       0.45495781      -0.69637650
C       -1.51399072       0.00076282      -0.66769744
C       -0.14406613       0.45364632      -0.91232244
N        0.48392793      -0.64678271      -1.39229192
O        1.28153100      -1.07674130      -0.38792086
C        0.88144334      -0.38385564       0.76850792
C        0.49538627       0.89808221       0.25850373
H       -0.76186201      -0.99526322       0.67008320
H        1.65297082      -0.46996690       1.53090521
H        0.20892050       1.76516061       0.82860909
10
Frame=11 idx=008750 GeodesicLength=0.727995485067498 rxn_smarts="[O:1]=[C:2]([c:3]1[n:4][o:5][c:6]([H:9])[c:7]1[H:10])[H:8]>>[O+:1]#[C:2][C:3]1=[C:7]([H:10])[C:6]([H:8])([H:9])[O:5][N-:4]1"
O       -2.58662376       0.47370336      -0.71441106
C       -1.52532822      -0.00154775      -0.67024415
C       -0.15275211       0.44192260      -0.90235414
N        0.48852997      -0.64198917      -1.39331967
O        1.29080737      -1.07396285      -0.38684274
C        0.88881033      -0.38873952       0.77386583
C        0.49347463       0.89283784       0.26315286
H       -0.78639992      -1.01185063       0.67771976
H        1.67766148      -0.45332684       1.52150275
H        0.21182023       1.76295296       0.83093057
10
Frame=12 idx=008750 GeodesicLength=0.7940870107998146 rxn_smarts="[O:1]=[C:2]([c:3]1[n:4][o:5][c:6]([H:9])[c:7]1[H:10])[H:8]>>[O+:1]#[C:2][C:3]1=[C:7]([H:10])[C:6]([H:8])([H:9])[O:5][N-:4]1"
O       -2.58848135       0.49239293      -0.73261188
C       -1.53680114      -0.00369489      -0.67266919
C       -0.16151123       0.42976331      -0.89202605
N        0.49306232      -0.63700456      -1.39427771
O        1.30025768      -1.07106755      -0.38588243
C        0.89681563      -0.39349753       0.77919228
C        0.49155854       0.88751136       0.26789889
H       -0.81176891      -1.02866761       0.68543235
H        1.70210934      -0.43646076       1.51174100
H        0.21475912       1.76072530       0.83320273
10
Frame=13 idx=008750 GeodesicLength=0.8601703013536236 rxn_smarts="[O:1]=[C:2]([c:3]1[n:4][o:5][c:6]([H:9])[c:7]1[H:10])[H:8]>>[O+:1]#[C:2][C:3]1=[C:7]([H:10])[C:6]([H:8])([H:9])[O:5][N-:4]1"
O       -2.58982174       0.51106262      -0.75095706
C       -1.54840689      -0.00568139      -0.67498845
C       -0.17034541       0.41712512      -0.88131523
N        0.49753026      -0.63182215      -1.39516182
O        1.30990033      -1.06804745      -0.38504362
C        0.90549398      -0.39811115       0.78448082
C        0.48962967       0.88209388       0.27274517
H       -0.83804117      -1.04573811       0.69319924
H        1.72634503      -0.41935501       1.50162886
H        0.21771595       1.75847365       0.83541208
10
Frame=14 idx=008750 GeodesicLength=0.9262439042319772 rxn_smarts="[O:1]=[C:2]([c:3]1[n:4][o:5][c:6]([H:9])[c:7]1[H:10])[H:8]>>[O+:1]#[C:2][C:3]1=[C:7]([H:10])[C:6]([H:8])([H:9])[O:5][N-:4]1"
O       -2.59060577       0.52972619      -0.76949795
C       -1.56015753      -0.00749065      -0.67719212
C       -0.17926164       0.40396211      -0.87018098
N        0.50192156      -0.62643007      -1.39595906
O        1.31974140      -1.06490045      -0.38433581
C        0.91487747      -0.40257613       0.78973251
C        0.48767401       0.87656549       0.27771570
H       -0.86531024      -1.06307446       0.70101658
H        1.75044616      -0.40196602       1.49113207
H        0.22067459       1.75618396       0.83756906
10
Frame=15 idx=008750 GeodesicLength=0.9923050104091634 rxn_smarts="[O:1]=[C:2]([c:3]1[n:4][o:5][c:6]([H:9])[c:7]1[H:10])[H:8]>>[O+:1]#[C:2][C:3]1=[C:7]([H:10])[C:6]([H:8])([H:9])[O:5][N-:4]1"
O       -2.59080358       0.54841595      -0.78823476
C       -1.57205447      -0.00911732      -0.67928873
C       -0.18826491       0.39021950      -0.85858662
N        0.50623391      -0.62081889      -1.39665900
O        1.32979664      -1.06162026      -0.38376398
C        0.92500564      -0.40687555       0.79494396
C        0.48567925       0.87091015       0.28282384
H       -0.89366840      -1.08070034       0.70886188
H        1.77446252      -0.38426045       1.48023648
H        0.22361339       1.75384722       0.83966692
10
Frame=16 idx=008750 GeodesicLength=1.0583515818441007 rxn_smarts="[O:1]=[C:2]([c:3]1[n:4][o:5][c:6]([H:9])[c:7]1[H:10])[H:8]>>[O+:1]#[C:2][C:3]1=[C:7]([H:10])[C:6]([H:8])([H:9])[O:5][N-:4]1"
O       -2.59036698       0.56716755      -0.80720540
C       -1.58410543      -0.01055251      -0.68127536
C       -0.19736459       0.37583168      -0.84648188
N        0.51045747      -0.61497520      -1.39724587
O        1.34007720      -1.05820279      -0.38333474
C        0.93592107      -0.41099983       0.80011568
C        0.48362647       0.86510204       0.28809598
H       -0.92322349      -1.09863431       0.71672122
H        1.79847227      -0.36618130       1.46889805
H        0.22650601       1.75144466       0.84171231
