12
Frame=0 idx=003699 GeodesicLength=0.0 rxn_smarts="[C:1]([C:2](=[O:3])[N:4](/[C:5](=[N:6]/[H:12])[H:11])[H:10])([H:7])([H:8])[H:9]>>[C-:2]#[O+:3].[C:1]([N:6](/[C:5](=[N:4]\[H:10])[H:11])[H:12])([H:7])([H:8])[H:9]"
C       -1.30378422      -0.47338185      -0.33848011
C       -0.39225601       1.42936400       0.09241015
O       -0.72122277       2.48784419      -0.16261790
N        1.40217396       0.92592123       0.83548828
C        1.48018422      -0.16638779       0.09784914
N        0.59745121      -1.13079327       0.25158444
H       -1.74227973       0.17379702      -1.09422851
H       -1.23054103      -1.47355021      -0.74745407
H       -1.85980249      -0.46236487       0.58911101
H        0.88015351       0.68536090       1.67813113
H        2.15143374      -0.13074459      -0.76388803
H        0.73848960      -1.86506481      -0.43790557
12
Frame=1 idx=003699 GeodesicLength=0.07099254193526068 rxn_smarts="[C:1]([C:2](=[O:3])[N:4](/[C:5](=[N:6]/[H:12])[H:11])[H:10])([H:7])([H:8])[H:9]>>[C-:2]#[O+:3].[C:1]([N:6](/[C:5](=[N:4]\[H:10])[H:11])[H:12])([H:7])([H:8])[H:9]"
C       -1.30503479      -0.46991311      -0.31268436
C       -0.38731002       1.44245948       0.05933819
O       -0.66343725       2.50375846      -0.24861608
N        1.36574644       0.90808542       0.86725273
C        1.48912507      -0.16694523       0.11011270
N        0.62005630      -1.14916686       0.22001679
H       -1.79260835       0.17032794      -1.04437455
H       -1.25779686      -1.46590738      -0.73702865
H       -1.83983319      -0.47037871       0.62863352
H        0.82580570       0.64751066       1.69181751
H        2.17111930      -0.09378066      -0.74050825
H        0.77416765      -1.85605001      -0.49395957
12
Frame=2 idx=003699 GeodesicLength=0.14107142094615188 rxn_smarts="[C:1]([C:2](=[O:3])[N:4](/[C:5](=[N:6]/[H:12])[H:11])[H:10])([H:7])([H:8])[H:9]>>[C-:2]#[O+:3].[C:1]([N:6](/[C:5](=[N:4]\[H:10])[H:11])[H:12])([H:7])([H:8])[H:9]"
C       -1.30591511      -0.46574577      -0.28828196
C       -0.38409182       1.45502073       0.03003003
O       -0.60579101       2.51369232      -0.33223500
N        1.32826944       0.89082427       0.89451171
C        1.49666742      -0.16758341       0.12215290
N        0.64166109      -1.16555996       0.18963004
H       -1.83858117       0.16946605      -0.99292150
H       -1.28334760      -1.45636911      -0.72844752
H       -1.82086035      -0.47983922       0.66519706
H        0.77444337       0.61112289       1.70280426
H        2.18771523      -0.05873427      -0.71704988
H        0.80983051      -1.84629451      -0.54539013
12
Frame=3 idx=003699 GeodesicLength=0.2104682174076003 rxn_smarts="[C:1]([C:2](=[O:3])[N:4](/[C:5](=[N:6]/[H:12])[H:11])[H:10])([H:7])([H:8])[H:9]>>[C-:2]#[O+:3].[C:1]([N:6](/[C:5](=[N:4]\[H:10])[H:11])[H:12])([H:7])([H:8])[H:9]"
C       -1.30658218      -0.46085819      -0.26529760
C       -0.38245264       1.46738402       0.00406058
O       -0.54884229       2.51781706      -0.41281036
N        1.29032898       0.87418493       0.91762115
C        1.50293624      -0.16820857       0.13377056
N        0.66229575      -1.18004050       0.16048073
H       -1.88048840       0.17091616      -0.94056582
H       -1.30757439      -1.44497094      -0.72176523
H       -1.80305248      -0.49054410       0.69883395
H        0.72624521       0.57628455       1.71156334
H        2.20138448      -0.02551029      -0.69395948
H        0.84580172      -1.83645414      -0.59193182
12
Frame=4 idx=003699 GeodesicLength=0.27943072167649774 rxn_smarts="[C:1]([C:2](=[O:3])[N:4](/[C:5](=[N:6]/[H:12])[H:11])[H:10])([H:7])([H:8])[H:9]>>[C-:2]#[O+:3].[C:1]([N:6](/[C:5](=[N:4]\[H:10])[H:11])[H:12])([H:7])([H:8])[H:9]"
C       -1.30718131      -0.45523836      -0.24365729
C       -0.38218462       1.47983231      -0.01907078
O       -0.49304620       2.51641704      -0.49005266
N        1.25233065       0.85815665       0.93702440
C        1.50808608      -0.16875678       0.14485841
N        0.68203812      -1.19274925       0.13245020
H       -1.91874714       0.17438932      -0.88774911
H       -1.33090804      -1.43175921      -0.71689823
H       -1.78642380      -0.50228227       0.72973458
H        0.68115161       0.54296937       1.71851272
H        2.21249245       0.00603025      -0.67141761
H        0.88239220      -1.82700907      -0.63373463
12
Frame=5 idx=003699 GeodesicLength=0.3479623259622642 rxn_smarts="[C:1]([C:2](=[O:3])[N:4](/[C:5](=[N:6]/[H:12])[H:11])[H:10])([H:7])([H:8])[H:9]>>[C-:2]#[O+:3].[C:1]([N:6](/[C:5](=[N:4]\[H:10])[H:11])[H:12])([H:7])([H:8])[H:9]"
C       -1.30776094      -0.44888148      -0.22334596
C       -0.38299261       1.49240361      -0.04006950
O       -0.43898743       2.51005398      -0.56306716
N        1.21453085       0.84265234       0.95289641
C        1.51227517      -0.16924798       0.15529120
N        0.70095717      -1.20381854       0.10551168
H       -1.95355972       0.17959794      -0.83489897
H       -1.35360602      -1.41678167      -0.71360766
H       -1.77098012      -0.51470543       0.75794823
H        0.63892189       0.51123311       1.72373223
H        2.22129738       0.03590617      -0.64967914
H        0.91990438      -1.81841206      -0.67071136
12
Frame=6 idx=003699 GeodesicLength=0.4163257377127376 rxn_smarts="[C:1]([C:2](=[O:3])[N:4](/[C:5](=[N:6]/[H:12])[H:11])[H:10])([H:7])([H:8])[H:9]>>[C-:2]#[O+:3].[C:1]([N:6](/[C:5](=[N:4]\[H:10])[H:11])[H:12])([H:7])([H:8])[H:9]"
C       -1.30843519      -0.44179508      -0.20423250
C       -0.38467497       1.50529939      -0.05926813
O       -0.38697124       2.49916131      -0.63216583
N        1.17713838       0.82763298       0.96571508
C        1.51564009      -0.16966795       0.16507807
N        0.71914890      -1.21344537       0.07942220
H       -1.98541469       0.18636040      -0.78210322
H       -1.37603503      -1.40004274      -0.71185125
H       -1.75659328      -0.52775525       0.78374996
H        0.59941366       0.48093148       1.72759866
H        2.22819298       0.06429197      -0.62869120
H        0.95859041      -1.81097115      -0.70325184
12
Frame=7 idx=003699 GeodesicLength=0.4845954168555922 rxn_smarts="[C:1]([C:2](=[O:3])[N:4](/[C:5](=[N:6]/[H:12])[H:11])[H:10])([H:7])([H:8])[H:9]>>[C-:2]#[O+:3].[C:1]([N:6](/[C:5](=[N:4]\[H:10])[H:11])[H:12])([H:7])([H:8])[H:9]"
C       -1.30925553      -0.43399976      -0.18625019
C       -0.38702345       1.51852217      -0.07711082
O       -0.33731242       2.48433191      -0.69714383
N        1.14025203       0.81300568       0.97570050
C        1.51830453      -0.17004570       0.17417664
N        0.73669342      -1.22177980       0.05403202
H       -2.01460019       0.19451044      -0.72943604
H       -1.39840865      -1.38154583      -0.71148380
H       -1.74317658      -0.54130156       0.80726286
H        0.56237391       0.45199959       1.73020639
H        2.23344924       0.09126409      -0.60851539
H        0.99870370      -1.80496124      -0.73143835
12
Frame=8 idx=003699 GeodesicLength=0.5528766709709818 rxn_smarts="[C:1]([C:2](=[O:3])[N:4](/[C:5](=[N:6]/[H:12])[H:11])[H:10])([H:7])([H:8])[H:9]>>[C-:2]#[O+:3].[C:1]([N:6](/[C:5](=[N:4]\[H:10])[H:11])[H:12])([H:7])([H:8])[H:9]"
C       -1.31027637      -0.42550976      -0.16931470
C       -0.38988678       1.53211542      -0.09385068
O       -0.29021665       2.46602645      -0.75817599
N        1.10393862       0.79869168       0.98312931
C        1.52035531      -0.17039486       0.18257114
N        0.75366429      -1.22895250       0.02913149
H       -2.04141667       0.20394519      -0.67683355
H       -1.42092679      -1.36122942      -0.71246908
H       -1.73060687      -0.55533610       0.82863036
H        0.52760630       0.42431241       1.73171700
H        2.23730066       0.11694606      -0.58915102
H        1.04046493      -1.80061457      -0.75538428
12
Frame=9 idx=003699 GeodesicLength=0.621214968501181 rxn_smarts="[C:1]([C:2](=[O:3])[N:4](/[C:5](=[N:6]/[H:12])[H:11])[H:10])([H:7])([H:8])[H:9]>>[C-:2]#[O+:3].[C:1]([N:6](/[C:5](=[N:4]\[H:10])[H:11])[H:12])([H:7])([H:8])[H:9]"
C       -1.31153460      -0.41637161      -0.15337702
C       -0.39312975       1.54603053      -0.10977381
O       -0.24588823       2.44490415      -0.81516657
N        1.06824573       0.78459584       0.98815042
C        1.52188360      -0.17075314       0.19021592
N        0.77013977      -1.23509915       0.00457044
H       -2.06603632       0.21454929      -0.62430855
H       -1.44375472      -1.33909403      -0.71469311
H       -1.71881161      -0.56981278       0.84791490
H        0.49491911       0.39777907       1.73216364
H        2.23988715       0.14141929      -0.57068986
H        1.08407985      -1.79814746      -0.77500640
12
Frame=10 idx=003699 GeodesicLength=0.6896728331633851 rxn_smarts="[C:1]([C:2](=[O:3])[N:4](/[C:5](=[N:6]/[H:12])[H:11])[H:10])([H:7])([H:8])[H:9]>>[C-:2]#[O+:3].[C:1]([N:6](/[C:5](=[N:4]\[H:10])[H:11])[H:12])([H:7])([H:8])[H:9]"
C       -1.31306747      -0.40660760      -0.13838517
C       -0.39666094       1.56029138      -0.12497842
O       -0.20444931       2.42138503      -0.86836612
N        1.03320667       0.77064274       0.99097784
C        1.52294617      -0.17112247       0.19707450
N        0.78618821      -1.24030574      -0.01988715
H       -2.08866309       0.22626318      -0.57172301
H       -1.46704588      -1.31503249      -0.71817839
H       -1.70767225      -0.58480906       0.86517818
H        0.46417273       0.37225133       1.73165134
H        2.24133920       0.16482534      -0.55316518
H        1.12970597      -1.79778162      -0.79019841
12
Frame=11 idx=003699 GeodesicLength=0.7582740931625378 rxn_smarts="[C:1]([C:2](=[O:3])[N:4](/[C:5](=[N:6]/[H:12])[H:11])[H:10])([H:7])([H:8])[H:9]>>[C-:2]#[O+:3].[C:1]([N:6](/[C:5](=[N:4]\[H:10])[H:11])[H:12])([H:7])([H:8])[H:9]"
C       -1.31489808      -0.39626186      -0.12430880
C       -0.40040827       1.57486458      -0.13957026
O       -0.16600079       2.39598038      -0.91785944
N        0.99884203       0.75673906       0.99174296
C        1.52360293      -0.17151298       0.20307876
N        0.80188895      -1.24464517      -0.04446452
H       -2.10940486       0.23900409      -0.51899587
H       -1.49094186      -1.28897983      -0.72287063
H       -1.69710386      -0.60036669       0.88042572
H        0.43522722       0.34758567       1.73019388
H        2.24173902       0.18728220      -0.53666917
H        1.17745759      -1.79968944      -0.80070263
12
Frame=12 idx=003699 GeodesicLength=0.8270553098307715 rxn_smarts="[C:1]([C:2](=[O:3])[N:4](/[C:5](=[N:6]/[H:12])[H:11])[H:10])([H:7])([H:8])[H:9]>>[C-:2]#[O+:3].[C:1]([N:6](/[C:5](=[N:4]\[H:10])[H:11])[H:12])([H:7])([H:8])[H:9]"
C       -1.31704146      -0.38536798      -0.11112842
C       -0.40432612       1.58976819      -0.15355375
O       -0.13062489       2.36905253      -0.96387649
N        0.96517201       0.74280318       0.99060203
C        1.52390687      -0.17191236       0.20815756
N        0.81733051      -1.24815085      -0.06944829
H       -2.12835668       0.25270769      -0.46598113
H       -1.51557967      -1.26081129      -0.72877542
H       -1.68699604      -0.61658904       0.89363593
H        0.40797547       0.32360557       1.72782643
H        2.24117455       0.20894060      -0.52126581
H        1.22736545      -1.80404624      -0.80619264
12
Frame=13 idx=003699 GeodesicLength=0.8960134796487798 rxn_smarts="[C:1]([C:2](=[O:3])[N:4](/[C:5](=[N:6]/[H:12])[H:11])[H:10])([H:7])([H:8])[H:9]>>[C-:2]#[O+:3].[C:1]([N:6](/[C:5](=[N:4]\[H:10])[H:11])[H:12])([H:7])([H:8])[H:9]"
C       -1.31949448      -0.37398818      -0.09882939
C       -0.40836314       1.60495009      -0.16692782
O       -0.09832385       2.34089877      -1.00658668
N        0.93220247       0.72872468       0.98766194
C        1.52391738      -0.17230332       0.21222986
N        0.83263125      -1.25081527      -0.09514028
H       -2.14552377       0.26724965      -0.41260185
H       -1.54109358      -1.23047803      -0.73575769
H       -1.67727008      -0.63351488       0.90475571
H        0.38229448       0.30010893       1.72450922
H        2.23975100       0.22994117      -0.50699567
H        1.27927231      -1.81077360      -0.80631735
12
Frame=14 idx=003699 GeodesicLength=0.9651605591563857 rxn_smarts="[C:1]([C:2](=[O:3])[N:4](/[C:5](=[N:6]/[H:12])[H:11])[H:10])([H:7])([H:8])[H:9]>>[C-:2]#[O+:3].[C:1]([N:6](/[C:5](=[N:4]\[H:10])[H:11])[H:12])([H:7])([H:8])[H:9]"
C       -1.32223035      -0.36218020      -0.08744441
C       -0.41250481       1.62042607      -0.17964135
O       -0.06918329       2.31188628      -1.04611882
N        0.89997774       0.71442960       0.98303107
C        1.52370726      -0.17265579       0.21519025
N        0.84794484      -1.25263234      -0.12184417
H       -2.16090221       0.28250628      -0.35877465
H       -1.56758210      -1.19788409      -0.74379186
H       -1.66780772      -0.65123803       0.91367055
H        0.35813739       0.27690613       1.72021467
H        2.23752345       0.25044073      -0.49396525
H        1.33291980      -1.82000465      -0.80052603
12
Frame=15 idx=003699 GeodesicLength=1.0344896996021586 rxn_smarts="[C:1]([C:2](=[O:3])[N:4](/[C:5](=[N:6]/[H:12])[H:11])[H:10])([H:7])([H:8])[H:9]>>[C-:2]#[O+:3].[C:1]([N:6](/[C:5](=[N:4]\[H:10])[H:11])[H:12])([H:7])([H:8])[H:9]"
C       -1.32518107      -0.35002457      -0.07701125
C       -0.41671183       1.63619033      -0.19161872
O       -0.04324037       2.28222859      -1.08267312
N        0.86853303       0.69984049       0.97682319
C        1.52335766      -0.17292024       0.21696033
N        0.86347076      -1.25355920      -0.14984906
H       -2.17440882       0.29829079      -0.30444233
H       -1.59510483      -1.16296632      -0.75278041
H       -1.65847543      -0.66984193       0.92024781
H        0.33544461       0.25378886       1.71490693
H        2.23459026       0.27061006      -0.48221037
H        1.38772604      -1.83163687      -0.78835301
12
Frame=16 idx=003699 GeodesicLength=1.103971286855679 rxn_smarts="[C:1]([C:2](=[O:3])[N:4](/[C:5](=[N:6]/[H:12])[H:11])[H:10])([H:7])([H:8])[H:9]>>[C-:2]#[O+:3].[C:1]([N:6](/[C:5](=[N:4]\[H:10])[H:11])[H:12])([H:7])([H:8])[H:9]"
C       -1.32823290      -0.33766744      -0.06756356
C       -0.42093305       1.65216526      -0.20288241
O       -0.02043272       2.25215755      -1.11640733
N        0.83789450       0.68490746       0.96912730
C        1.52297005      -0.17305601       0.21753336
N        0.87949384      -1.25360085      -0.17925317
H       -2.18588480       0.31431798      -0.24962734
H       -1.62364723      -1.12579428      -0.76250368
H       -1.64914264      -0.68936664       0.92435461
H        0.31413700       0.23061938       1.70852615
H        2.23108094       0.29056843      -0.47168114
H        1.44269700      -1.84525085      -0.76962278
