9
Frame=0 idx=000019 GeodesicLength=0.0 rxn_smarts="[O:1]([c+:2]1[n-:3][c:4]([H:8])[n:5][n:6]1[H:9])[H:7]>>[O:1]([C:2]([N+:3]#[C:4][H:8])[N:6]([N-:5])[H:9])[H:7]"
O       -1.64692368      -0.25512245      -0.26645999
C       -0.36112237       0.05765001      -0.02698954
N        0.63311531      -0.64756909      -0.28813342
C        1.62544280      -1.24514214      -0.76106171
N       -0.08758308       2.39429524      -0.02255015
N       -0.22041527       1.37123200       0.60357615
H       -1.69200607      -1.02828583      -0.83750123
H        2.01498793      -1.98325931      -0.04124936
H       -0.26549558       1.33620154       1.64036921
9
Frame=1 idx=000019 GeodesicLength=0.09618259925480406 rxn_smarts="[O:1]([c+:2]1[n-:3][c:4]([H:8])[n:5][n:6]1[H:9])[H:7]>>[O:1]([C:2]([N+:3]#[C:4][H:8])[N:6]([N-:5])[H:9])[H:7]"
O       -1.68679887      -0.24483994      -0.26661134
C       -0.39913873       0.02032081       0.00873890
N        0.57595693      -0.71720939      -0.24162056
C        1.62739624      -1.16468610      -0.75837917
N        0.09658193       2.31787934      -0.04360057
N       -0.20735537       1.33884206       0.60113796
H       -1.74620026      -1.02271078      -0.82992286
H        2.10638721      -1.90232966      -0.09529037
H       -0.36682907       1.37473366       1.62554802
9
Frame=2 idx=000019 GeodesicLength=0.19623771011319077 rxn_smarts="[O:1]([c+:2]1[n-:3][c:4]([H:8])[n:5][n:6]1[H:9])[H:7]>>[O:1]([C:2]([N+:3]#[C:4][H:8])[N:6]([N-:5])[H:9])[H:7]"
O       -1.71400964      -0.24425857      -0.26102217
C       -0.42650114      -0.00793338       0.03420325
N        0.53614240      -0.76430404      -0.21793930
C        1.63156691      -1.08307381      -0.74663208
N        0.25853823       2.23881072      -0.04097963
N       -0.19778407       1.31122077       0.59806420
H       -1.78432584      -1.02881199      -0.81357471
H        2.15615708      -1.84221769      -0.14695008
H       -0.45978394       1.42056799       1.59483053
9
Frame=3 idx=000019 GeodesicLength=0.29914186218751126 rxn_smarts="[O:1]([c+:2]1[n-:3][c:4]([H:8])[n:5][n:6]1[H:9])[H:7]>>[O:1]([C:2]([N+:3]#[C:4][H:8])[N:6]([N-:5])[H:9])[H:7]"
O       -1.73431696      -0.25130255      -0.24888397
C       -0.44799386      -0.03275061       0.06044091
N        0.50670322      -0.80188217      -0.19491504
C        1.62641040      -1.01207387      -0.73546465
N        0.40468949       2.15565345      -0.02067809
N       -0.19140814       1.28776386       0.59520937
H       -1.80966395      -1.03461903      -0.80264045
H        2.19329952      -1.78846090      -0.20188928
H       -0.54771972       1.47767182       1.54882119
9
Frame=4 idx=000019 GeodesicLength=0.4018259771410372 rxn_smarts="[O:1]([c+:2]1[n-:3][c:4]([H:8])[n:5][n:6]1[H:9])[H:7]>>[O:1]([C:2]([N+:3]#[C:4][H:8])[N:6]([N-:5])[H:9])[H:7]"
O       -1.74991188      -0.25799569      -0.23990608
C       -0.46397291      -0.04807500       0.07200488
N        0.48480323      -0.82709632      -0.18662069
C        1.62574513      -0.94500804      -0.71895685
N        0.53695590       2.07696235       0.02407218
N       -0.18602047       1.26838727       0.59147380
H       -1.83263728      -1.05358254      -0.77455220
H        2.21474200      -1.74785858      -0.25504566
H       -0.62970371       1.53426656       1.48753062
9
Frame=5 idx=000019 GeodesicLength=0.5042899746450009 rxn_smarts="[O:1]([c+:2]1[n-:3][c:4]([H:8])[n:5][n:6]1[H:9])[H:7]>>[O:1]([C:2]([N+:3]#[C:4][H:8])[N:6]([N-:5])[H:9])[H:7]"
O       -1.76410599      -0.27061920      -0.22181558
C       -0.47679694      -0.06002851       0.07923194
N        0.46721500      -0.84699082      -0.18364597
C        1.62496546      -0.88435167      -0.69966052
N        0.65439407       1.99852256       0.08463476
N       -0.18137637       1.25142003       0.58730684
H       -1.85198324      -1.07065550      -0.74907079
H        2.23044576      -1.71202517      -0.30838355
H       -0.70275773       1.59472828       1.41140287
9
Frame=6 idx=000019 GeodesicLength=0.6057538899870184 rxn_smarts="[O:1]([c+:2]1[n-:3][c:4]([H:8])[n:5][n:6]1[H:9])[H:7]>>[O:1]([C:2]([N+:3]#[C:4][H:8])[N:6]([N-:5])[H:9])[H:7]"
O       -1.77800466      -0.28921226      -0.19180518
C       -0.48723979      -0.06926354       0.08133909
N        0.45213224      -0.86312240      -0.18751395
C        1.62432135      -0.82980564      -0.67914724
N        0.75841198       1.91926224       0.16071283
N       -0.17628461       1.23519071       0.58334829
H       -1.87053075      -1.08370668      -0.72639398
H        2.24345252      -1.67670527      -0.35933322
H       -0.76625828       1.65736284       1.31879337
9
Frame=7 idx=000019 GeodesicLength=0.7060654840650987 rxn_smarts="[O:1]([c+:2]1[n-:3][c:4]([H:8])[n:5][n:6]1[H:9])[H:7]>>[O:1]([C:2]([N+:3]#[C:4][H:8])[N:6]([N-:5])[H:9])[H:7]"
O       -1.79189590      -0.31250963      -0.15157100
C       -0.49635894      -0.07462335       0.07431979
N        0.43824035      -0.87491745      -0.20147672
C        1.62468644      -0.77910888      -0.65823501
N        0.85238057       1.83634634       0.25843671
N       -0.17143337       1.21972693       0.57885798
H       -1.89128499      -1.09680842      -0.69977163
H        2.25477169      -1.63989786      -0.40709171
H       -0.81910586       1.72179232       1.20653160
9
Frame=8 idx=000019 GeodesicLength=0.8048322097763076 rxn_smarts="[O:1]([c+:2]1[n-:3][c:4]([H:8])[n:5][n:6]1[H:9])[H:7]>>[O:1]([C:2]([N+:3]#[C:4][H:8])[N:6]([N-:5])[H:9])[H:7]"
O       -1.80496521      -0.33920080      -0.10195707
C       -0.50530071      -0.07439462       0.05317236
N        0.42434119      -0.88043099      -0.23167026
C        1.62661231      -0.72918797      -0.63876920
N        0.93761334       1.74189446       0.39253118
N       -0.16711784       1.20456557       0.57381476
H       -1.91684816      -1.11580204      -0.65855013
H        2.26507069      -1.59917386      -0.45222823
H       -0.85940561       1.79173026       1.06365659
9
Frame=9 idx=000019 GeodesicLength=0.9004993292515894 rxn_smarts="[O:1]([c+:2]1[n-:3][c:4]([H:8])[n:5][n:6]1[H:9])[H:7]>>[O:1]([C:2]([N+:3]#[C:4][H:8])[N:6]([N-:5])[H:9])[H:7]"
O       -1.81634257      -0.36675498      -0.04561916
C       -0.51657142      -0.07300829       0.02671247
N        0.40872319      -0.87883777      -0.28086000
C        1.62761326      -0.67674858      -0.62164428
N        1.00145967       1.62883659       0.55973080
N       -0.16435474       1.18892720       0.56674713
H       -1.94544667      -1.13944381      -0.60393304
H        2.27568438      -1.54896312      -0.49142231
H       -0.87076510       1.86599276       0.89028839
9
Frame=10 idx=000019 GeodesicLength=0.9946669382321974 rxn_smarts="[O:1]([c+:2]1[n-:3][c:4]([H:8])[n:5][n:6]1[H:9])[H:7]>>[O:1]([C:2]([N+:3]#[C:4][H:8])[N:6]([N-:5])[H:9])[H:7]"
O       -1.82560692      -0.39189437       0.01199853
C       -0.53141733      -0.07045355      -0.00396371
N        0.39094609      -0.86571913      -0.35287373
C        1.62813659      -0.62007264      -0.59896276
N        1.02961856       1.50081976       0.73976828
N       -0.16309442       1.17264582       0.55832614
H       -1.97332788      -1.16887705      -0.53578528
H        2.28421771      -1.49158239      -0.52173904
H       -0.83947239       1.93513355       0.70323156
9
Frame=11 idx=000019 GeodesicLength=1.0925433295760503 rxn_smarts="[O:1]([c+:2]1[n-:3][c:4]([H:8])[n:5][n:6]1[H:9])[H:7]>>[O:1]([C:2]([N+:3]#[C:4][H:8])[N:6]([N-:5])[H:9])[H:7]"
O       -1.83209973      -0.41243678       0.06193227
C       -0.55066030      -0.06190965      -0.04378247
N        0.37184990      -0.83768979      -0.44018576
C        1.62466328      -0.56363160      -0.56807718
N        1.02060729       1.36778723       0.90508877
N       -0.16404050       1.15719381       0.55006737
H       -1.99167527      -1.20767489      -0.45536719
H        2.28729334      -1.43217583      -0.54028948
H       -0.76593800       1.99053751       0.53061368
9
Frame=12 idx=000019 GeodesicLength=1.1966167686601938 rxn_smarts="[O:1]([c+:2]1[n-:3][c:4]([H:8])[n:5][n:6]1[H:9])[H:7]>>[O:1]([C:2]([N+:3]#[C:4][H:8])[N:6]([N-:5])[H:9])[H:7]"
O       -1.83571740      -0.43006572       0.10199314
C       -0.57401676      -0.04723807      -0.08782334
N        0.35255096      -0.79831612      -0.52736971
C        1.61322606      -0.51192737      -0.53196599
N        0.98392825       1.23808542       1.04106286
N       -0.16834763       1.14453759       0.54249743
H       -1.99379089      -1.25254895      -0.37137151
H        2.28393183      -1.37351549      -0.55079302
H       -0.66176442       2.03098870       0.38377014
9
Frame=13 idx=000019 GeodesicLength=1.3062432952800513 rxn_smarts="[O:1]([c+:2]1[n-:3][c:4]([H:8])[n:5][n:6]1[H:9])[H:7]>>[O:1]([C:2]([N+:3]#[C:4][H:8])[N:6]([N-:5])[H:9])[H:7]"
O       -1.83707730      -0.44611515       0.13345428
C       -0.60033654      -0.02880432      -0.13051223
N        0.33320539      -0.75327577      -0.60600451
C        1.59317294      -0.46636940      -0.49558686
N        0.93080465       1.11676518       1.14480358
N       -0.17550710       1.13566083       0.53411927
H       -1.98014635      -1.29792677      -0.29025165
H        2.27546852      -1.31578516      -0.55436518
H       -0.53958421       2.05585056       0.26434329
9
Frame=14 idx=000019 GeodesicLength=1.4192469467390665 rxn_smarts="[O:1]([c+:2]1[n-:3][c:4]([H:8])[n:5][n:6]1[H:9])[H:7]>>[O:1]([C:2]([N+:3]#[C:4][H:8])[N:6]([N-:5])[H:9])[H:7]"
O       -1.83682919      -0.46127720       0.16005298
C       -0.62774503      -0.00981103      -0.16742238
N        0.31422766      -0.70907319      -0.67096898
C        1.56698421      -0.42692636      -0.46101437
N        0.87095963       1.00821478       1.21923522
N       -0.18352136       1.13067968       0.52382885
H       -1.95716198      -1.33744631      -0.21867776
H        2.26524259      -1.25890429      -0.55414311
H       -0.41215654       2.06454391       0.16910956
9
Frame=15 idx=000019 GeodesicLength=1.5343009465998392 rxn_smarts="[O:1]([c+:2]1[n-:3][c:4]([H:8])[n:5][n:6]1[H:9])[H:7]>>[O:1]([C:2]([N+:3]#[C:4][H:8])[N:6]([N-:5])[H:9])[H:7]"
O       -1.83502532      -0.47496321       0.18356248
C       -0.65474633       0.00878554      -0.19870805
N        0.29590622      -0.66726443      -0.72507526
C        1.53742000      -0.39342341      -0.42825144
N        0.81025189       0.91292759       1.27075102
N       -0.19042458       1.12903255       0.51134265
H       -1.92891207      -1.37001730      -0.15650613
H        2.25438732      -1.20413931      -0.55122788
H       -0.28885712       2.05906198       0.09411260
9
Frame=16 idx=000019 GeodesicLength=1.6507002515153033 rxn_smarts="[O:1]([c+:2]1[n-:3][c:4]([H:8])[n:5][n:6]1[H:9])[H:7]>>[O:1]([C:2]([N+:3]#[C:4][H:8])[N:6]([N-:5])[H:9])[H:7]"
O       -1.83189296      -0.48670672       0.20458200
C       -0.68046265       0.02664925      -0.22503215
N        0.27841932      -0.62807667      -0.77108028
C        1.50622091      -0.36538390      -0.39764095
N        0.75221152       0.82958182       1.30495904
N       -0.19531721       1.12969137       0.49758915
H       -1.89770713      -1.39607186      -0.10253092
H        2.24334333      -1.15217779      -0.54590000
H       -0.17481513       2.04249449       0.03505412
