5
Frame=0 idx=003474 GeodesicLength=0.0 rxn_smarts="[C:1](#[C:2][H:5])[C:3]#[N:4]>>[C-:1]=[C:2]([N+:4]#[C:3])[H:5]"
C       -0.06470098       0.76782248      -0.52971828
C       -0.77291491      -0.02955655       0.14487222
C        1.57067038       0.27621006      -0.44585561
N        0.85134515      -0.48014797       0.20438757
H       -1.58439964      -0.53432801       0.62631410
5
Frame=1 idx=003474 GeodesicLength=0.08666680265819969 rxn_smarts="[C:1](#[C:2][H:5])[C:3]#[N:4]>>[C-:1]=[C:2]([N+:4]#[C:3])[H:5]"
C       -0.07967722       0.77345092      -0.52479959
C       -0.76670075      -0.01346720       0.18105061
C        1.56779774       0.25719780      -0.47491219
N        0.87950627      -0.47144099       0.22916919
H       -1.60092605      -0.54574054       0.58949198
5
Frame=2 idx=003474 GeodesicLength=0.17317543786767958 rxn_smarts="[C:1](#[C:2][H:5])[C:3]#[N:4]>>[C-:1]=[C:2]([N+:4]#[C:3])[H:5]"
C       -0.09513888       0.78155838      -0.51556947
C       -0.76207412      -0.00360873       0.20925405
C        1.56229999       0.23579018      -0.50399778
N        0.90889594      -0.46051055       0.25545333
H       -1.61398293      -0.55322929       0.55485987
5
Frame=3 idx=003474 GeodesicLength=0.2601059669064415 rxn_smarts="[C:1](#[C:2][H:5])[C:3]#[N:4]>>[C-:1]=[C:2]([N+:4]#[C:3])[H:5]"
C       -0.11071169       0.79204272      -0.50332681
C       -0.75858231       0.00188836       0.23169934
C        1.55440153       0.21169742      -0.53290883
N        0.93982377      -0.44715808       0.28267611
H       -1.62493130      -0.55847042       0.52186019
5
Frame=4 idx=003474 GeodesicLength=0.3469697683430798 rxn_smarts="[C:1](#[C:2][H:5])[C:3]#[N:4]>>[C-:1]=[C:2]([N+:4]#[C:3])[H:5]"
C       -0.12684027       0.80220280      -0.49166704
C       -0.75575512       0.00480233       0.25046088
C        1.54565913       0.18874388      -0.55749860
N        0.97128549      -0.43482194       0.30672525
H       -1.63434923      -0.56092706       0.49197952
5
Frame=5 idx=003474 GeodesicLength=0.4339629682609983 rxn_smarts="[C:1](#[C:2][H:5])[C:3]#[N:4]>>[C-:1]=[C:2]([N+:4]#[C:3])[H:5]"
C       -0.14362886       0.81159980      -0.48109723
C       -0.75342505       0.00578909       0.26648543
C        1.53684647       0.16751326      -0.57792503
N        1.00320463      -0.42394849       0.32753778
H       -1.64299718      -0.56095367       0.46499905
5
Frame=6 idx=003474 GeodesicLength=0.5210986707041309 rxn_smarts="[C:1](#[C:2][H:5])[C:3]#[N:4]>>[C-:1]=[C:2]([N+:4]#[C:3])[H:5]"
C       -0.16104242       0.82029359      -0.47156685
C       -0.75154057       0.00515866       0.28009871
C        1.52836723       0.14796716      -0.59479072
N        1.03556486      -0.41446213       0.34557361
H       -1.65134910      -0.55895729       0.44068526
5
Frame=7 idx=003474 GeodesicLength=0.6082922185513664 rxn_smarts="[C:1](#[C:2][H:5])[C:3]#[N:4]>>[C-:1]=[C:2]([N+:4]#[C:3])[H:5]"
C       -0.17905234       0.82838548      -0.46288699
C       -0.75004681       0.00319627       0.29164999
C        1.52033796       0.12985382      -0.60875882
N        1.06841527      -0.40613482       0.36137775
H       -1.65965407      -0.55530074       0.41861807
5
Frame=8 idx=003474 GeodesicLength=0.6955518148466545 rxn_smarts="[C:1](#[C:2][H:5])[C:3]#[N:4]>>[C-:1]=[C:2]([N+:4]#[C:3])[H:5]"
C       -0.19760207       0.83611174      -0.45479710
C       -0.74892922       0.00014751       0.30132673
C        1.51273056       0.11273767      -0.62037687
N        1.10182831      -0.39862332       0.37540901
H       -1.66802757      -0.55037360       0.39843823
5
Frame=9 idx=003474 GeodesicLength=0.7828363534286593 rxn_smarts="[C:1](#[C:2][H:5])[C:3]#[N:4]>>[C-:1]=[C:2]([N+:4]#[C:3])[H:5]"
C       -0.21672343       0.84334107      -0.44737412
C       -0.74814189      -0.00406709       0.30911799
C        1.50579574       0.09689226      -0.62976796
N        1.13586538      -0.39207699       0.38779771
H       -1.67679580      -0.54408925       0.38022637
5
Frame=10 idx=003474 GeodesicLength=0.8701762405927982 rxn_smarts="[C:1](#[C:2][H:5])[C:3]#[N:4]>>[C-:1]=[C:2]([N+:4]#[C:3])[H:5]"
C       -0.23637390       0.85043168      -0.44036730
C       -0.74775675      -0.00885842       0.31540925
C        1.49928828       0.08164157      -0.63739429
N        1.17049504      -0.38614997       0.39891482
H       -1.68565267      -0.53706486       0.36343752
5
Frame=11 idx=003474 GeodesicLength=0.9575845597137628 rxn_smarts="[C:1](#[C:2][H:5])[C:3]#[N:4]>>[C-:1]=[C:2]([N+:4]#[C:3])[H:5]"
C       -0.25659616       0.85727787      -0.43375440
C       -0.74769185      -0.01453199       0.32006165
C        1.49333694       0.06716018      -0.64335414
N        1.20592478      -0.38084133       0.40889304
H       -1.69497371      -0.52906472       0.34815385
5
Frame=12 idx=003474 GeodesicLength=1.0450235891136015 rxn_smarts="[C:1](#[C:2][H:5])[C:3]#[N:4]>>[C-:1]=[C:2]([N+:4]#[C:3])[H:5]"
C       -0.27740390       0.86396932      -0.42755033
C       -0.74801271      -0.02073027       0.32325670
C        1.48793607       0.05331634      -0.64774052
N        1.24207935      -0.37618339       0.41780906
H       -1.70459880      -0.52037200       0.33422509
5
Frame=13 idx=003474 GeodesicLength=1.1325345151287898 rxn_smarts="[C:1](#[C:2][H:5])[C:3]#[N:4]>>[C-:1]=[C:2]([N+:4]#[C:3])[H:5]"
C       -0.29881839       0.87058434      -0.42171329
C       -0.74873640      -0.02735880       0.32502045
C        1.48305580       0.04000887      -0.65065574
N        1.27904841      -0.37214203       0.42578158
H       -1.71454941      -0.51109238       0.32156700
5
Frame=14 idx=003474 GeodesicLength=1.2200863492812757 rxn_smarts="[C:1](#[C:2][H:5])[C:3]#[N:4]>>[C-:1]=[C:2]([N+:4]#[C:3])[H:5]"
C       -0.32086462       0.87721821      -0.41625716
C       -0.74990487      -0.03415635       0.32546431
C        1.47863933       0.02713462      -0.65215162
N        1.31683092      -0.36875809       0.43287802
H       -1.72470077      -0.50143839       0.31006645
5
Frame=15 idx=003474 GeodesicLength=1.3076778083024754 rxn_smarts="[C:1](#[C:2][H:5])[C:3]#[N:4]>>[C-:1]=[C:2]([N+:4]#[C:3])[H:5]"
C       -0.34359812       0.88380548      -0.41128580
C       -0.75152467      -0.04118543       0.32447278
C        1.47482387       0.01488631      -0.65216376
N        1.35550064      -0.36617540       0.43910310
H       -1.73520172      -0.49133097       0.29987368
5
Frame=16 idx=003474 GeodesicLength=1.3952820342619336 rxn_smarts="[C:1](#[C:2][H:5])[C:3]#[N:4]>>[C-:1]=[C:2]([N+:4]#[C:3])[H:5]"
C       -0.36707667       0.89037765      -0.40691895
C       -0.75363669      -0.04822891       0.32211092
C        1.47163021       0.00333121      -0.65065471
N        1.39505662      -0.36456674       0.44447249
H       -1.74597347      -0.48091321       0.29099025
