18
Frame=0 idx=004586 GeodesicLength=0.0 rxn_smarts="[C:1]([C:2]([C:3]([H:11])([H:12])[H:13])([C:4]([C:5]([O:6][H:18])([H:16])[H:17])([H:14])[H:15])[H:10])([H:7])([H:8])[H:9]>>[C:1]([C:2]([C:3]([H:11])([H:12])[H:13])=[C:4]([H:14])[H:15])([H:7])([H:8])[H:9].[C:5](=[O:6])([H:16])[H:17].[H:10][H:18]"
C       -1.37305821       0.70765839      -1.02103337
C       -0.59361973       0.00738308       0.06586857
C       -1.25588648      -1.20385387       0.67730953
C        0.33405903       0.72210254       0.80403054
C        2.30888798       0.33039363       0.15646689
O        2.36607599      -0.51738250      -0.76641785
H       -0.76383892       1.45706830      -1.52576593
H       -2.23283239       1.21451989      -0.57201186
H       -1.75249724       0.00871579      -1.76715571
H        0.22805154      -0.90147443      -1.00547678
H       -2.10113045      -0.87587157       1.29035507
H       -0.56642907      -1.75183254       1.31898129
H       -1.64088032      -1.88708534      -0.08050065
H        0.40900951       1.78642653       0.62028874
H        0.51126284       0.40983123       1.82541167
H        2.59969586       0.03109197       1.16980168
H        2.46916159       1.38769364      -0.08493086
H        1.05396848      -0.92538480      -1.10522105
18
Frame=1 idx=004586 GeodesicLength=0.10931915748417147 rxn_smarts="[C:1]([C:2]([C:3]([H:11])([H:12])[H:13])([C:4]([C:5]([O:6][H:18])([H:16])[H:17])([H:14])[H:15])[H:10])([H:7])([H:8])[H:9]>>[C:1]([C:2]([C:3]([H:11])([H:12])[H:13])=[C:4]([H:14])[H:15])([H:7])([H:8])[H:9].[C:5](=[O:6])([H:16])[H:17].[H:10][H:18]"
C       -1.36137637       0.71698683      -1.01395418
C       -0.58800560      -0.00400075       0.06399268
C       -1.27481708      -1.20289614       0.67320241
C        0.33586835       0.70237584       0.81987740
C        2.30334363       0.34528781       0.14369084
O        2.38501711      -0.55801423      -0.72738647
H       -0.75115618       1.47208033      -1.50883920
H       -2.22076267       1.22302184      -0.56313765
H       -1.74301281       0.02874355      -1.76901677
H        0.23744670      -0.92174591      -1.01745192
H       -2.12308915      -0.86434476       1.27614830
H       -0.60179728      -1.76013357       1.32442780
H       -1.65863770      -1.88261912      -0.08851874
H        0.38601487       1.77501175       0.67844780
H        0.51416708       0.36898730       1.83488999
H        2.64687240       0.13568000       1.16306484
H        2.42761730       1.38713116      -0.17622376
H        1.08630739      -0.96155192      -1.11321337
18
Frame=2 idx=004586 GeodesicLength=0.21768073627212825 rxn_smarts="[C:1]([C:2]([C:3]([H:11])([H:12])[H:13])([C:4]([C:5]([O:6][H:18])([H:16])[H:17])([H:14])[H:15])[H:10])([H:7])([H:8])[H:9]>>[C:1]([C:2]([C:3]([H:11])([H:12])[H:13])=[C:4]([H:14])[H:15])([H:7])([H:8])[H:9].[C:5](=[O:6])([H:16])[H:17].[H:10][H:18]"
C       -1.34958821       0.72615882      -1.00663311
C       -0.58228263      -0.01482855       0.06235941
C       -1.29260169      -1.20131937       0.66947095
C        0.33737087       0.68374925       0.83560742
C        2.29704979       0.35914349       0.13160549
O        2.40289343      -0.59328534      -0.68752719
H       -0.73868659       1.48691224      -1.49183851
H       -2.20879838       1.23120469      -0.55425027
H       -1.73298126       0.04836123      -1.77037335
H        0.24785112      -0.94142462      -1.02925117
H       -2.14374449      -0.85251830       1.26235392
H       -0.63586826      -1.76706742       1.33006128
H       -1.67489097      -1.87795434      -0.09593221
H        0.36456276       1.76214611       0.73435745
H        0.51754407       0.32938868       1.84367674
H        2.68620811       0.23849595       1.14902373
H        2.38518289       1.37997190      -0.26180447
H        1.12077944      -0.99713443      -1.12090611
18
Frame=3 idx=004586 GeodesicLength=0.32544830199211744 rxn_smarts="[C:1]([C:2]([C:3]([H:11])([H:12])[H:13])([C:4]([C:5]([O:6][H:18])([H:16])[H:17])([H:14])[H:15])[H:10])([H:7])([H:8])[H:9]>>[C:1]([C:2]([C:3]([H:11])([H:12])[H:13])=[C:4]([H:14])[H:15])([H:7])([H:8])[H:9].[C:5](=[O:6])([H:16])[H:17].[H:10][H:18]"
C       -1.33758380       0.73511707      -0.99915711
C       -0.57649238      -0.02521742       0.06099336
C       -1.30954112      -1.19912287       0.66618108
C        0.33862855       0.66599658       0.85124847
C        2.29000103       0.37241994       0.11987048
O        2.41991063      -0.62279794      -0.64827418
H       -0.72617917       1.50141706      -1.47483232
H       -2.19680068       1.23914496      -0.54552629
H       -1.72233652       0.06751485      -1.77131748
H        0.25915005      -0.96084618      -1.04071698
H       -2.16339254      -0.84022080       1.24896246
H       -0.66904858      -1.77271638       1.33602821
H       -1.69002180      -1.87307383      -0.10265826
H        0.34416322       1.74802901       0.78848823
H        0.52131583       0.29088153       1.85184752
H        2.71825314       0.33843527       1.12815509
H        2.34252114       1.36766303      -0.34141457
H        1.15745301      -1.03262387      -1.12787771
18
Frame=4 idx=004586 GeodesicLength=0.4329072790492605 rxn_smarts="[C:1]([C:2]([C:3]([H:11])([H:12])[H:13])([C:4]([C:5]([O:6][H:18])([H:16])[H:17])([H:14])[H:15])[H:10])([H:7])([H:8])[H:9]>>[C:1]([C:2]([C:3]([H:11])([H:12])[H:13])=[C:4]([H:14])[H:15])([H:7])([H:8])[H:9].[C:5](=[O:6])([H:16])[H:17].[H:10][H:18]"
C       -1.32539732       0.74388539      -0.99153142
C       -0.57068783      -0.03523125       0.05987897
C       -1.32581001      -1.19634822       0.66330102
C        0.33969534       0.64896213       0.86678912
C        2.28222947       0.38530611       0.10832881
O        2.43637014      -0.64696610      -0.61019953
H       -0.71360544       1.51559124      -1.45781434
H       -2.18476923       1.24691919      -0.53693866
H       -1.71117994       0.08626194      -1.77188299
H        0.27121261      -0.98014304      -1.05188365
H       -2.18220241      -0.82744438       1.23594994
H       -0.70153116      -1.77718142       1.34229777
H       -1.70427296      -1.86798185      -0.10874889
H        0.32452063       1.73278766       0.84113214
H        0.52532676       0.25341628       1.85948234
H        2.74358299       0.43517013       1.10126610
H        2.30012631       1.35116184      -0.41540053
H        1.19639205      -1.06816564      -1.13402620
18
Frame=5 idx=004586 GeodesicLength=0.5401189150234446 rxn_smarts="[C:1]([C:2]([C:3]([H:11])([H:12])[H:13])([C:4]([C:5]([O:6][H:18])([H:16])[H:17])([H:14])[H:15])[H:10])([H:7])([H:8])[H:9]>>[C:1]([C:2]([C:3]([H:11])([H:12])[H:13])=[C:4]([H:14])[H:15])([H:7])([H:8])[H:9].[C:5](=[O:6])([H:16])[H:17].[H:10][H:18]"
C       -1.31303846       0.75256397      -0.98371259
C       -0.56489112      -0.04489504       0.05898892
C       -1.34144713      -1.19304723       0.66074007
C        0.34060622       0.63249832       0.88218962
C        2.27363086       0.39792779       0.09688466
O        2.45234526      -0.66658448      -0.57307927
H       -0.70097846       1.52955415      -1.44068986
H       -2.17265980       1.25462786      -0.52840853
H       -1.69955829       0.10477562      -1.77204472
H        0.28391401      -0.99932519      -1.06280540
H       -2.20017042      -0.81424874       1.22322936
H       -0.73337018      -1.78060080       1.34873197
H       -1.71771865      -1.86265081      -0.11430282
H        0.30544945       1.71647406       0.89253190
H        0.52945242       0.21684644       1.86654386
H        2.76268400       0.52880363       1.06896221
H        2.25807257       1.33102878      -0.48452053
H        1.23767773      -1.10374834      -1.13923886
18
Frame=6 idx=004586 GeodesicLength=0.6472958871462872 rxn_smarts="[C:1]([C:2]([C:3]([H:11])([H:12])[H:13])([C:4]([C:5]([O:6][H:18])([H:16])[H:17])([H:14])[H:15])[H:10])([H:7])([H:8])[H:9]>>[C:1]([C:2]([C:3]([H:11])([H:12])[H:13])=[C:4]([H:14])[H:15])([H:7])([H:8])[H:9].[C:5](=[O:6])([H:16])[H:17].[H:10][H:18]"
C       -1.30061807       0.76118266      -0.97567918
C       -0.55916440      -0.05423434       0.05830019
C       -1.35657276      -1.18926711       0.65846112
C        0.34139692       0.61653996       0.89744421
C        2.26432824       0.41027688       0.08548887
O        2.46810666      -0.68215299      -0.53703594
H       -0.68836396       1.54331730      -1.42345565
H       -2.16056022       1.26232351      -0.51982659
H       -1.68766453       0.12310846      -1.77181099
H        0.29715258      -1.01842720      -1.07359385
H       -2.21742965      -0.80068669       1.21082945
H       -0.76464462      -1.78304848       1.35526959
H       -1.73054514      -1.85710313      -0.11939691
H        0.28686787       1.69916350       0.94278511
H        0.53354903       0.18120725       1.87315174
H        2.77591654       0.61936921       1.03195411
H        2.21676590       1.30768073      -0.54920866
H        1.28147961      -1.13924951      -1.14367664
18
Frame=7 idx=004586 GeodesicLength=0.7544624029377087 rxn_smarts="[C:1]([C:2]([C:3]([H:11])([H:12])[H:13])([C:4]([C:5]([O:6][H:18])([H:16])[H:17])([H:14])[H:15])[H:10])([H:7])([H:8])[H:9]>>[C:1]([C:2]([C:3]([H:11])([H:12])[H:13])=[C:4]([H:14])[H:15])([H:7])([H:8])[H:9].[C:5](=[O:6])([H:16])[H:17].[H:10][H:18]"
C       -1.28814169       0.76980926      -0.96738867
C       -0.55353610      -0.06327148       0.05780034
C       -1.37125221      -1.18504306       0.65640883
C        0.34208971       0.60097844       0.91254294
C        2.25428062       0.42241027       0.07404904
O        2.48371139      -0.69417697      -0.50184555
H       -0.67574052       1.55694443      -1.40603920
H       -2.14843333       1.27008445      -0.51111444
H       -1.67554835       0.14138626      -1.77115378
H        0.31082947      -1.03746477      -1.08428858
H       -2.23402415      -0.78679342       1.19870685
H       -0.79543443      -1.78461845       1.36182873
H       -1.74285253      -1.85131567      -0.12410018
H        0.26871059       1.68085295       0.99204858
H        0.53755760       0.14634743       1.87929739
H        2.78353767       0.70705632       0.99061464
H        2.17625188       1.28139564      -0.61005842
H        1.32799441      -1.17458164      -1.14730853
18
Frame=8 idx=004586 GeodesicLength=0.8617559352359903 rxn_smarts="[C:1]([C:2]([C:3]([H:11])([H:12])[H:13])([C:4]([C:5]([O:6][H:18])([H:16])[H:17])([H:14])[H:15])[H:10])([H:7])([H:8])[H:9]>>[C:1]([C:2]([C:3]([H:11])([H:12])[H:13])=[C:4]([H:14])[H:15])([H:7])([H:8])[H:9].[C:5](=[O:6])([H:16])[H:17].[H:10][H:18]"
C       -1.27564315       0.77849122      -0.95882510
C       -0.54804882      -0.07203207       0.05748734
C       -1.38558388      -1.18039769       0.65455938
C        0.34270971       0.58572796       0.92751210
C        2.24350222       0.43436918       0.06248230
O        2.49929336      -0.70297371      -0.46744589
H       -0.66309135       1.57045494      -1.38841836
H       -2.13628774       1.27800349      -0.50221893
H       -1.66330075       0.15968771      -1.77008369
H        0.32484910      -1.05650419      -1.09493805
H       -2.25005333      -0.77256030       1.18685729
H       -0.82583724      -1.78538160       1.36838504
H       -1.75478317      -1.84528142      -0.12846716
H        0.25095142       1.66154702       1.04046180
H        0.54145983       0.11214936       1.88502926
H        2.78575829       0.79195989       0.94529227
H        2.13660078       1.25242425      -0.66749122
H        1.37750471      -1.20968405      -1.15017837
18
Frame=9 idx=004586 GeodesicLength=0.969116402122606 rxn_smarts="[C:1]([C:2]([C:3]([H:11])([H:12])[H:13])([C:4]([C:5]([O:6][H:18])([H:16])[H:17])([H:14])[H:15])[H:10])([H:7])([H:8])[H:9]>>[C:1]([C:2]([C:3]([H:11])([H:12])[H:13])=[C:4]([H:14])[H:15])([H:7])([H:8])[H:9].[C:5](=[O:6])([H:16])[H:17].[H:10][H:18]"
C       -1.26307092       0.78727472      -0.94995381
C       -0.54272190      -0.08053740       0.05735545
C       -1.39961641      -1.17534797       0.65289052
C        0.34326704       0.57068427       0.94232321
C        2.23186266       0.44622127       0.05068331
O        2.51475632      -0.70876510      -0.43363890
H       -0.65032028       1.58387115      -1.37054427
H       -2.12401448       1.28614299      -0.49309549
H       -1.65090701       0.17811046      -1.76855171
H        0.33907962      -1.07556837      -1.10555660
H       -2.26552071      -0.75799680       1.17526176
H       -0.85593603      -1.78540876       1.37488685
H       -1.76642029      -1.83896118      -0.13250692
H        0.23361398       1.64119539       1.08809891
H        0.54521750       0.07844223       1.89027761
H        2.78267432       0.87408644       0.89611813
H        2.09774318       1.22096316      -0.72188929
H        1.43031340      -1.24440650      -1.15215877
18
Frame=10 idx=004586 GeodesicLength=1.076693322687107 rxn_smarts="[C:1]([C:2]([C:3]([H:11])([H:12])[H:13])([C:4]([C:5]([O:6][H:18])([H:16])[H:17])([H:14])[H:15])[H:10])([H:7])([H:8])[H:9]>>[C:1]([C:2]([C:3]([H:11])([H:12])[H:13])=[C:4]([H:14])[H:15])([H:7])([H:8])[H:9].[C:5](=[O:6])([H:16])[H:17].[H:10][H:18]"
C       -1.25048671       0.79617442      -0.94076133
C       -0.53761267      -0.08881486       0.05740755
C       -1.41346982      -1.16989048       0.65140789
C        0.34377983       0.55578427       0.95700772
C        2.21943028       0.45794154       0.03858784
O        2.53030720      -0.71171445      -0.40044668
H       -0.63741190       1.59714107      -1.35243171
H       -2.11164756       1.29459270      -0.48368348
H       -1.63851257       0.19668235      -1.76655394
H        0.35341554      -1.09474438      -1.11618695
H       -2.28055530      -0.74305211       1.16395739
H       -0.88583305      -1.78472044       1.38134514
H       -1.77794414      -1.83233931      -0.13623952
H        0.21672377       1.61980536       1.13501133
H        0.54882592       0.04516381       1.89511420
H        2.77433068       0.95344227       0.84343530
H        2.05979883       1.18712595      -0.77351126
H        1.48686167      -1.27857770      -1.15345948
18
Frame=11 idx=004586 GeodesicLength=1.1845133599173672 rxn_smarts="[C:1]([C:2]([C:3]([H:11])([H:12])[H:13])([C:4]([C:5]([O:6][H:18])([H:16])[H:17])([H:14])[H:15])[H:10])([H:7])([H:8])[H:9]>>[C:1]([C:2]([C:3]([H:11])([H:12])[H:13])=[C:4]([H:14])[H:15])([H:7])([H:8])[H:9].[C:5](=[O:6])([H:16])[H:17].[H:10][H:18]"
C       -1.23785187       0.80522357      -0.93121900
C       -0.53275583      -0.09689825       0.05764852
C       -1.42723583      -1.16402008       0.65011240
C        0.34425999       0.54091911       0.97156947
C        2.20610923       0.46956021       0.02607347
O        2.54594476      -0.71191119      -0.36776416
H       -0.62425388       1.61024743      -1.33405278
H       -2.09909145       1.30344188      -0.47393522
H       -1.62613805       0.21548238      -1.76405620
H        0.36772001      -1.11409892      -1.12684010
H       -2.29521463      -0.72767655       1.15294889
H       -0.91565542      -1.78335433       1.38775635
H       -1.78949488      -1.82536863      -0.13966409
H        0.20032703       1.59731500       1.18126881
H        0.55230323       0.01212963       1.89949931
H        2.76068501       1.03003499       0.78733967
H        2.02268880       1.15100083      -0.82265548
H        1.54765377      -1.31202709      -1.15402988
18
Frame=12 idx=004586 GeodesicLength=1.2926635604595011 rxn_smarts="[C:1]([C:2]([C:3]([H:11])([H:12])[H:13])([C:4]([C:5]([O:6][H:18])([H:16])[H:17])([H:14])[H:15])[H:10])([H:7])([H:8])[H:9]>>[C:1]([C:2]([C:3]([H:11])([H:12])[H:13])=[C:4]([H:14])[H:15])([H:7])([H:8])[H:9].[C:5](=[O:6])([H:16])[H:17].[H:10][H:18]"
C       -1.22515150       0.81444268      -0.92130338
C       -0.52820306      -0.10482418       0.05808769
C       -1.44103397      -1.15772458       0.64902236
C        0.34471922       0.52599091       0.98602411
C        2.19183889       0.48107254       0.01303202
O        2.56172038      -0.70940056      -0.33553363
H       -0.61073706       1.62314360      -1.31540406
H       -2.08627683       1.31278779      -0.46379597
H       -1.61384481       0.23456300      -1.76103153
H        0.38183262      -1.13372229      -1.13754556
H       -2.30959223      -0.71180102       1.14226917
H       -0.94554691      -1.78133207       1.39413946
H       -1.80125241      -1.81800913      -0.14276968
H        0.18449151       1.57368244       1.22691838
H        0.55566140      -0.02080745       1.90342439
H        2.74166304       1.10382677       0.72794718
H        1.98638553       1.11262220      -0.86955794
H        1.61332617      -1.34451065      -1.15392301
18
Frame=13 idx=004586 GeodesicLength=1.4011782029892168 rxn_smarts="[C:1]([C:2]([C:3]([H:11])([H:12])[H:13])([C:4]([C:5]([O:6][H:18])([H:16])[H:17])([H:14])[H:15])[H:10])([H:7])([H:8])[H:9]>>[C:1]([C:2]([C:3]([H:11])([H:12])[H:13])=[C:4]([H:14])[H:15])([H:7])([H:8])[H:9].[C:5](=[O:6])([H:16])[H:17].[H:10][H:18]"
C       -1.21235264       0.82385763      -0.91099022
C       -0.52400543      -0.11262817       0.05873109
C       -1.45495607      -1.15097246       0.64815628
C        0.34516015       0.51088098       1.00036195
C        2.17647249       0.49245425      -0.00066498
O        2.57759519      -0.70418628      -0.30366609
H       -0.59674069       1.63577545      -1.29648333
H       -2.07309634       1.32273516      -0.45322069
H       -1.60167577       0.25399864      -1.75743404
H        0.39555686      -1.15369468      -1.14831975
H       -2.32373070      -0.69533523       1.13194056
H       -0.97562820      -1.77865663       1.40050964
H       -1.81336735      -1.81018612      -0.14552719
H        0.16928207       1.54882843       1.27198813
H        0.55891708      -0.05383100       1.90683070
H        2.71714263       1.17467190       0.66528680
H        1.95078525       1.07198681      -0.91442281
H        1.68464146      -1.37569869      -1.15307606
18
Frame=14 idx=004586 GeodesicLength=1.5102052807933912 rxn_smarts="[C:1]([C:2]([C:3]([H:11])([H:12])[H:13])([C:4]([C:5]([O:6][H:18])([H:16])[H:17])([H:14])[H:15])[H:10])([H:7])([H:8])[H:9]>>[C:1]([C:2]([C:3]([H:11])([H:12])[H:13])=[C:4]([H:14])[H:15])([H:7])([H:8])[H:9].[C:5](=[O:6])([H:16])[H:17].[H:10][H:18]"
C       -1.19943082       0.83346222      -0.90025626
C       -0.52023878      -0.12036955       0.05959808
C       -1.46917845      -1.14372206       0.64756837
C        0.34559414       0.49546468       1.01460152
C        2.15994167       0.50363950      -0.01512799
O        2.59363954      -0.69622825      -0.27215258
H       -0.58210240       1.64802739      -1.27731785
H       -2.05944604       1.33340297      -0.44214827
H       -1.58971741       0.27381043      -1.75322234
H        0.40866197      -1.17416743      -1.15918476
H       -2.33776466      -0.67813955       1.12202928
H       -1.00611823      -1.77530869       1.40693457
H       -1.82610621      -1.80183864      -0.14787981
H        0.15480177       1.52269368       1.31649829
H        0.56206896      -0.08709451       1.90971356
H        2.68693136       1.24244927       0.59944768
H        1.91586414       1.02902372      -0.95740588
H        1.76259943      -1.40510517      -1.15169558
18
Frame=15 idx=004586 GeodesicLength=1.619871412692423 rxn_smarts="[C:1]([C:2]([C:3]([H:11])([H:12])[H:13])([C:4]([C:5]([O:6][H:18])([H:16])[H:17])([H:14])[H:15])[H:10])([H:7])([H:8])[H:9]>>[C:1]([C:2]([C:3]([H:11])([H:12])[H:13])=[C:4]([H:14])[H:15])([H:7])([H:8])[H:9].[C:5](=[O:6])([H:16])[H:17].[H:10][H:18]"
C       -1.18634388       0.84324973      -0.88908176
C       -0.51698798      -0.12811420       0.06070708
C       -1.48387005      -1.13590617       0.64732496
C        0.34602254       0.47958910       1.02873865
C        2.14209720       0.51451872      -0.03048615
O        2.60982558      -0.68547777      -0.24095459
H       -0.56663978       1.65976467      -1.25794678
H       -2.04517875       1.34492224      -0.43052813
H       -1.57804529       0.29403402      -1.74834187
H        0.42085813      -1.19530761      -1.17014893
H       -2.35179098      -0.66003530       1.11260656
H       -1.03723667      -1.77124229       1.41349420
H       -1.83973827      -1.79286700      -0.14973982
H        0.14114705       1.49518099       1.36045965
H        0.56510763      -0.12079450       1.91202903
H        2.65078576       1.30691301       0.53044407
H        1.88155020       0.98360772      -0.99864369
H        1.84843758      -1.43203537      -1.14993250
18
Frame=16 idx=004586 GeodesicLength=1.730356182086419 rxn_smarts="[C:1]([C:2]([C:3]([H:11])([H:12])[H:13])([C:4]([C:5]([O:6][H:18])([H:16])[H:17])([H:14])[H:15])[H:10])([H:7])([H:8])[H:9]>>[C:1]([C:2]([C:3]([H:11])([H:12])[H:13])=[C:4]([H:14])[H:15])([H:7])([H:8])[H:9].[C:5](=[O:6])([H:16])[H:17].[H:10][H:18]"
C       -1.17304243       0.85319372      -0.87745146
C       -0.51436325      -0.13594728       0.06208451
C       -1.49924851      -1.12743169       0.64752219
C        0.34644266       0.46307531       1.04276798
C        2.12277843       0.52491684      -0.04687222
O        2.62610409      -0.67188462      -0.21006782
H       -0.55013472       1.67080336      -1.23843567
H       -2.03011858       1.35743885      -0.41831112
H       -1.56674991       0.31468380      -1.74273347
H        0.43178535      -1.21734183      -1.18121221
H       -2.36593672      -0.64078531       1.10377086
H       -1.06926811      -1.76637674       1.42030927
H       -1.85460689      -1.78314997      -0.15098014
H        0.12843380       1.46618031       1.40386845
H        0.56799690      -0.15514230       1.91373991
H        2.60841727       1.36771710       0.45828118
H        1.84778109       0.93553973      -1.03824069
H        1.94372953      -1.45548927      -1.14803955
