17
Frame=0 idx=007595 GeodesicLength=0.0 rxn_smarts="[C:1]([C@@:2]1([C:3]([C:4]([O:5][H:15])([H:13])[H:14])([H:11])[H:12])[C:6]([H:16])([H:17])[O:7]1)([H:8])([H:9])[H:10]>>[C:1]([C:2](=[C:3]([H:11])[H:12])[C:6]([O:7][H:15])([H:16])[H:17])([H:8])([H:9])[H:10].[C:4](=[O:5])([H:13])[H:14]"
C       -1.21546303      -1.35794144       0.35466158
C       -0.50479780      -0.29197151      -0.38987534
C        0.84412997      -0.44074276      -0.76098932
C        1.78599464       0.32454113       0.51718695
O        1.51727485       1.59429552       0.59493727
C       -1.20065862       1.01013188      -0.54032928
O       -0.86067260       1.43936879       0.74644575
H       -1.75264942      -1.97075749      -0.37910245
H       -0.53113533      -2.01237935       0.89532671
H       -1.94693786      -0.93372586       1.04050466
H        1.15657400       0.13417282      -1.62819629
H        1.20450673      -1.46690159      -0.75052579
H        2.79157796       0.07698691       0.15375060
H        1.52311056      -0.30291172       1.38598878
H        0.26349048       1.64196448       0.75876473
H       -2.28368858       0.92024081      -0.65853902
H       -0.79065596       1.63562938      -1.34000955
17
Frame=1 idx=007595 GeodesicLength=0.08358690862104648 rxn_smarts="[C:1]([C@@:2]1([C:3]([C:4]([O:5][H:15])([H:13])[H:14])([H:11])[H:12])[C:6]([H:16])([H:17])[O:7]1)([H:8])([H:9])[H:10]>>[C:1]([C:2](=[C:3]([H:11])[H:12])[C:6]([O:7][H:15])([H:16])[H:17])([H:8])([H:9])[H:10].[C:4](=[O:5])([H:13])[H:14]"
C       -1.21699657      -1.35765006       0.35763415
C       -0.50856977      -0.28895408      -0.38727874
C        0.83889660      -0.44046916      -0.76650337
C        1.79960201       0.32602130       0.52613613
O        1.52978500       1.59605086       0.61162669
C       -1.20812229       1.00885903      -0.55195093
O       -0.86257470       1.42974465       0.73676209
H       -1.75802655      -1.96938526      -0.37384723
H       -0.53123202      -2.01211840       0.89646670
H       -1.94545983      -0.93562559       1.04820850
H        1.14688300       0.13678142      -1.63406199
H        1.19479349      -1.46834966      -0.76999464
H        2.80818485       0.08237810       0.16829349
H        1.52923282      -0.30499437       1.39030173
H        0.26967031       1.64709756       0.76542222
H       -2.29104677       0.91735401      -0.66680178
H       -0.79501957       1.63325966      -1.35041303
17
Frame=2 idx=007595 GeodesicLength=0.16721157546437931 rxn_smarts="[C:1]([C@@:2]1([C:3]([C:4]([O:5][H:15])([H:13])[H:14])([H:11])[H:12])[C:6]([H:16])([H:17])[O:7]1)([H:8])([H:9])[H:10]>>[C:1]([C:2](=[C:3]([H:11])[H:12])[C:6]([O:7][H:15])([H:16])[H:17])([H:8])([H:9])[H:10].[C:4](=[O:5])([H:13])[H:14]"
C       -1.21838504      -1.35724201       0.36066013
C       -0.51239818      -0.28592050      -0.38498845
C        0.83357081      -0.44014625      -0.77230544
C        1.81333982       0.32737757       0.53531722
O        1.54235329       1.59761228       0.62865409
C       -1.21575382       1.00741996      -0.56375550
O       -0.86432967       1.42052029       0.72658380
H       -1.76357423      -1.96791421      -0.36826956
H       -0.53107673      -2.01183370       0.89740613
H       -1.94346008      -0.93730223       1.05625648
H        1.13716771       0.13962032      -1.64004533
H        1.18475623      -1.46962079      -0.78997696
H        2.82512916       0.08772529       0.18375749
H        1.53515814      -0.30730278       1.39457287
H        0.27595081       1.65208397       0.77231529
H       -2.29859422       0.91430608      -0.67494351
H       -0.79985400       1.63061672      -1.36123875
17
Frame=3 idx=007595 GeodesicLength=0.250854342566153 rxn_smarts="[C:1]([C@@:2]1([C:3]([C:4]([O:5][H:15])([H:13])[H:14])([H:11])[H:12])[C:6]([H:16])([H:17])[O:7]1)([H:8])([H:9])[H:10]>>[C:1]([C:2](=[C:3]([H:11])[H:12])[C:6]([O:7][H:15])([H:16])[H:17])([H:8])([H:9])[H:10].[C:4](=[O:5])([H:13])[H:14]"
C       -1.21962300      -1.35670944       0.36374118
C       -0.51628455      -0.28287115      -0.38301526
C        0.82814956      -0.43977713      -0.77840985
C        1.82721587       0.32860877       0.54473203
O        1.55497177       1.59897386       0.64601494
C       -1.22356089       1.00581147      -0.57574693
O       -0.86593170       1.41168837       0.71590860
H       -1.76928371      -1.96634251      -0.36235282
H       -0.53066570      -2.01151288       0.89814784
H       -1.94092344      -0.93873863       1.06463806
H        1.12742226       0.14268605      -1.64616062
H        1.17438141      -1.47070638      -0.81048141
H        2.84241786       0.09302621       0.20018900
H        1.54089418      -0.30983299       1.39878797
H        0.28232712       1.65690308       0.77946277
H       -2.30633697       0.91109987      -0.68295761
H       -0.80517008       1.62769340      -1.37249788
17
Frame=4 idx=007595 GeodesicLength=0.33449975260132847 rxn_smarts="[C:1]([C@@:2]1([C:3]([C:4]([O:5][H:15])([H:13])[H:14])([H:11])[H:12])[C:6]([H:16])([H:17])[O:7]1)([H:8])([H:9])[H:10]>>[C:1]([C:2](=[C:3]([H:11])[H:12])[C:6]([O:7][H:15])([H:16])[H:17])([H:8])([H:9])[H:10].[C:4](=[O:5])([H:13])[H:14]"
C       -1.22070367      -1.35604400       0.36687859
C       -0.52023020      -0.27980640      -0.38137008
C        0.82262941      -0.43936461      -0.78483174
C        1.84123883       0.32971414       0.55438226
O        1.56763300       1.60012986       0.66370447
C       -1.23155168       1.00402998      -0.58792922
O       -0.86737543       1.40324163       0.70473283
H       -1.77514702      -1.96466713      -0.35607872
H       -0.52999487      -2.01114371       0.89869366
H       -1.93783277      -0.93991652       1.07334231
H        1.11764083       0.14597509      -1.65242185
H        1.16365425      -1.47159866      -0.83151871
H        2.86005768       0.09827814       0.21763890
H        1.54644883      -0.31258038       1.40293186
H        0.28879363       1.66153295       0.78688385
H       -2.31428121       0.90773786      -0.69083622
H       -0.81097962       1.62448176      -1.38420218
17
Frame=5 idx=007595 GeodesicLength=0.4181379523592926 rxn_smarts="[C:1]([C@@:2]1([C:3]([C:4]([O:5][H:15])([H:13])[H:14])([H:11])[H:12])[C:6]([H:16])([H:17])[O:7]1)([H:8])([H:9])[H:10]>>[C:1]([C:2](=[C:3]([H:11])[H:12])[C:6]([O:7][H:15])([H:16])[H:17])([H:8])([H:9])[H:10].[C:4](=[O:5])([H:13])[H:14]"
C       -1.22162065      -1.35523795       0.37007428
C       -0.52423672      -0.27672607      -0.38006331
C        0.81700639      -0.43891108      -0.79158728
C        1.85541775       0.33069286       0.56426845
O        1.58033084       1.60107533       0.68171863
C       -1.23973437       1.00207267      -0.60030575
O       -0.86865673       1.39517371       0.69305299
H       -1.78115735      -1.96288632      -0.34943160
H       -0.52905943      -2.01071436       0.89904563
H       -1.93417353      -0.94081942       1.08236153
H        1.10781674       0.14948537      -1.65884474
H        1.15256395      -1.47229277      -0.85309581
H        2.87805393       0.10347974       0.23615789
H        1.55182964      -0.31554298       1.40698889
H        0.29534657       1.66595339       0.79459478
H       -2.32243269       0.90422324      -0.69857263
H       -0.81729434       1.62097465      -1.39636195
17
Frame=6 idx=007595 GeodesicLength=0.5017591524308883 rxn_smarts="[C:1]([C@@:2]1([C:3]([C:4]([O:5][H:15])([H:13])[H:14])([H:11])[H:12])[C:6]([H:16])([H:17])[O:7]1)([H:8])([H:9])[H:10]>>[C:1]([C:2](=[C:3]([H:11])[H:12])[C:6]([O:7][H:15])([H:16])[H:17])([H:8])([H:9])[H:10].[C:4](=[O:5])([H:13])[H:14]"
C       -1.22236588      -1.35428223       0.37332935
C       -0.52830523      -0.27363065      -0.37910607
C        0.81127628      -0.43841975      -0.79869397
C        1.86976198       0.33154417       0.57439332
O        1.59305775       1.60180467       0.70004943
C       -1.24811753       0.99993563      -0.61288075
O       -0.86976999       1.38747812       0.68086257
H       -1.78730628      -1.96099318      -0.34239171
H       -0.52785367      -2.01021456       0.89920240
H       -1.92992229      -0.94142733       1.09168651
H        1.09794210       0.15321403      -1.66544556
H        1.14109563      -1.47278124      -0.87522336
H        2.89641000       0.10862569       0.25580498
H        1.55704316      -0.31871521       1.41094254
H        0.30197856       1.67014073       0.80261719
H       -2.33079714       0.90055890      -0.70615724
H       -0.82412746       1.61716222      -1.40898963
17
Frame=7 idx=007595 GeodesicLength=0.5853612341570175 rxn_smarts="[C:1]([C@@:2]1([C:3]([C:4]([O:5][H:15])([H:13])[H:14])([H:11])[H:12])[C:6]([H:16])([H:17])[O:7]1)([H:8])([H:9])[H:10]>>[C:1]([C:2](=[C:3]([H:11])[H:12])[C:6]([O:7][H:15])([H:16])[H:17])([H:8])([H:9])[H:10].[C:4](=[O:5])([H:13])[H:14]"
C       -1.22293170      -1.35316931       0.37664565
C       -0.53243718      -0.27051982      -0.37850902
C        0.80543428      -0.43789386      -0.80617049
C        1.88428270       0.33226804       0.58475702
O        1.60580905       1.60231342       0.71868918
C       -1.25671016       0.99761537      -0.62565805
O       -0.87071068       1.38014935       0.66815493
H       -1.79358543      -1.95898433      -0.33494097
H       -0.52636889      -2.00963338       0.89916392
H       -1.92505638      -0.94172235       1.10131074
H        1.08800896       0.15715965      -1.67224096
H        1.12923232      -1.47305571      -0.89791423
H        2.91512534       0.11370817       0.27664577
H        1.56209541      -0.32209236       1.41477623
H        0.30868499       1.67407371       0.81096816
H       -2.33938027       0.89674804      -0.71358142
H       -0.83149236       1.61303538      -1.42209646
17
Frame=8 idx=007595 GeodesicLength=0.6689339173266977 rxn_smarts="[C:1]([C@@:2]1([C:3]([C:4]([O:5][H:15])([H:13])[H:14])([H:11])[H:12])[C:6]([H:16])([H:17])[O:7]1)([H:8])([H:9])[H:10]>>[C:1]([C:2](=[C:3]([H:11])[H:12])[C:6]([O:7][H:15])([H:16])[H:17])([H:8])([H:9])[H:10].[C:4](=[O:5])([H:13])[H:14]"
C       -1.22330711      -1.35188835       0.38002559
C       -0.53663337      -0.26739425      -0.37828394
C        0.79947581      -0.43733566      -0.81403586
C        1.89899045       0.33286357       0.59536214
O        1.61857659       1.60259592       0.73763242
C       -1.26552144       0.99510738      -0.63864279
O       -0.87147150       1.37318397       0.65491861
H       -1.79998845      -1.95684931      -0.32705600
H       -0.52459814      -2.00896167       0.89892571
H       -1.91954923      -0.94168175       1.11122914
H        1.07800876       0.16132128      -1.67924777
H        1.11696065      -1.47310972      -0.92118326
H        2.93419849       0.11872220       0.29874832
H        1.56699511      -0.32567142       1.41847005
H        0.31545591       1.67772361       0.81966953
H       -2.34818770       0.89279338      -0.72083446
H       -0.83940483       1.60858081      -1.43569743
17
Frame=9 idx=007595 GeodesicLength=0.7524701898166082 rxn_smarts="[C:1]([C@@:2]1([C:3]([C:4]([O:5][H:15])([H:13])[H:14])([H:11])[H:12])[C:6]([H:16])([H:17])[O:7]1)([H:8])([H:9])[H:10]>>[C:1]([C:2](=[C:3]([H:11])[H:12])[C:6]([O:7][H:15])([H:16])[H:17])([H:8])([H:9])[H:10].[C:4](=[O:5])([H:13])[H:14]"
C       -1.22348349      -1.35043045       0.38347151
C       -0.54089527      -0.26425409      -0.37844220
C        0.79339554      -0.43674880      -0.82231070
C        1.91389489       0.33332984       0.60621090
O        1.63135280       1.60264703       0.75687576
C       -1.27455939       0.99240843      -0.65183857
O       -0.87204513       1.36657780       0.64114439
H       -1.80651107      -1.95458249      -0.31871924
H       -0.52253241      -2.00818906       0.89848738
H       -1.91337606      -0.94128677       1.12143613
H        1.06793327       0.16569853      -1.68648351
H        1.10427055      -1.47293904      -0.94503664
H        2.95362657       0.12366616       0.32217095
H        1.57174789      -0.32945200       1.42200708
H        0.32228335       1.68106578       0.82873692
H       -2.35722330       0.88870093      -0.72790569
H       -0.84787873       1.60378822      -1.44980448
17
Frame=10 idx=007595 GeodesicLength=0.8359783834449375 rxn_smarts="[C:1]([C@@:2]1([C:3]([C:4]([O:5][H:15])([H:13])[H:14])([H:11])[H:12])[C:6]([H:16])([H:17])[O:7]1)([H:8])([H:9])[H:10]>>[C:1]([C:2](=[C:3]([H:11])[H:12])[C:6]([O:7][H:15])([H:16])[H:17])([H:8])([H:9])[H:10].[C:4](=[O:5])([H:13])[H:14]"
C       -1.22344670      -1.34878465       0.38698555
C       -0.54522340      -0.26109870      -0.37899684
C        0.78718712      -0.43613587      -0.83101928
C        1.92901081       0.33366716       0.61730506
O        1.64413244       1.60246204       0.77640817
C       -1.28383488       0.98951397      -0.66525122
O       -0.87242656       1.36032749       0.62681645
H       -1.81314362      -1.95217101      -0.30990198
H       -0.52015908      -2.00730698       0.89784025
H       -1.90649803      -0.94051246       1.13193050
H        1.05777224       0.17029134      -1.69396814
H        1.09113948      -1.47253489      -0.96949629
H        2.97339738       0.12852450       0.34700686
H        1.57636120      -0.33342750       1.42536281
H        0.32915753       1.68407064       0.83819510
H       -2.36649318       0.88447208      -0.73478421
H       -0.85693277       1.59864285      -1.46443279
17
Frame=11 idx=007595 GeodesicLength=0.9194717491884175 rxn_smarts="[C:1]([C@@:2]1([C:3]([C:4]([O:5][H:15])([H:13])[H:14])([H:11])[H:12])[C:6]([H:16])([H:17])[O:7]1)([H:8])([H:9])[H:10]>>[C:1]([C:2](=[C:3]([H:11])[H:12])[C:6]([O:7][H:15])([H:16])[H:17])([H:8])([H:9])[H:10].[C:4](=[O:5])([H:13])[H:14]"
C       -1.22318315      -1.34694184       0.39056939
C       -0.54961846      -0.25792759      -0.37995871
C        0.78084345      -0.43550002      -0.84018569
C        1.94435171       0.33387555       0.62864651
O        1.65691358       1.60203803       0.79621484
C       -1.29335811       0.98641992      -0.67888321
O       -0.87261291       1.35442989       0.61192343
H       -1.81987661      -1.94960539      -0.30058177
H       -0.51746441      -2.00630730       0.89697779
H       -1.89888195      -0.93933959       1.14270819
H        1.04751400       0.17509921      -1.70172275
H        1.07754749      -1.47189152      -0.99458060
H        2.99349686       0.13328106       0.37334649
H        1.58084151      -0.33758950       1.42851635
H        0.33607322       1.68671690       0.84806039
H       -2.37600157       0.88010984      -0.74145822
H       -0.86658465       1.59313233      -1.47959243
17
Frame=12 idx=007595 GeodesicLength=1.0029540895334885 rxn_smarts="[C:1]([C@@:2]1([C:3]([C:4]([O:5][H:15])([H:13])[H:14])([H:11])[H:12])[C:6]([H:16])([H:17])[O:7]1)([H:8])([H:9])[H:10]>>[C:1]([C:2](=[C:3]([H:11])[H:12])[C:6]([O:7][H:15])([H:16])[H:17])([H:8])([H:9])[H:10].[C:4](=[O:5])([H:13])[H:14]"
C       -1.22267650      -1.34488952       0.39422582
C       -0.55408034      -0.25474030      -0.38134110
C        0.77435859      -0.43484304      -0.84983521
C        1.95993387       0.33395533       0.64023671
O        1.66969118       1.60137048       0.81628628
C       -1.30313933       0.98312127      -0.69273892
O       -0.87259698       1.34888302       0.59644714
H       -1.82670355      -1.94687148      -0.29072997
H       -0.51443480      -2.00518110       0.89589193
H       -1.89048968      -0.93774281       1.15376787
H        1.03714717       0.18012558      -1.70976914
H        1.06348064      -1.47100240      -1.02030526
H        3.01390208       0.13792093       0.40127778
H        1.58519524      -0.34193452       1.43144307
H        0.34301962       1.68897177       0.85835685
H       -2.38575286       0.87561675      -0.74791596
H       -0.87685435       1.58724005      -1.49529790
17
Frame=13 idx=007595 GeodesicLength=1.0864312969584353 rxn_smarts="[C:1]([C@@:2]1([C:3]([C:4]([O:5][H:15])([H:13])[H:14])([H:11])[H:12])[C:6]([H:16])([H:17])[O:7]1)([H:8])([H:9])[H:10]>>[C:1]([C:2](=[C:3]([H:11])[H:12])[C:6]([O:7][H:15])([H:16])[H:17])([H:8])([H:9])[H:10].[C:4](=[O:5])([H:13])[H:14]"
C       -1.22191003      -1.34261557       0.39795771
C       -0.55860938      -0.25153573      -0.38315849
C        0.76772507      -0.43416761      -0.85999575
C        1.97577300       0.33390654       0.65207962
O        1.68245843       1.60045436       0.83661660
C       -1.31318882       0.97961419      -0.70682397
O       -0.87236993       1.34368616       0.58036723
H       -1.83361579      -1.94395654      -0.28031799
H       -0.51105155      -2.00391785       0.89457506
H       -1.88127687      -0.93569559       1.16511045
H        1.02666116       0.18537250      -1.71812963
H        1.04892048      -1.46986240      -1.04668832
H        3.03458365       0.14242763       0.43089215
H        1.58943047      -0.34645901       1.43411750
H        0.34998336       1.69080130       0.86910687
H       -2.39575059       0.87099810      -0.75414353
H       -0.88776265       1.58094950      -1.51156552
17
Frame=14 idx=007595 GeodesicLength=1.16992057239424 rxn_smarts="[C:1]([C@@:2]1([C:3]([C:4]([O:5][H:15])([H:13])[H:14])([H:11])[H:12])[C:6]([H:16])([H:17])[O:7]1)([H:8])([H:9])[H:10]>>[C:1]([C:2](=[C:3]([H:11])[H:12])[C:6]([O:7][H:15])([H:16])[H:17])([H:8])([H:9])[H:10].[C:4](=[O:5])([H:13])[H:14]"
C       -1.22086188      -1.34010635       0.40176828
C       -0.56320510      -0.24831353      -0.38542481
C        0.76093479      -0.43347632      -0.87069765
C        1.99188769       0.33372967       0.66417772
O        1.69521307       1.59928662       0.85718680
C       -1.32351813       0.97589290      -0.72114241
O       -0.87192677       1.33883857       0.56366257
H       -1.84060337      -1.94084148      -0.26931172
H       -0.50729689      -2.00251135       0.89301264
H       -1.87119003      -0.93317125       1.17673664
H        1.01604195       0.19084258      -1.72682817
H        1.03384569      -1.46846301      -1.07375401
H        3.05550257       0.14677566       0.46230542
H        1.59355329      -0.35115462       1.43650988
H        0.35695363       1.69217400       0.88033369
H       -2.40599770       0.86625597      -0.76012627
H       -0.89933281       1.57424194      -1.52840861
17
Frame=15 idx=007595 GeodesicLength=1.2534381127158831 rxn_smarts="[C:1]([C@@:2]1([C:3]([C:4]([O:5][H:15])([H:13])[H:14])([H:11])[H:12])[C:6]([H:16])([H:17])[O:7]1)([H:8])([H:9])[H:10]>>[C:1]([C:2](=[C:3]([H:11])[H:12])[C:6]([O:7][H:15])([H:16])[H:17])([H:8])([H:9])[H:10].[C:4](=[O:5])([H:13])[H:14]"
C       -1.21951051      -1.33734829       0.40566106
C       -0.56786636      -0.24507195      -0.38815474
C        0.75398007      -0.43277187      -0.88197106
C        2.00829743       0.33342485       0.67653790
O        1.70795149       1.59786361       0.87798557
C       -1.33413789       0.97195258      -0.73569878
O       -0.87125989       1.33434103       0.54630909
H       -1.84765574      -1.93751017      -0.25767751
H       -0.50314869      -2.00095226       0.89119300
H       -1.86017666      -0.93014229       1.18864753
H        1.00527749       0.19653940      -1.73588974
H        1.01823373      -1.46679782      -1.10152400
H        3.07661046       0.15094162       0.49562089
H        1.59757124      -0.35601573       1.43859172
H        0.36391772       1.69305500       0.89206076
H       -2.41649592       0.86139443      -0.76584965
H       -0.91158796       1.56709785      -1.54584205
17
Frame=16 idx=007595 GeodesicLength=1.3370021419480789 rxn_smarts="[C:1]([C@@:2]1([C:3]([C:4]([O:5][H:15])([H:13])[H:14])([H:11])[H:12])[C:6]([H:16])([H:17])[O:7]1)([H:8])([H:9])[H:10]>>[C:1]([C:2](=[C:3]([H:11])[H:12])[C:6]([O:7][H:15])([H:16])[H:17])([H:8])([H:9])[H:10].[C:4](=[O:5])([H:13])[H:14]"
C       -1.21782971      -1.33432469       0.40964056
C       -0.57259150      -0.24180949      -0.39136479
C        0.74685261      -0.43205565      -0.89385001
C        2.02502401       0.33299307       0.68916490
O        1.72066986       1.59618160       0.89899827
C       -1.34505972       0.96778733      -0.75049804
O       -0.87036076       1.33019519       0.52827745
H       -1.85476187      -1.93394075      -0.24537525
H       -0.49858211      -1.99923153       0.88910073
H       -1.84817511      -0.92657645       1.20084589
H        0.99435398       0.20246815      -1.74534077
H        1.00206502      -1.46486009      -1.13002271
H        3.09784434       0.15489366       0.53095621
H        1.60149344      -0.36103570       1.44032902
H        0.37085934       1.69340439       0.90431854
H       -2.42724687       0.85641650      -0.77129776
H       -0.92455496       1.55949446      -1.56388226
