13
Frame=0 idx=010138 GeodesicLength=0.0 rxn_smarts="[O:1]=[C:2]1[N:3]([H:8])[C:4]([H:9])([H:10])[C@@:5]2([H:11])[C:6]([H:12])([H:13])[N:7]12>>[O:1]([C@@:2]12[N:3]([H:8])[C@:4]1([H:10])[C@@:5]1([H:11])[C:6]([H:12])([H:13])[N:7]21)[H:9]"
O        1.12434259       0.89291772       1.48437905
C        0.77694341       0.69911445       0.23854625
N        1.56429621       0.09356487      -0.75521235
C        0.49975390      -0.89511146      -0.24758272
C       -0.76556762      -0.29117338      -0.79030863
C       -1.56339936       0.38036705       0.26425845
N       -0.45737874       1.10071721      -0.34910153
H        2.45093903      -0.15268170      -0.32290910
H        0.70935418      -0.28626422       1.23501784
H        0.79808211      -1.93661336      -0.25069678
H       -1.14099841      -0.44569161      -1.79510909
H       -2.53107942       0.78173328      -0.00692522
H       -1.46528791       0.05912117       1.29564384
13
Frame=1 idx=010138 GeodesicLength=0.08381112017880558 rxn_smarts="[O:1]=[C:2]1[N:3]([H:8])[C:4]([H:9])([H:10])[C@@:5]2([H:11])[C:6]([H:12])([H:13])[N:7]12>>[O:1]([C@@:2]12[N:3]([H:8])[C@:4]1([H:10])[C@@:5]1([H:11])[C:6]([H:12])([H:13])[N:7]21)[H:9]"
O        1.13034290       0.90237483       1.48166124
C        0.77778952       0.70880451       0.23872897
N        1.56163468       0.09055563      -0.74913808
C        0.49978971      -0.89562811      -0.24305364
C       -0.76471782      -0.29110478      -0.78889759
C       -1.56445031       0.38175822       0.26208651
N       -0.45888567       1.10287430      -0.35223115
H        2.45307268      -0.15107158      -0.32539052
H        0.71266851      -0.30167954       1.24994228
H        0.79435766      -1.93796998      -0.26514748
H       -1.14122338      -0.45037893      -1.79239760
H       -2.53304091       0.78043599      -0.00988712
H       -1.46733756       0.06102943       1.29372418
13
Frame=2 idx=010138 GeodesicLength=0.16757084665780084 rxn_smarts="[O:1]=[C:2]1[N:3]([H:8])[C:4]([H:9])([H:10])[C@@:5]2([H:11])[C:6]([H:12])([H:13])[N:7]12>>[O:1]([C@@:2]12[N:3]([H:8])[C@:4]1([H:10])[C@@:5]1([H:11])[C:6]([H:12])([H:13])[N:7]21)[H:9]"
O        1.13624302       0.91167866       1.47881403
C        0.77866364       0.71876570       0.23867233
N        1.55898218       0.08759474      -0.74296394
C        0.49983792      -0.89611261      -0.23840041
C       -0.76383812      -0.29103919      -0.78746231
C       -1.56546746       0.38319540       0.25989643
N       -0.46041961       1.10506296      -0.35550070
H        2.45518004      -0.14939938      -0.32796685
H        0.71600304      -0.31774109       1.26512159
H        0.79054969      -1.93898385      -0.27952368
H       -1.14142328      -0.45516863      -1.78962007
H       -2.53499173       0.77910803      -0.01286547
H       -1.46931933       0.06303927       1.29179905
13
Frame=3 idx=010138 GeodesicLength=0.25128964514612007 rxn_smarts="[O:1]=[C:2]1[N:3]([H:8])[C:4]([H:9])([H:10])[C@@:5]2([H:11])[C:6]([H:12])([H:13])[N:7]12>>[O:1]([C@@:2]12[N:3]([H:8])[C@:4]1([H:10])[C@@:5]1([H:11])[C:6]([H:12])([H:13])[N:7]21)[H:9]"
O        1.14202989       0.92081479       1.47583312
C        0.77956846       0.72901556       0.23835720
N        1.55633816       0.08469097      -0.73669170
C        0.49989997      -0.89655635      -0.23362295
C       -0.76292795      -0.29097287      -0.78600394
C       -1.56644843       0.38468344       0.25768709
N       -0.46198285       1.10728765      -0.35891957
H        2.45725886      -0.14765706      -0.33064857
H        0.71935370      -0.33450896       1.28055929
H        0.78666707      -1.93964394      -0.29378392
H       -1.14159929      -0.46006097      -1.78677518
H       -2.53693126       0.77775047      -0.01585829
H       -1.47122633       0.06515728       1.28986742
13
Frame=4 idx=010138 GeodesicLength=0.33498840123343265 rxn_smarts="[O:1]=[C:2]1[N:3]([H:8])[C:4]([H:9])([H:10])[C@@:5]2([H:11])[C:6]([H:12])([H:13])[N:7]12>>[O:1]([C@@:2]12[N:3]([H:8])[C@:4]1([H:10])[C@@:5]1([H:11])[C:6]([H:12])([H:13])[N:7]21)[H:9]"
O        1.14768716       0.92976507       1.47271419
C        0.78050720       0.73957646       0.23776075
N        1.55370165       0.08185409      -0.73032350
C        0.49997771      -0.89694834      -0.22871919
C       -0.76198645      -0.29090155      -0.78452321
C       -1.56739075       0.38622863       0.25545693
N       -0.46357835       1.10955404      -0.36249910
H        2.45930667      -0.14583475      -0.33344665
H        0.72271858      -0.35205358       1.29625846
H        0.78271874      -1.93993824      -0.30788336
H       -1.14175221      -0.46505856      -1.78385926
H       -2.53885892       0.77636458      -0.01886391
H       -1.47305104       0.06739216       1.28792787
13
Frame=5 idx=010138 GeodesicLength=0.41868464615595674 rxn_smarts="[O:1]=[C:2]1[N:3]([H:8])[C:4]([H:9])([H:10])[C@@:5]2([H:11])[C:6]([H:12])([H:13])[N:7]12>>[O:1]([C@@:2]12[N:3]([H:8])[C@:4]1([H:10])[C@@:5]1([H:11])[C:6]([H:12])([H:13])[N:7]21)[H:9]"
O        1.15319698       0.93851387       1.46945063
C        0.78148329       0.75047175       0.23685955
N        1.55107164       0.07909434      -0.72386076
C        0.50007315      -0.89727679      -0.22368639
C       -0.76101236      -0.29082115      -0.78301997
C       -1.56829182       0.38783751       0.25320485
N       -0.46520887       1.11186739      -0.36625066
H        2.46132052      -0.14392267      -0.33637249
H        0.72609511      -0.37044935       1.31222222
H        0.77871448      -1.93985676      -0.32177738
H       -1.14188187      -0.47016328      -1.78086852
H       -2.54077421       0.77495196      -0.02188066
H       -1.47478604       0.06975317       1.28597957
13
Frame=6 idx=010138 GeodesicLength=0.5023895500405741 rxn_smarts="[O:1]=[C:2]1[N:3]([H:8])[C:4]([H:9])([H:10])[C@@:5]2([H:11])[C:6]([H:12])([H:13])[N:7]12>>[O:1]([C@@:2]12[N:3]([H:8])[C@:4]1([H:10])[C@@:5]1([H:11])[C:6]([H:12])([H:13])[N:7]21)[H:9]"
O        1.15854332       0.94705750       1.46603646
C        0.78249924       0.76172041       0.23563329
N        1.54844712       0.07642288      -0.71730270
C        0.50018794      -0.89753131      -0.21852229
C       -0.76000488      -0.29072737      -0.78149446
C       -1.56914911       0.38951675       0.25092955
N       -0.46687635       1.11423254      -0.37018468
H        2.46329705      -0.14191119      -0.33943568
H        0.72947851      -0.38977437       1.32844833
H        0.77466585      -1.93939378      -0.33542537
H       -1.14198906      -0.47537784      -1.77779771
H       -2.54267586       0.77351527      -0.02490665
H       -1.47642377       0.07225050       1.28402190
13
Frame=7 idx=010138 GeodesicLength=0.5861231752908967 rxn_smarts="[O:1]=[C:2]1[N:3]([H:8])[C:4]([H:9])([H:10])[C@@:5]2([H:11])[C:6]([H:12])([H:13])[N:7]12>>[O:1]([C@@:2]12[N:3]([H:8])[C@:4]1([H:10])[C@@:5]1([H:11])[C:6]([H:12])([H:13])[N:7]21)[H:9]"
O        1.16370694       0.95539250       1.46246193
C        0.78355814       0.77334592       0.23405867
N        1.54582686       0.07385119      -0.71064740
C        0.50032420      -0.89769950      -0.21322082
C       -0.75896247      -0.29061660      -0.77994438
C       -1.56995988       0.39127427       0.24863033
N       -0.46858306       1.11665435      -0.37431309
H        2.46523305      -0.13978951      -0.34264536
H        0.73286392      -0.41011687       1.34493493
H        0.77058487      -1.93854418      -0.34878922
H       -1.14207317      -0.48070636      -1.77464061
H       -2.54456282       0.77205733      -0.02794033
H       -1.47795659       0.07489744       1.28205534
13
Frame=8 idx=010138 GeodesicLength=0.6698924671544407 rxn_smarts="[O:1]=[C:2]1[N:3]([H:8])[C:4]([H:9])([H:10])[C@@:5]2([H:11])[C:6]([H:12])([H:13])[N:7]12>>[O:1]([C@@:2]12[N:3]([H:8])[C@:4]1([H:10])[C@@:5]1([H:11])[C:6]([H:12])([H:13])[N:7]21)[H:9]"
O        1.16866948       0.96352227       1.45871764
C        0.78466259       0.78536828       0.23211393
N        1.54320992       0.07139158      -0.70389246
C        0.50048397      -0.89777010      -0.20777732
C       -0.75788395      -0.29048517      -0.77836828
C       -1.57072120       0.39311784       0.24630650
N       -0.47033047       1.11913708      -0.37864720
H        2.46712450      -0.13754710      -0.34601138
H        0.73624383      -0.43156617       1.36167949
H        0.76648560      -1.93730497      -0.36183012
H       -1.14213447      -0.48615228      -1.77139187
H       -2.54643313       0.77058203      -0.03097929
H       -1.47937667       0.07770672       1.28008038
13
Frame=9 idx=010138 GeodesicLength=0.7536716931263978 rxn_smarts="[O:1]=[C:2]1[N:3]([H:8])[C:4]([H:9])([H:10])[C@@:5]2([H:11])[C:6]([H:12])([H:13])[N:7]12>>[O:1]([C@@:2]12[N:3]([H:8])[C@:4]1([H:10])[C@@:5]1([H:11])[C:6]([H:12])([H:13])[N:7]21)[H:9]"
O        1.17340952       0.97144619       1.45479110
C        0.78581556       0.79780754       0.22977863
N        1.54059374       0.06905623      -0.69703433
C        0.50066905      -0.89773157      -0.20218548
C       -0.75676761      -0.29032963      -0.77676334
C       -1.57143067       0.39505537       0.24395743
N       -0.47211929       1.12168426      -0.38319670
H        2.46896693      -0.13517346      -0.34954472
H        0.73961659      -0.45420592       1.37867928
H        0.76238123      -1.93567469      -0.37451066
H       -1.14217158      -0.49171885      -1.76804540
H       -2.54828517       0.76909444      -0.03402305
H       -1.48067831       0.08069008       1.27809724
13
Frame=10 idx=010138 GeodesicLength=0.8374899195692713 rxn_smarts="[O:1]=[C:2]1[N:3]([H:8])[C:4]([H:9])([H:10])[C@@:5]2([H:11])[C:6]([H:12])([H:13])[N:7]12>>[O:1]([C@@:2]12[N:3]([H:8])[C@:4]1([H:10])[C@@:5]1([H:11])[C:6]([H:12])([H:13])[N:7]21)[H:9]"
O        1.17790645       0.97918591       1.45066911
C        0.78701945       0.81068535       0.22702986
N        1.53797788       0.06685916      -0.69006607
C        0.50088217      -0.89757135      -0.19643469
C       -0.75561133      -0.29014671      -0.77512542
C       -1.57208462       0.39709695       0.24158289
N       -0.47395055       1.12430015      -0.38797481
H        2.47075534      -0.13265659      -0.35325167
H        0.74297073      -0.47815311       1.39591882
H        0.75828642      -1.93365117      -0.38679713
H       -1.14218335      -0.49741411      -1.76458909
H       -2.55011634       0.76759912      -0.03706974
H       -1.48185225       0.08386639       1.27610794
13
Frame=11 idx=010138 GeodesicLength=0.9213390011166931 rxn_smarts="[O:1]=[C:2]1[N:3]([H:8])[C:4]([H:9])([H:10])[C@@:5]2([H:11])[C:6]([H:12])([H:13])[N:7]12>>[O:1]([C@@:2]12[N:3]([H:8])[C@:4]1([H:10])[C@@:5]1([H:11])[C:6]([H:12])([H:13])[N:7]21)[H:9]"
O        1.18214028       0.98676616       1.44633696
C        0.78827622       0.82401992       0.22384685
N        1.53536123       0.06481345      -0.68297931
C        0.50112582      -0.89727814      -0.19051412
C       -0.75441300      -0.28993432      -0.77344923
C       -1.57267968       0.39925200       0.23918368
N       -0.47582421       1.12698717      -0.39299286
H        2.47248461      -0.12998555      -0.35713865
H        0.74629529      -0.50351538       1.41338384
H        0.75421636      -1.93123537      -0.39866086
H       -1.14216822      -0.50324499      -1.76101354
H       -2.55192390       0.76610193      -0.04011772
H       -1.48289081       0.08725312       1.27411494
13
Frame=12 idx=010138 GeodesicLength=1.005219150840638 rxn_smarts="[O:1]=[C:2]1[N:3]([H:8])[C:4]([H:9])([H:10])[C@@:5]2([H:11])[C:6]([H:12])([H:13])[N:7]12>>[O:1]([C@@:2]12[N:3]([H:8])[C@:4]1([H:10])[C@@:5]1([H:11])[C:6]([H:12])([H:13])[N:7]21)[H:9]"
O        1.18608846       0.99421653       1.44177654
C        0.78958834       0.83783133       0.22020729
N        1.53274256       0.06293425      -0.67576468
C        0.50140271      -0.89683956      -0.18440998
C       -0.75316974      -0.28968985      -0.77172853
C       -1.57321207       0.40153115       0.23675976
N       -0.47773999       1.12974837      -0.39826326
H        2.47414886      -0.12714807      -0.36121240
H        0.74957731      -0.53041665       1.43105450
H        0.75018724      -1.92842659      -0.41006968
H       -1.14212366      -0.50922044      -1.75730485
H       -2.55370436       0.76460915      -0.04316568
H       -1.48378565       0.09087038       1.27212097
13
Frame=13 idx=010138 GeodesicLength=1.0890970288160347 rxn_smarts="[O:1]=[C:2]1[N:3]([H:8])[C:4]([H:9])([H:10])[C@@:5]2([H:11])[C:6]([H:12])([H:13])[N:7]12>>[O:1]([C@@:2]12[N:3]([H:8])[C@:4]1([H:10])[C@@:5]1([H:11])[C:6]([H:12])([H:13])[N:7]21)[H:9]"
O        1.18973122       1.00158078       1.43697023
C        0.79095701       0.85213239       0.21609377
N        1.53012038       0.06123476      -0.66840891
C        0.50171548      -0.89624536      -0.17810969
C       -0.75187909      -0.28941196      -0.76995637
C       -1.57367839       0.40394406       0.23431224
N       -0.47969637       1.13258436      -0.40379588
H        2.47574162      -0.12413401      -0.36547622
H        0.75280590      -0.55897444       1.44890109
H        0.74621345      -1.92522708      -0.42099558
H       -1.14204734      -0.51534779      -1.75345152
H       -2.55545412       0.76312781      -0.04621219
H       -1.48452973       0.09473649       1.27012903
13
Frame=14 idx=010138 GeodesicLength=1.1729663580703114 rxn_smarts="[O:1]=[C:2]1[N:3]([H:8])[C:4]([H:9])([H:10])[C@@:5]2([H:11])[C:6]([H:12])([H:13])[N:7]12>>[O:1]([C@@:2]12[N:3]([H:8])[C@:4]1([H:10])[C@@:5]1([H:11])[C:6]([H:12])([H:13])[N:7]21)[H:9]"
O        1.19304801       1.00891138       1.43189600
C        0.79238353       0.86693972       0.21148444
N        1.52749421       0.05973039      -0.66089804
C        0.50206713      -0.89548400      -0.17159503
C       -0.75053755      -0.28909964      -0.76812350
C       -1.57407424       0.40650207       0.23184237
N       -0.48169184       1.13549615      -0.40960333
H        2.47725574      -0.12093114      -0.36993345
H        0.75596072      -0.58932979       1.46689185
H        0.74231274      -1.92163735      -0.43141203
H       -1.14193575      -0.52163825      -1.74943735
H       -2.55716872       0.76166516      -0.04925539
H       -1.48511397       0.09887530       1.26814346
13
Frame=15 idx=010138 GeodesicLength=1.2567964510504328 rxn_smarts="[O:1]=[C:2]1[N:3]([H:8])[C:4]([H:9])([H:10])[C@@:5]2([H:11])[C:6]([H:12])([H:13])[N:7]12>>[O:1]([C@@:2]12[N:3]([H:8])[C@:4]1([H:10])[C@@:5]1([H:11])[C:6]([H:12])([H:13])[N:7]21)[H:9]"
O        1.19601901       1.01627075       1.42653049
C        0.79386870       0.88226582       0.20636015
N        1.52486334       0.05843637      -0.65321486
C        0.50246081      -0.89454471      -0.16484680
C       -0.74914166      -0.28875258      -0.76621993
C       -1.57439547       0.40921655       0.22935186
N       -0.48372412       1.13848346      -0.41569695
H        2.47868375      -0.11752876      -0.37458519
H        0.75902286      -0.62162455       1.48498495
H        0.73850201      -1.91765856      -0.44129336
H       -1.14178520      -0.52810347      -1.74524543
H       -2.55884368       0.76022912      -0.05229402
H       -1.48553036       0.10331057       1.26616909
13
Frame=16 idx=010138 GeodesicLength=1.3405581594644451 rxn_smarts="[O:1]=[C:2]1[N:3]([H:8])[C:4]([H:9])([H:10])[C@@:5]2([H:11])[C:6]([H:12])([H:13])[N:7]12>>[O:1]([C@@:2]12[N:3]([H:8])[C@:4]1([H:10])[C@@:5]1([H:11])[C:6]([H:12])([H:13])[N:7]21)[H:9]"
O        1.19862779       1.02373975       1.42084805
C        0.79541216       0.89812040       0.20070171
N        1.52222814       0.05736740      -0.64533856
C        0.50290006      -0.89341701      -0.15784413
C       -0.74768752      -0.28837147      -0.76423379
C       -1.57463737       0.41209883       0.22684317
N       -0.48579039       1.14154457      -0.42208836
H        2.48001767      -0.11391608      -0.37942860
H        0.76196643      -0.65601409       1.50312644
H        0.73479815      -1.91329157      -0.45061537
H       -1.14159163      -0.53475647      -1.74085661
H       -2.56047391       0.75882731      -0.05532605
H       -1.48576959       0.10806846       1.26421209
