12
Frame=0 idx=001404 GeodesicLength=0.0 rxn_smarts="[C:1]([C:2](=[O:3])[C:4]([C:5](=[O:6])[H:12])([H:10])[H:11])([H:7])([H:8])[H:9]>>[C-:2]#[O+:3].[C:1]([O:6][C:5](=[C:4]([H:10])[H:11])[H:12])([H:7])([H:8])[H:9]"
C        1.13864030       0.00975934      -1.32437559
C        0.63901747       0.90510593       0.66887607
O        0.92562166       1.89699435       1.14774176
C       -0.94945257      -0.40771406       1.35610801
C       -1.30436732      -0.52043070       0.03378103
O       -0.51422543      -1.01165490      -0.83064330
H        0.78408630      -0.45816340      -2.22919410
H        1.96503542      -0.50587190      -0.85575194
H        1.30830089       1.07191168      -1.46709806
H       -0.16635425      -1.04060321       1.75298455
H       -1.60949590       0.07904885       2.06494568
H       -2.21680655      -0.01838199      -0.31737407
12
Frame=1 idx=001404 GeodesicLength=0.06550514034541367 rxn_smarts="[C:1]([C:2](=[O:3])[C:4]([C:5](=[O:6])[H:12])([H:10])[H:11])([H:7])([H:8])[H:9]>>[C-:2]#[O+:3].[C:1]([O:6][C:5](=[C:4]([H:10])[H:11])[H:12])([H:7])([H:8])[H:9]"
C        1.13856045      -0.00542344      -1.29759348
C        0.61287753       0.94813157       0.65125200
O        0.84881444       1.96371808       1.11099487
C       -0.91919098      -0.42114642       1.34784026
C       -1.32393663      -0.51705493       0.03569953
O       -0.56188815      -0.99204352      -0.86216890
H        0.80083906      -0.44321601      -2.22465984
H        1.93834881      -0.55898604      -0.82355069
H        1.39139800       1.03926040      -1.45021377
H       -0.12562284      -1.06309780       1.70782980
H       -1.57213309       0.02933304       2.08682148
H       -2.22806659       0.02052507      -0.28225127
12
Frame=2 idx=001404 GeodesicLength=0.13034193695329105 rxn_smarts="[C:1]([C:2](=[O:3])[C:4]([C:5](=[O:6])[H:12])([H:10])[H:11])([H:7])([H:8])[H:9]>>[C-:2]#[O+:3].[C:1]([O:6][C:5](=[C:4]([H:10])[H:11])[H:12])([H:7])([H:8])[H:9]"
C        1.13759067      -0.01870431      -1.27108706
C        0.59237430       0.98674741       0.63641924
O        0.77078075       2.02644669       1.07095270
C       -0.88868613      -0.43157545       1.33797740
C       -1.34102888      -0.51323564       0.03755834
O       -0.60671126      -0.97143225      -0.89154799
H        0.81543133      -0.42420102      -2.21911340
H        1.91008829      -0.61104657      -0.79609745
H        1.47072821       1.00367805      -1.42494100
H       -0.08869916      -1.08404117       1.66343579
H       -1.53280408      -0.01454218       2.10409399
H       -2.23906405       0.05190643      -0.24765056
12
Frame=3 idx=001404 GeodesicLength=0.1947240870772922 rxn_smarts="[C:1]([C:2](=[O:3])[C:4]([C:5](=[O:6])[H:12])([H:10])[H:11])([H:7])([H:8])[H:9]>>[C-:2]#[O+:3].[C:1]([O:6][C:5](=[C:4]([H:10])[H:11])[H:12])([H:7])([H:8])[H:9]"
C        1.13537180      -0.02985432      -1.24470726
C        0.57516138       1.02238162       0.62386812
O        0.69558202       2.08382454       1.02829209
C       -0.85852921      -0.43974851       1.32695377
C       -1.35615046      -0.51030705       0.03948611
O       -0.64846759      -0.95139873      -0.91817067
H        0.82833441      -0.40240319      -2.21200976
H        1.88092558      -0.65996385      -0.77263949
H        1.54416090       0.96610133      -1.39388734
H       -0.05536248      -1.10353870       1.62046379
H       -1.49304458      -0.05373136       2.11720049
H       -2.24798177       0.07863823      -0.21484985
12
Frame=4 idx=001404 GeodesicLength=0.25879445333385853 rxn_smarts="[C:1]([C:2](=[O:3])[C:4]([C:5](=[O:6])[H:12])([H:10])[H:11])([H:7])([H:8])[H:9]>>[C-:2]#[O+:3].[C:1]([O:6][C:5](=[C:4]([H:10])[H:11])[H:12])([H:7])([H:8])[H:9]"
C        1.13295146      -0.03984093      -1.21883454
C        0.56273139       1.05489424       0.61365308
O        0.61952559       2.13566209       0.98313153
C       -0.82857812      -0.44564749       1.31516794
C       -1.36897065      -0.50695061       0.04149189
O       -0.68732747      -0.93126806      -0.94232975
H        0.84005685      -0.37721879      -2.20412099
H        1.85141556      -0.70757662      -0.75389143
H        1.61191970       0.92663550      -1.35716421
H       -0.02515582      -1.12159192       1.57921669
H       -1.45272256      -0.08804702       2.12695629
H       -2.25584592       0.10094961      -0.18327650
12
Frame=5 idx=001404 GeodesicLength=0.3228558276955986 rxn_smarts="[C:1]([C:2](=[O:3])[C:4]([C:5](=[O:6])[H:12])([H:10])[H:11])([H:7])([H:8])[H:9]>>[C-:2]#[O+:3].[C:1]([O:6][C:5](=[C:4]([H:10])[H:11])[H:12])([H:7])([H:8])[H:9]"
C        1.12991760      -0.04824254      -1.19320102
C        0.55257286       1.08574744       0.60512031
O        0.54714830       2.18181407       0.93611397
C       -0.79925113      -0.44978611       1.30281269
C       -1.38022955      -0.50433569       0.04359841
O       -0.72357767      -0.91209801      -0.96407676
H        0.85106024      -0.34969098      -2.19492880
H        1.82169602      -0.75226902      -0.73870221
H        1.67368930       0.88610464      -1.31693846
H        0.00213517      -1.13831391       1.53979206
H       -1.41293872      -0.11877950       2.13386141
H       -2.26222242       0.11984961      -0.15345160
12
Frame=6 idx=001404 GeodesicLength=0.3871652209642043 rxn_smarts="[C:1]([C:2](=[O:3])[C:4]([C:5](=[O:6])[H:12])([H:10])[H:11])([H:7])([H:8])[H:9]>>[C-:2]#[O+:3].[C:1]([O:6][C:5](=[C:4]([H:10])[H:11])[H:12])([H:7])([H:8])[H:9]"
C        1.12668905      -0.05563982      -1.16791753
C        0.54459164       1.11532717       0.59778410
O        0.47699523       2.22236490       0.88780067
C       -0.77044346      -0.45240235       1.29002646
C       -1.39006414      -0.50209983       0.04581831
O       -0.75763535      -0.89354004      -0.98380817
H        0.86185711      -0.31995882      -2.18466970
H        1.79192189      -0.79483065      -0.72699582
H        1.72987997       0.84460411      -1.27359761
H        0.02710459      -1.15368799       1.50206927
H       -1.37345111      -0.14610947       2.13845516
H       -2.26744542       0.13597279      -0.12496514
12
Frame=7 idx=001404 GeodesicLength=0.4517530502665953 rxn_smarts="[C:1]([C:2](=[O:3])[C:4]([C:5](=[O:6])[H:12])([H:10])[H:11])([H:7])([H:8])[H:9]>>[C-:2]#[O+:3].[C:1]([O:6][C:5](=[C:4]([H:10])[H:11])[H:12])([H:7])([H:8])[H:9]"
C        1.12336642      -0.06224687      -1.14301122
C        0.53832440       1.14402370       0.59113089
O        0.40964705       2.25736162       0.83904425
C       -0.74220508      -0.45352344       1.27685871
C       -1.39862442      -0.50032320       0.04810603
O       -0.78970583      -0.87569881      -1.00172965
H        0.87263957      -0.28791321      -2.17336956
H        1.76211465      -0.83548987      -0.71872453
H        1.78087365       0.80227566      -1.22761575
H        0.05008050      -1.16749562       1.46611597
H       -1.33439363      -0.16995409       2.14093384
H       -2.27211726       0.14898412      -0.09773898
12
Frame=8 idx=001404 GeodesicLength=0.5167584669190556 rxn_smarts="[C:1]([C:2](=[O:3])[C:4]([C:5](=[O:6])[H:12])([H:10])[H:11])([H:7])([H:8])[H:9]>>[C-:2]#[O+:3].[C:1]([O:6][C:5](=[C:4]([H:10])[H:11])[H:12])([H:7])([H:8])[H:9]"
C        1.11988502      -0.06800715      -1.11832425
C        0.53318172       1.17209199       0.58511021
O        0.34578938       2.28743917       0.78955126
C       -0.71453692      -0.45348010       1.26335457
C       -1.40619953      -0.49909012       0.05047701
O       -0.82015833      -0.85855885      -1.01806453
H        0.88372232      -0.25424944      -2.16071687
H        1.73235324      -0.87383172      -0.71329462
H        1.82683505       0.75946037      -1.17981962
H        0.07119665      -1.18017598       1.43167881
H       -1.29588767      -0.19118446       2.14167039
H       -2.27618093       0.15958629      -0.07162236
12
Frame=9 idx=001404 GeodesicLength=0.5822705937862487 rxn_smarts="[C:1]([C:2](=[O:3])[C:4]([C:5](=[O:6])[H:12])([H:10])[H:11])([H:7])([H:8])[H:9]>>[C-:2]#[O+:3].[C:1]([O:6][C:5](=[C:4]([H:10])[H:11])[H:12])([H:7])([H:8])[H:9]"
C        1.11631626      -0.07311151      -1.09394068
C        0.52886279       1.19975938       0.57931690
O        0.28537995       2.31299905       0.73987815
C       -0.68741764      -0.45237501       1.24953642
C       -1.41291444      -0.49842871       0.05291121
O       -0.84923508      -0.84206235      -1.03304928
H        0.89535399      -0.21907680      -2.14679097
H        1.70254624      -0.91009944      -0.71063205
H        1.86818680       0.71618005      -1.13038468
H        0.09073175      -1.19169866       1.39869317
H       -1.25786036      -0.20983413       2.14087550
H       -2.27995027       0.16774812      -0.04641370
12
Frame=10 idx=001404 GeodesicLength=0.6483065259079437 rxn_smarts="[C:1]([C:2](=[O:3])[C:4]([C:5](=[O:6])[H:12])([H:10])[H:11])([H:7])([H:8])[H:9]>>[C-:2]#[O+:3].[C:1]([O:6][C:5](=[C:4]([H:10])[H:11])[H:12])([H:7])([H:8])[H:9]"
C        1.11271481      -0.07784801      -1.06991596
C        0.52527559       1.22708897       0.57340442
O        0.22823442       2.33429135       0.69071394
C       -0.66085561      -0.45024947       1.23542535
C       -1.41885348      -0.49834982       0.05538298
O       -0.87711034      -0.82626945      -1.04682339
H        0.90769762      -0.18250380      -2.13160279
H        1.67285225      -0.94445519      -0.71074468
H        1.90502484       0.67253498      -1.07964859
H        0.10887093      -1.20201118       1.36718021
H       -1.22031937      -0.22583627       2.13868603
H       -2.28353167       0.17360790      -0.02205751
12
Frame=11 idx=001404 GeodesicLength=0.7149798345381688 rxn_smarts="[C:1]([C:2](=[O:3])[C:4]([C:5](=[O:6])[H:12])([H:10])[H:11])([H:7])([H:8])[H:9]>>[C-:2]#[O+:3].[C:1]([O:6][C:5](=[C:4]([H:10])[H:11])[H:12])([H:7])([H:8])[H:9]"
C        1.10907857      -0.08232791      -1.04629409
C        0.52231715       1.25409985       0.56726844
O        0.17390803       2.35160948       0.64199308
C       -0.63480957      -0.44731694       1.22105533
C       -1.42412006      -0.49877847       0.05791602
O       -0.90401560      -0.81103504      -1.05953144
H        0.92101605      -0.14483778      -2.11512149
H        1.64327694      -0.97689714      -0.71345130
H        1.93757375       0.62860624      -1.02779709
H        0.12578091      -1.21133459       1.33698809
H       -1.18316170      -0.23942172       2.13531711
H       -2.28684449       0.17763403       0.00165735
12
Frame=12 idx=001404 GeodesicLength=0.7819402487304488 rxn_smarts="[C:1]([C:2](=[O:3])[C:4]([C:5](=[O:6])[H:12])([H:10])[H:11])([H:7])([H:8])[H:9]>>[C-:2]#[O+:3].[C:1]([O:6][C:5](=[C:4]([H:10])[H:11])[H:12])([H:7])([H:8])[H:9]"
C        1.10520030      -0.08621626      -1.02321150
C        0.51963315       1.28078800       0.56082929
O        0.12424845       2.36599543       0.59460725
C       -0.60943592      -0.44359046       1.20639207
C       -1.42885528      -0.49998510       0.06040888
O       -0.93005544      -0.79678040      -1.07125914
H        0.93530620      -0.10700638      -2.09737780
H        1.61381493      -1.00674000      -0.71820679
H        1.96584470       0.58486672      -0.97563665
H        0.14140491      -1.21966937       1.30811310
H       -1.14676033      -0.25089145       2.13077495
H       -2.29034567       0.17922928       0.02456634
12
Frame=13 idx=001404 GeodesicLength=0.8496380499490324 rxn_smarts="[C:1]([C:2](=[O:3])[C:4]([C:5](=[O:6])[H:12])([H:10])[H:11])([H:7])([H:8])[H:9]>>[C-:2]#[O+:3].[C:1]([O:6][C:5](=[C:4]([H:10])[H:11])[H:12])([H:7])([H:8])[H:9]"
C        1.10122813      -0.09000755      -1.00069638
C        0.51745720       1.30712581       0.55390951
O        0.07687092       2.37703737       0.54803587
C       -0.58454566      -0.43931122       1.19150607
C       -1.43306825      -0.50164266       0.06298091
O       -0.95547352      -0.78305041      -1.08209287
H        0.95089153      -0.06863604      -2.07841849
H        1.58455204      -1.03460814      -0.72521159
H        1.99015525       0.54096916      -0.92274103
H        0.15605936      -1.22722543       1.28037662
H       -1.11067732      -0.26023857       2.12531612
H       -2.29344968       0.17958768       0.04703527
12
Frame=14 idx=001404 GeodesicLength=0.9177346665128462 rxn_smarts="[C:1]([C:2](=[O:3])[C:4]([C:5](=[O:6])[H:12])([H:10])[H:11])([H:7])([H:8])[H:9]>>[C-:2]#[O+:3].[C:1]([O:6][C:5](=[C:4]([H:10])[H:11])[H:12])([H:7])([H:8])[H:9]"
C        1.09699248      -0.09335521      -0.97892564
C        0.51560131       1.33305467       0.54656095
O        0.03324871       2.38570301       0.50297396
C       -0.56029317      -0.43450516       1.17638366
C       -1.43687003      -0.50393407       0.06555030
O       -0.98035615      -0.77018615      -1.09210060
H        0.96777612      -0.03064885      -2.05841102
H        1.55550826      -1.05989275      -0.73387018
H        2.01052519       0.49735853      -0.86982583
H        0.16970047      -1.23399932       1.25374428
H       -1.07525363      -0.26777230       2.11896292
H       -2.29657954       0.17817760       0.06895720
12
Frame=15 idx=001404 GeodesicLength=0.9862266741685556 rxn_smarts="[C:1]([C:2](=[O:3])[C:4]([C:5](=[O:6])[H:12])([H:10])[H:11])([H:7])([H:8])[H:9]>>[C-:2]#[O+:3].[C:1]([O:6][C:5](=[C:4]([H:10])[H:11])[H:12])([H:7])([H:8])[H:9]"
C        1.09246188      -0.09635875      -0.95801963
C        0.51412077       1.35847945       0.53874424
O       -0.00720361       2.39213007       0.45971589
C       -0.53668629      -0.42931858       1.16106672
C       -1.44031675      -0.50677117       0.06813569
O       -1.00482253      -0.75831592      -1.10128146
H        0.98601522       0.00661624      -2.03751902
H        1.52690097      -1.08259734      -0.74393566
H        2.02698848       0.45419921      -0.81715882
H        0.18245396      -1.24007665       1.22814376
H       -1.04049068      -0.27359738       2.11181911
H       -2.29942142       0.17561082       0.09028919
12
Frame=16 idx=001404 GeodesicLength=1.0550172890775553 rxn_smarts="[C:1]([C:2](=[O:3])[C:4]([C:5](=[O:6])[H:12])([H:10])[H:11])([H:7])([H:8])[H:9]>>[C-:2]#[O+:3].[C:1]([O:6][C:5](=[C:4]([H:10])[H:11])[H:12])([H:7])([H:8])[H:9]"
C        1.08758458      -0.09896021      -0.93808873
C        0.51301535       1.38332475       0.53049570
O       -0.04449565       2.39672442       0.41855351
C       -0.51376677      -0.42384270       1.14557974
C       -1.44347129      -0.51013658       0.07073111
O       -1.02896817      -0.74761971      -1.10965286
H        1.00559111       0.04276059      -2.01593271
H        1.49885870      -1.10263781      -0.75504420
H        2.03965103       0.41169187      -0.76507628
H        0.19440342      -1.24549492       1.20350039
H       -1.00647897      -0.27791085       2.10395970
H       -2.30192334       0.17210116       0.11097464
