18
Frame=0 idx=003414 GeodesicLength=0.0 rxn_smarts="[C:1]([C@@:2]1([H:10])[C:3]([H:11])([H:12])[C:4]([H:13])([H:14])[C@:5]1([C:6]([H:16])([H:17])[H:18])[H:15])([H:7])([H:8])[H:9]>>[C:1](=[C:2]([C@:3]1([H:12])[C:4]([H:13])([H:14])[C@:5]1([C:6]([H:16])([H:17])[H:18])[H:15])[H:10])([H:8])[H:9].[H:7][H:11]"
C       -1.53436780       0.79423500       0.85983668
C       -0.41832134      -0.05036992       0.90423513
C       -0.37935807      -1.08923504      -0.16594857
C        1.09812095      -1.32811481      -0.34770288
C        1.07604170       0.12128138       0.10845336
C        1.15266714       1.20364810      -0.93910498
H       -2.42070990      -0.75737821       0.52010191
H       -1.94808890       1.22296882       1.76226483
H       -1.82172561       1.26550817      -0.07349259
H       -0.16039042      -0.42506368       1.89314185
H       -2.07041302      -1.47707635       0.22944233
H       -0.83602815      -0.72272905      -1.08543375
H        1.43149136      -1.52300516      -1.36273118
H        1.56118670      -2.00739268       0.36442253
H        1.73247138       0.31849528       0.95105927
H        0.55844353       0.96478905      -1.82200353
H        0.79128919       2.15131880      -0.53658945
H        2.18769129       1.33812025      -1.25995091
18
Frame=1 idx=003414 GeodesicLength=0.10909093573863395 rxn_smarts="[C:1]([C@@:2]1([H:10])[C:3]([H:11])([H:12])[C:4]([H:13])([H:14])[C@:5]1([C:6]([H:16])([H:17])[H:18])[H:15])([H:7])([H:8])[H:9]>>[C:1](=[C:2]([C@:3]1([H:12])[C:4]([H:13])([H:14])[C@:5]1([C:6]([H:16])([H:17])[H:18])[H:15])[H:10])([H:8])[H:9].[H:7][H:11]"
C       -1.55563604       0.78522780       0.85568977
C       -0.42767108      -0.04507767       0.90494449
C       -0.37819911      -1.08343822      -0.16604234
C        1.09684534      -1.32632659      -0.35512807
C        1.07657501       0.12121000       0.10340389
C        1.17104531       1.21049084      -0.93581417
H       -2.43318096      -0.77086417       0.55231666
H       -1.93081528       1.26505882       1.74949842
H       -1.86756213       1.23361313      -0.08140962
H       -0.17016441      -0.41777066       1.89506366
H       -2.05841672      -1.50297490       0.24279737
H       -0.84315778      -0.73177012      -1.08739854
H        1.42182616      -1.51486171      -1.37424513
H        1.56162979      -2.01186231       0.34963032
H        1.73205947       0.30806830       0.94958392
H        0.57708880       0.98427342      -1.82227709
H        0.81905872       2.16000927      -0.52899027
H        2.20867492       1.33699477      -1.25162326
18
Frame=2 idx=003414 GeodesicLength=0.21809949786506316 rxn_smarts="[C:1]([C@@:2]1([H:10])[C:3]([H:11])([H:12])[C:4]([H:13])([H:14])[C@:5]1([C:6]([H:16])([H:17])[H:18])[H:15])([H:7])([H:8])[H:9]>>[C:1](=[C:2]([C@:3]1([H:12])[C:4]([H:13])([H:14])[C@:5]1([C:6]([H:16])([H:17])[H:18])[H:15])[H:10])([H:8])[H:9].[H:7][H:11]"
C       -1.57717647       0.77589507       0.85205083
C       -0.43719949      -0.03962548       0.90561875
C       -0.37726274      -1.07734236      -0.16619476
C        1.09523018      -1.32433839      -0.36300919
C        1.07706218       0.12121507       0.09828751
C        1.18979529       1.21747888      -0.93204687
H       -2.44548033      -0.78428031       0.58635048
H       -1.91350429       1.30819330       1.73185506
H       -1.91412026       1.19985185      -0.08816292
H       -0.17996166      -0.41025247       1.89693036
H       -2.04529604      -1.52960060       0.25691081
H       -0.85079241      -0.74089058      -1.08909169
H        1.41157475      -1.50618447      -1.38622095
H        1.56174699      -2.01635227       0.33400713
H        1.73150541       0.29730971       0.94805898
H        0.59582009       1.00468757      -1.82186570
H        0.84815770       2.16880681      -0.52031618
H        2.22990110       1.33542869      -1.24316167
18
Frame=3 idx=003414 GeodesicLength=0.327020056686908 rxn_smarts="[C:1]([C@@:2]1([H:10])[C:3]([H:11])([H:12])[C:4]([H:13])([H:14])[C@:5]1([C:6]([H:16])([H:17])[H:18])[H:15])([H:7])([H:8])[H:9]>>[C:1](=[C:2]([C@:3]1([H:12])[C:4]([H:13])([H:14])[C@:5]1([C:6]([H:16])([H:17])[H:18])[H:15])[H:10])([H:8])[H:9].[H:7][H:11]"
C       -1.59894321       0.76633361       0.84897278
C       -0.44689501      -0.03396633       0.90627130
C       -0.37656769      -1.07089575      -0.16640897
C        1.09325110      -1.32214065      -0.37136363
C        1.07752069       0.12130749       0.09309059
C        1.20896771       1.22459008      -0.92782025
H       -2.45760661      -0.79740933       0.62230560
H       -1.89655920       1.35186019       1.70910533
H       -1.96131697       1.16427947      -0.09359177
H       -0.18974208      -0.40244703       1.89876195
H       -2.03094234      -1.55690924       0.27181074
H       -0.85896913      -0.75004418      -1.09049339
H        1.40070349      -1.49696626      -1.39867427
H        1.56150478      -2.02085935       0.31752798
H        1.73083517       0.28620956       0.94646162
H        0.61470287       1.02602963      -1.82077697
H        0.87864185       2.17765580      -0.51057913
H        2.25141456       1.33337228      -1.23459951
18
Frame=4 idx=003414 GeodesicLength=0.4358319719979252 rxn_smarts="[C:1]([C@@:2]1([H:10])[C:3]([H:11])([H:12])[C:4]([H:13])([H:14])[C@:5]1([C:6]([H:16])([H:17])[H:18])[H:15])([H:7])([H:8])[H:9]>>[C:1](=[C:2]([C@:3]1([H:12])[C:4]([H:13])([H:14])[C@:5]1([C:6]([H:16])([H:17])[H:18])[H:15])[H:10])([H:8])[H:9].[H:7][H:11]"
C       -1.62093410       0.75668397       0.84648922
C       -0.45675144      -0.02803232       0.90693439
C       -0.37612574      -1.06405457      -0.16670369
C        1.09092362      -1.31974728      -0.38023736
C        1.07799440       0.12148918       0.08781055
C        1.22863055       1.23179712      -0.92314931
H       -2.46951982      -0.81005673       0.66040520
H       -1.88052093       1.39561282       1.68108656
H       -2.00915623       1.12694387      -0.09758591
H       -0.19945822      -0.39426275       1.90062500
H       -2.01528436      -1.58483642       0.28745685
H       -0.86773707      -0.75920140      -1.09162678
H        1.38920375      -1.48722316      -1.41168331
H        1.56093538      -2.02542184       0.30013711
H        1.73011808       0.27473821       0.94480997
H        0.63378930       1.04831383      -1.81903711
H        0.91059872       2.18651117      -0.49975025
H        2.27329411       1.33074630      -1.22598112
18
Frame=5 idx=003414 GeodesicLength=0.5446097540908897 rxn_smarts="[C:1]([C@@:2]1([H:10])[C:3]([H:11])([H:12])[C:4]([H:13])([H:14])[C@:5]1([C:6]([H:16])([H:17])[H:18])[H:15])([H:7])([H:8])[H:9]>>[C:1](=[C:2]([C@:3]1([H:12])[C:4]([H:13])([H:14])[C@:5]1([C:6]([H:16])([H:17])[H:18])[H:15])[H:10])([H:8])[H:9].[H:7][H:11]"
C       -1.64295432       0.74690954       0.84453563
C       -0.46676557      -0.02184546       0.90749993
C       -0.37598016      -1.05674913      -0.16706351
C        1.08806987      -1.31704793      -0.38956434
C        1.07839073       0.12180855       0.08239593
C        1.24879825       1.23908527      -0.91802732
H       -2.48136139      -0.82187885       0.70054693
H       -1.86531106       1.43876220       1.64763047
H       -2.05726543       1.08785409      -0.09994739
H       -0.20915135      -0.38571599       1.90231660
H       -1.99798982      -1.61346736       0.30398973
H       -0.87707703      -0.76830795      -1.09235174
H        1.37693462      -1.47682016      -1.42504834
H        1.55974699      -2.02987695       0.28187504
H        1.72917896       0.26295143       0.94294826
H        0.65324359       1.07149074      -1.81655053
H        0.94401529       2.19524333      -0.48794924
H        2.29547784       1.32760464      -1.21723610
18
Frame=6 idx=003414 GeodesicLength=0.6532548812275258 rxn_smarts="[C:1]([C@@:2]1([H:10])[C:3]([H:11])([H:12])[C:4]([H:13])([H:14])[C@:5]1([C:6]([H:16])([H:17])[H:18])[H:15])([H:7])([H:8])[H:9]>>[C:1](=[C:2]([C@:3]1([H:12])[C:4]([H:13])([H:14])[C@:5]1([C:6]([H:16])([H:17])[H:18])[H:15])[H:10])([H:8])[H:9].[H:7][H:11]"
C       -1.66508028       0.73726562       0.84313007
C       -0.47693321      -0.01529245       0.90805373
C       -0.37612535      -1.04894310      -0.16754300
C        1.08480160      -1.31411610      -0.39943636
C        1.07881834       0.12224964       0.07685814
C        1.26957685       1.24640205      -0.91250513
H       -2.49300080      -0.83265408       0.74318191
H       -1.85193444       1.48081791       1.60886108
H       -2.10576603       1.04716285      -0.10063711
H       -0.21874360      -0.37666756       1.90401703
H       -1.97909600      -1.64265294       0.32118298
H       -0.88705301      -0.77733890      -1.09279076
H        1.36398363      -1.46585953      -1.43896077
H        1.55811666      -2.03434907       0.26266593
H        1.72819199       0.25079923       0.94097008
H        0.67313440       1.09554437      -1.81344892
H        0.97898183       2.20382219      -0.47514728
H        2.31812741       1.32380987      -1.20845163
18
Frame=7 idx=003414 GeodesicLength=0.7616890539399102 rxn_smarts="[C:1]([C@@:2]1([H:10])[C:3]([H:11])([H:12])[C:4]([H:13])([H:14])[C@:5]1([C:6]([H:16])([H:17])[H:18])[H:15])([H:7])([H:8])[H:9]>>[C:1](=[C:2]([C@:3]1([H:12])[C:4]([H:13])([H:14])[C@:5]1([C:6]([H:16])([H:17])[H:18])[H:15])[H:10])([H:8])[H:9].[H:7][H:11]"
C       -1.68722641       0.72779212       0.84216222
C       -0.48727032      -0.00835592       0.90853252
C       -0.37658951      -1.04058540      -0.16815439
C        1.08103245      -1.31088730      -0.40985177
C        1.07924122       0.12283820       0.07117021
C        1.29102053       1.25372046      -0.90657233
H       -2.50444263      -0.84210428       0.78854623
H       -1.84062725       1.52127487       1.56474143
H       -2.15447794       1.00485276      -0.09958192
H       -0.22827231      -0.36707532       1.90563285
H       -1.95838698      -1.67241536       0.33898403
H       -0.89766576      -0.78628021      -1.09289467
H        1.35027265      -1.45424568      -1.45336318
H        1.55590087      -2.03876235       0.24248032
H        1.72707335       0.23828489       0.93880861
H        0.69359640       1.12046766      -1.80967670
H        1.01556289       2.21214057      -0.46136974
H        2.34125875       1.31934028      -1.19959371
18
Frame=8 idx=003414 GeodesicLength=0.8700179665364323 rxn_smarts="[C:1]([C@@:2]1([H:10])[C:3]([H:11])([H:12])[C:4]([H:13])([H:14])[C@:5]1([C:6]([H:16])([H:17])[H:18])[H:15])([H:7])([H:8])[H:9]>>[C:1](=[C:2]([C@:3]1([H:12])[C:4]([H:13])([H:14])[C@:5]1([C:6]([H:16])([H:17])[H:18])[H:15])[H:10])([H:8])[H:9].[H:7][H:11]"
C       -1.70945634       0.71861522       0.84155160
C       -0.49781861      -0.00098338       0.90893243
C       -0.37738775      -1.03166124      -0.16896073
C        1.07680173      -1.30737086      -0.42087510
C        1.07969519       0.12358229       0.06533131
C        1.31320624       1.26100212      -0.90022264
H       -2.51569159      -0.84990519       0.83700009
H       -1.83183671       1.55979592       1.51535232
H       -2.20345597       0.96094277      -0.09673242
H       -0.23775085      -0.35684641       1.90720011
H       -1.93573429      -1.70278129       0.35723087
H       -0.90896695      -0.79516941      -1.09273358
H        1.33584740      -1.44198422      -1.46834685
H        1.55316134      -2.04313584       0.22124338
H        1.72586523       0.22540180       0.93650204
H        0.71471486       1.14625182      -1.80524786
H        1.05383743       2.22012768      -0.44656080
H        2.36496964       1.31411821      -1.19066415
18
Frame=9 idx=003414 GeodesicLength=0.9784188261587566 rxn_smarts="[C:1]([C@@:2]1([H:10])[C:3]([H:11])([H:12])[C:4]([H:13])([H:14])[C@:5]1([C:6]([H:16])([H:17])[H:18])[H:15])([H:7])([H:8])[H:9]>>[C:1](=[C:2]([C@:3]1([H:12])[C:4]([H:13])([H:14])[C@:5]1([C:6]([H:16])([H:17])[H:18])[H:15])[H:10])([H:8])[H:9].[H:7][H:11]"
C       -1.73154871       0.70968343       0.84112861
C       -0.50859020       0.00670206       0.90912670
C       -0.37851860      -1.02213286      -0.16998035
C        1.07195112      -1.30346080      -0.43243231
C        1.08003303       0.12449684       0.05930847
C        1.33605922       1.26823483      -0.89343136
H       -2.52710232      -0.85548519       0.88857179
H       -1.82518393       1.59584534       1.46062971
H       -2.25224243       0.91544054      -0.09197689
H       -0.24727484      -0.34613717       1.90851234
H       -1.91056992      -1.73388594       0.37596031
H       -0.92086329      -0.80395425      -1.09220981
H        1.32061983      -1.42888964      -1.48370879
H        1.54962970      -2.04733261       0.19902396
H        1.72428134       0.21213577       0.93393774
H        0.73665955       1.17285484      -1.80009690
H        1.09357741       2.22762636      -0.43085670
H        2.38908304       1.30825847      -1.18150651
18
Frame=10 idx=003414 GeodesicLength=1.0866452577777173 rxn_smarts="[C:1]([C@@:2]1([H:10])[C:3]([H:11])([H:12])[C:4]([H:13])([H:14])[C@:5]1([C:6]([H:16])([H:17])[H:18])[H:15])([H:7])([H:8])[H:9]>>[C:1](=[C:2]([C@:3]1([H:12])[C:4]([H:13])([H:14])[C@:5]1([C:6]([H:16])([H:17])[H:18])[H:15])[H:10])([H:8])[H:9].[H:7][H:11]"
C       -1.75368288       0.70120287       0.84078812
C       -0.51965429       0.01480637       0.90915809
C       -0.38001046      -1.01200750      -0.17130905
C        1.06660683      -1.29921119      -0.44464512
C        1.08036415       0.12558999       0.05311065
C        1.35972300       1.27535165      -0.88620537
H       -2.53839335      -0.85845759       0.94397091
H       -1.82159813       1.62905786       1.40085235
H       -2.30106772       0.86841315      -0.08531320
H       -0.25685094      -0.33477267       1.90969813
H       -1.88299783      -1.76570395       0.39473811
H       -0.93344953      -0.81272383      -1.09147629
H        1.30471629      -1.41504906      -1.49965537
H        1.54550588      -2.05142163       0.17568824
H        1.72248908       0.19850581       0.93121076
H        0.75954373       1.20021418      -1.79430066
H        1.13492945       2.23458370      -0.41415861
H        2.41382673       1.30162182      -1.17215170
18
Frame=11 idx=003414 GeodesicLength=1.194676089823607 rxn_smarts="[C:1]([C@@:2]1([H:10])[C:3]([H:11])([H:12])[C:4]([H:13])([H:14])[C@:5]1([C:6]([H:16])([H:17])[H:18])[H:15])([H:7])([H:8])[H:9]>>[C:1](=[C:2]([C@:3]1([H:12])[C:4]([H:13])([H:14])[C@:5]1([C:6]([H:16])([H:17])[H:18])[H:15])[H:10])([H:8])[H:9].[H:7][H:11]"
C       -1.77579434       0.69317825       0.84032641
C       -0.53106431       0.02325343       0.90894271
C       -0.38186766      -1.00128403      -0.17299638
C        1.06071377      -1.29455504      -0.45753010
C        1.08061642       0.12686606       0.04672746
C        1.38418624       1.28232509      -0.87848699
H       -2.54970689      -0.85819581       1.00366735
H       -1.82104007       1.65906654       1.33593057
H       -2.34974222       0.81976683      -0.07669979
H       -0.26657971      -0.32281372       1.91065290
H       -1.85263011      -1.79834307       0.41336677
H       -0.94668644      -0.82151691      -1.09051986
H        1.28811696      -1.40031969      -1.51614941
H        1.54070029      -2.05532592       0.15118351
H        1.72033196       0.18447814       0.92828698
H        0.78348154       1.22833026      -1.78777410
H        1.17782387       2.24086588      -0.39643599
H        2.43914070       1.29422372      -1.16249206
18
Frame=12 idx=003414 GeodesicLength=1.3025701398083145 rxn_smarts="[C:1]([C@@:2]1([H:10])[C:3]([H:11])([H:12])[C:4]([H:13])([H:14])[C@:5]1([C:6]([H:16])([H:17])[H:18])[H:15])([H:7])([H:8])[H:9]>>[C:1](=[C:2]([C@:3]1([H:12])[C:4]([H:13])([H:14])[C@:5]1([C:6]([H:16])([H:17])[H:18])[H:15])[H:10])([H:8])[H:9].[H:7][H:11]"
C       -1.79795222       0.68567424       0.83954440
C       -0.54290610       0.03199539       0.90843801
C       -0.38410209      -0.99001036      -0.17512994
C        1.05431000      -1.28948265      -0.47117842
C        1.08078498       0.12832382       0.04016640
C        1.40948037       1.28913154      -0.87019249
H       -2.56109634      -0.85390737       1.06837711
H       -1.82369618       1.68559408       1.26570193
H       -2.39831052       0.76934815      -0.06606776
H       -0.27655120      -0.31025821       1.91135785
H       -1.81919122      -1.83195389       0.43151563
H       -0.96059688      -0.83045599      -1.08940695
H        1.27088050      -1.38463391      -1.53328659
H        1.53528768      -2.05903889       0.12536732
H        1.71777471       0.17002765       0.92519884
H        0.80853893       1.25722810      -1.78042579
H        1.22228624       2.24638135      -0.37752888
H        2.46505934       1.28603697      -1.15245068
18
Frame=13 idx=003414 GeodesicLength=1.4103023927526994 rxn_smarts="[C:1]([C@@:2]1([H:10])[C:3]([H:11])([H:12])[C:4]([H:13])([H:14])[C@:5]1([C:6]([H:16])([H:17])[H:18])[H:15])([H:7])([H:8])[H:9]>>[C:1](=[C:2]([C@:3]1([H:12])[C:4]([H:13])([H:14])[C@:5]1([C:6]([H:16])([H:17])[H:18])[H:15])[H:10])([H:8])[H:9].[H:7][H:11]"
C       -1.81999176       0.67867078       0.83820118
C       -0.55522537       0.04078681       0.90756334
C       -0.38668255      -0.97822626      -0.17778888
C        1.04734404      -1.28391047      -0.48558367
C        1.08073679       0.12993486       0.03343548
C        1.43544921       1.29573454      -0.86123329
H       -2.57290204      -0.84439877       1.13860776
H       -1.82906090       1.70813823       1.18989502
H       -2.44644770       0.71710929      -0.05327134
H       -0.28688618      -0.29738901       1.91170266
H       -1.78208108      -1.86671840       0.44886628
H       -0.97508009      -0.83955872      -1.08813605
H        1.25302714      -1.36779052      -1.55098803
H        1.52919837      -2.06244315       0.09823162
H        1.71456722       0.15508294       0.92192801
H        0.83480015       1.28682183      -1.77219661
H        1.26786603       2.25095273      -0.35745909
H        2.49136873       1.27720329      -1.14177440
18
Frame=14 idx=003414 GeodesicLength=1.5178160861270857 rxn_smarts="[C:1]([C@@:2]1([H:10])[C:3]([H:11])([H:12])[C:4]([H:13])([H:14])[C@:5]1([C:6]([H:16])([H:17])[H:18])[H:15])([H:7])([H:8])[H:9]>>[C:1](=[C:2]([C@:3]1([H:12])[C:4]([H:13])([H:14])[C@:5]1([C:6]([H:16])([H:17])[H:18])[H:15])[H:10])([H:8])[H:9].[H:7][H:11]"
C       -1.84207499       0.67223974       0.83602886
C       -0.56815430       0.04956648       0.90628309
C       -0.38963160      -0.96604790      -0.18109317
C        1.03992212      -1.27786035      -0.50091665
C        1.08051216       0.13169115       0.02654410
C        1.46217825       1.30211467      -0.85148308
H       -2.58493674      -0.82831641       1.21557712
H       -1.83769562       1.72626283       1.10823493
H       -2.49435444       0.66275524      -0.03816626
H       -0.29770892      -0.28418776       1.91169332
H       -1.74115839      -1.90282395       0.46481893
H       -0.99017316      -0.84904328      -1.08682806
H        1.23467593      -1.34974611      -1.56945536
H        1.52262761      -2.06556855       0.06950612
H        1.71074250       0.13962054       0.91852397
H        0.86235953       1.31714273      -1.76295685
H        1.31466485       2.25451256      -0.33594688
H        2.51820522       1.26768838      -1.13036409
18
Frame=15 idx=003414 GeodesicLength=1.6251235102369233 rxn_smarts="[C:1]([C@@:2]1([H:10])[C:3]([H:11])([H:12])[C:4]([H:13])([H:14])[C@:5]1([C:6]([H:16])([H:17])[H:18])[H:15])([H:7])([H:8])[H:9]>>[C:1](=[C:2]([C@:3]1([H:12])[C:4]([H:13])([H:14])[C@:5]1([C:6]([H:16])([H:17])[H:18])[H:15])[H:10])([H:8])[H:9].[H:7][H:11]"
C       -1.86415310       0.66633668       0.83269489
C       -0.58179202       0.05805152       0.90451694
C       -0.39291810      -0.95360322      -0.18515591
C        1.03206944      -1.27126562      -0.51729576
C        1.08002255       0.13354239       0.01951611
C        1.48955919       1.30825304      -0.84074877
H       -2.59731992      -0.80364052       1.30040735
H       -1.84941616       1.73931213       1.02000362
H       -2.54193397       0.60589302      -0.02044667
H       -0.30918184      -0.27093279       1.91124321
H       -1.69588655      -1.94051120       0.47881262
H       -1.00579379      -0.85905776      -1.08553381
H        1.21588001      -1.33026269      -1.58876894
H        1.51565887      -2.06833325       0.03896598
H        1.70612147       0.12351117       0.91499815
H        0.89123235       1.34822545      -1.75248998
H        1.36242260       2.25689568      -0.31274546
H        2.54542898       1.25758598      -1.11797357
18
Frame=16 idx=003414 GeodesicLength=1.732283266950585 rxn_smarts="[C:1]([C@@:2]1([H:10])[C:3]([H:11])([H:12])[C:4]([H:13])([H:14])[C@:5]1([C:6]([H:16])([H:17])[H:18])[H:15])([H:7])([H:8])[H:9]>>[C:1](=[C:2]([C@:3]1([H:12])[C:4]([H:13])([H:14])[C@:5]1([C:6]([H:16])([H:17])[H:18])[H:15])[H:10])([H:8])[H:9].[H:7][H:11]"
C       -1.88624081       0.66088883       0.82783228
C       -0.59626713       0.06589673       0.90219268
C       -0.39650401      -0.94110299      -0.19012109
C        1.02387441      -1.26408527      -0.53491107
C        1.07920577       0.13541999       0.01238642
C        1.51748440       1.31414782      -0.82877392
H       -2.61001166      -0.76757031       1.39443898
H       -1.86420865       1.74637064       0.92422548
H       -2.58921187       0.54595595       0.00042310
H       -0.32148600      -0.25796291       1.91028220
H       -1.64579935      -1.98006021       0.49012106
H       -1.02186561      -0.86982869      -1.08434971
H        1.19674108      -1.30910096      -1.60909535
H        1.50849931      -2.07068187       0.00626633
H        1.70057395       0.10660319       0.91137969
H        0.92138655       1.38014510      -1.74049985
H        1.41089992       2.25795307      -0.28746732
H        2.57292971       1.24701188      -1.10432994
