14
Frame=0 idx=000171 GeodesicLength=0.0 rxn_smarts="[C:1]([C:2]([O:3][C:4]([C:5](=[O:6])[H:14])([H:12])[H:13])([H:10])[H:11])([H:7])([H:8])[H:9]>>[C:1]1([H:8])([H:9])[C:2]([H:10])([H:11])[O:3][C:4]([H:12])([H:13])[C@@:5]1([O:6][H:7])[H:14]"
C       -0.64886512      -0.87769785      -0.34784951
C       -0.48854882       0.32064434      -1.26553288
O        0.72295460       0.99893140      -0.97649768
C        1.15955176       0.72639409       0.33398573
C        0.03544002       0.10619914       1.13699797
O        0.30993309      -0.72821460       2.12542209
H       -0.22913063      -1.14112560       0.94502412
H       -0.01874511      -1.71408955      -0.66964841
H       -1.68815735      -1.18593774      -0.24057855
H       -0.45520842       0.02038043      -2.31421691
H       -1.33850868       1.00124278      -1.13825910
H        1.46027164       1.65731910       0.82338307
H        2.01269617       0.04058485       0.33313312
H       -0.83368314       0.77536920       1.25463694
14
Frame=1 idx=000171 GeodesicLength=0.13261785982798954 rxn_smarts="[C:1]([C:2]([O:3][C:4]([C:5](=[O:6])[H:14])([H:12])[H:13])([H:10])[H:11])([H:7])([H:8])[H:9]>>[C:1]1([H:8])([H:9])[C:2]([H:10])([H:11])[O:3][C:4]([H:12])([H:13])[C@@:5]1([O:6][H:7])[H:14]"
C       -0.66251986      -0.87849089      -0.35068819
C       -0.48532471       0.31581189      -1.26793842
O        0.69728257       1.03146265      -0.95815206
C        1.16270841       0.73597432       0.33551473
C        0.04980277       0.10798793       1.14638159
O        0.33496471      -0.72561844       2.13060326
H       -0.26248288      -1.16500230       0.95634297
H       -0.03717827      -1.72034704      -0.66689030
H       -1.70482919      -1.18332546      -0.26248689
H       -0.41944944       0.00446631      -2.31234375
H       -1.34613790       0.98854504      -1.17481858
H        1.47357809       1.66035370       0.83103982
H        2.01682476       0.05197666       0.30895630
H       -0.81723908       0.77620564       1.28447951
14
Frame=2 idx=000171 GeodesicLength=0.26498249503481075 rxn_smarts="[C:1]([C:2]([O:3][C:4]([C:5](=[O:6])[H:14])([H:12])[H:13])([H:10])[H:11])([H:7])([H:8])[H:9]>>[C:1]1([H:8])([H:9])[C:2]([H:10])([H:11])[O:3][C:4]([H:12])([H:13])[C@@:5]1([O:6][H:7])[H:14]"
C       -0.67705036      -0.87894857      -0.35310038
C       -0.48165075       0.31088622      -1.27005125
O        0.66986915       1.06364515      -0.93868815
C        1.16565802       0.74632439       0.33670107
C        0.06511265       0.10964175       1.15604903
O        0.36165182      -0.72524015       2.13405567
H       -0.29826162      -1.18856375       0.96827949
H       -0.05698692      -1.72674654      -0.66324713
H       -1.72223038      -1.17993932      -0.28501180
H       -0.38100518      -0.01171815      -2.30882916
H       -1.35257074       0.97497964      -1.21374375
H        1.48639609       1.66435587       0.83782586
H        2.02070900       0.06509649       0.28379182
H       -0.79964078       0.77622697       1.31596868
14
Frame=3 idx=000171 GeodesicLength=0.3972354631626467 rxn_smarts="[C:1]([C:2]([O:3][C:4]([C:5](=[O:6])[H:14])([H:12])[H:13])([H:10])[H:11])([H:7])([H:8])[H:9]>>[C:1]1([H:8])([H:9])[C:2]([H:10])([H:11])[O:3][C:4]([H:12])([H:13])[C@@:5]1([O:6][H:7])[H:14]"
C       -0.69253428      -0.87902901      -0.35504825
C       -0.47752143       0.30583311      -1.27184228
O        0.64071766       1.09519504      -0.91814542
C        1.16835475       0.75753624       0.33752190
C        0.08145931       0.11116285       1.16597124
O        0.38996344      -0.72729948       2.13550385
H       -0.33649842      -1.21182723       0.98075284
H       -0.07833814      -1.73324753      -0.65872973
H       -1.74038072      -1.17567568      -0.30810524
H       -0.33988898      -0.02824442      -2.30332466
H       -1.35744698       0.96055100      -1.25511250
H        1.49851456       1.66954882       0.84364723
H        2.02434205       0.08017223       0.25773392
H       -0.78074282       0.77532406       1.34917710
14
Frame=4 idx=000171 GeodesicLength=0.529477750370098 rxn_smarts="[C:1]([C:2]([O:3][C:4]([C:5](=[O:6])[H:14])([H:12])[H:13])([H:10])[H:11])([H:7])([H:8])[H:9]>>[C:1]1([H:8])([H:9])[C:2]([H:10])([H:11])[O:3][C:4]([H:12])([H:13])[C@@:5]1([O:6][H:7])[H:14]"
C       -0.70904632      -0.87869209      -0.35650162
C       -0.47294965       0.30061374      -1.27327864
O        0.60987038       1.12579114      -0.89661419
C        1.17075873       0.76969627       0.33796000
C        0.09893198       0.11255184       1.17609692
O        0.41984173      -0.73195552       2.13466548
H       -0.37719268      -1.23482217       0.99366182
H       -0.10139508      -1.73980862      -0.65338068
H       -1.75929714      -1.17044172      -0.33172271
H       -0.29619377      -0.04518859      -2.29544180
H       -1.36036357       0.94528473      -1.29893854
H        1.50969316       1.67616717       0.84842676
H        2.02773051       0.09742709       0.23092647
H       -0.76038827       0.77337673       1.38414073
14
Frame=5 idx=000171 GeodesicLength=0.6611764075020564 rxn_smarts="[C:1]([C:2]([O:3][C:4]([C:5](=[O:6])[H:14])([H:12])[H:13])([H:10])[H:11])([H:7])([H:8])[H:9]>>[C:1]1([H:8])([H:9])[C:2]([H:10])([H:11])[O:3][C:4]([H:12])([H:13])[C@@:5]1([O:6][H:7])[H:14]"
C       -0.72662224      -0.87783084      -0.35745188
C       -0.46788347       0.29522581      -1.27431470
O        0.57755478       1.15515352      -0.87413396
C        1.17286672       0.78285871       0.33806305
C        0.11768901       0.11371182       1.18635370
O        0.45108411      -0.73932706       2.13122732
H       -0.42027550      -1.25739019       1.00709360
H       -0.12626616      -1.74632211      -0.64721072
H       -1.77895005      -1.16411238      -0.35586409
H       -0.25049138      -0.06259891      -2.28503231
H       -1.36090997       0.92904904      -1.34530289
H        1.51955688       1.68440071       0.85211316
H        2.03098783       0.11705063       0.20363086
H       -0.73834057       0.77013124       1.42082886
14
Frame=6 idx=000171 GeodesicLength=0.7929558928444838 rxn_smarts="[C:1]([C:2]([O:3][C:4]([C:5](=[O:6])[H:14])([H:12])[H:13])([H:10])[H:11])([H:7])([H:8])[H:9]>>[C:1]1([H:8])([H:9])[C:2]([H:10])([H:11])[O:3][C:4]([H:12])([H:13])[C@@:5]1([O:6][H:7])[H:14]"
C       -0.74533041      -0.87647411      -0.35788293
C       -0.46240108       0.28959309      -1.27491935
O        0.54384594       1.18288965      -0.85091315
C        1.17461839       0.79710783       0.33779259
C        0.13775134       0.11475788       1.19669120
O        0.48359728      -0.74939256       2.12495781
H       -0.46567352      -1.27979796       1.02078165
H       -0.15307709      -1.75277416      -0.64033449
H       -1.79934227      -1.15665434      -0.38044875
H       -0.20283452      -0.08054165      -2.27162443
H       -1.35864001       0.91199594      -1.39391659
H        1.52793823       1.69447389       0.85466371
H        2.03406271       0.13922000       0.17598429
H       -0.71451499       0.76559650       1.45916846
14
Frame=7 idx=000171 GeodesicLength=0.9248928656633726 rxn_smarts="[C:1]([C:2]([O:3][C:4]([C:5](=[O:6])[H:14])([H:12])[H:13])([H:10])[H:11])([H:7])([H:8])[H:9]>>[C:1]1([H:8])([H:9])[C:2]([H:10])([H:11])[O:3][C:4]([H:12])([H:13])[C@@:5]1([O:6][H:7])[H:14]"
C       -0.76519716      -0.87460773      -0.35780569
C       -0.45654390       0.28366424      -1.27505974
O        0.50894240       1.20869044      -0.82713271
C        1.17597886       0.81248495       0.33716315
C        0.15917942       0.11572513       1.20703657
O        0.51717647      -0.76204234       2.11568981
H       -0.51329068      -1.30218463       1.03458450
H       -0.18186685      -1.75910021      -0.63284056
H       -1.82042680      -1.14805231      -0.40544902
H       -0.15365173      -0.09907878      -2.25500769
H       -1.35312296       0.89419544      -1.44444321
H        1.53461960       1.70656670       0.85607047
H        2.03699134       0.16403667       0.14819669
H       -0.68878803       0.75970244       1.49899744
14
Frame=8 idx=000171 GeodesicLength=1.0570805995511126 rxn_smarts="[C:1]([C:2]([O:3][C:4]([C:5](=[O:6])[H:14])([H:12])[H:13])([H:10])[H:11])([H:7])([H:8])[H:9]>>[C:1]1([H:8])([H:9])[C:2]([H:10])([H:11])[O:3][C:4]([H:12])([H:13])[C@@:5]1([O:6][H:7])[H:14]"
C       -0.78620712      -0.87223058      -0.35723013
C       -0.45035293       0.27738877      -1.27469681
O        0.47309440       1.23228024      -0.80300281
C        1.17694087       0.82901944       0.33618208
C        0.18203387       0.11668909       1.21729400
O        0.55157425      -0.77708292       2.10327787
H       -0.56309628      -1.32474074       1.04835745
H       -0.21260812      -1.76523203      -0.62482380
H       -1.84211461      -1.13833136      -0.43087613
H       -0.10345193      -0.11827072      -2.23496929
H       -1.34398169       0.87573407      -1.49641354
H        1.53939713       1.72080996       0.85633992
H        2.03980806       0.19156080       0.12047528
H       -0.66103589       0.75240598       1.54008591
14
Frame=9 idx=000171 GeodesicLength=1.189133743153109 rxn_smarts="[C:1]([C:2]([O:3][C:4]([C:5](=[O:6])[H:14])([H:12])[H:13])([H:10])[H:11])([H:7])([H:8])[H:9]>>[C:1]1([H:8])([H:9])[C:2]([H:10])([H:11])[O:3][C:4]([H:12])([H:13])[C@@:5]1([O:6][H:7])[H:14]"
C       -0.80832645      -0.86924495      -0.35617875
C       -0.44380772       0.27078256      -1.27375285
O        0.43666834       1.25353964      -0.77857613
C        1.17754900       0.84669642       0.33492609
C        0.20646661       0.11760264       1.22738524
O        0.58651634      -0.79426780       2.08763571
H       -0.61507456      -1.34742980       1.06215137
H       -0.24523158      -1.77101528      -0.61630349
H       -1.86427870      -1.12744789      -0.45675641
H       -0.05303682      -0.13813947      -2.21168001
H       -1.33097831       0.85639747      -1.54961747
H        1.54202768       1.73724113       0.85557129
H        2.04261064       0.22182116       0.09302936
H       -0.63110446       0.74346418       1.58216604
14
Frame=10 idx=000171 GeodesicLength=1.3214778429188776 rxn_smarts="[C:1]([C:2]([O:3][C:4]([C:5](=[O:6])[H:14])([H:12])[H:13])([H:10])[H:11])([H:7])([H:8])[H:9]>>[C:1]1([H:8])([H:9])[C:2]([H:10])([H:11])[O:3][C:4]([H:12])([H:13])[C@@:5]1([O:6][H:7])[H:14]"
C       -0.83151658      -0.86576706      -0.35469777
C       -0.43701091       0.26373869      -1.27221827
O        0.39985580       1.27222478      -0.75417125
C        1.17777323       0.86552839       0.33335127
C        0.23244212       0.11865763       1.23721415
O        0.62182566      -0.81322453       2.06874112
H       -0.66933285      -1.37063463       1.07565688
H       -0.27959013      -1.77646742      -0.60737539
H       -1.88677172      -1.11560046      -0.48317279
H       -0.00271419      -0.15876788      -2.18484218
H       -1.31381642       0.83656294      -1.60310356
H        1.54249707       1.75589333       0.85377871
H        2.04534370       0.25478464       0.06594490
H       -0.59898476       0.73307158       1.62489419
14
Frame=11 idx=000171 GeodesicLength=1.4541084320172115 rxn_smarts="[C:1]([C:2]([O:3][C:4]([C:5](=[O:6])[H:14])([H:12])[H:13])([H:10])[H:11])([H:7])([H:8])[H:9]>>[C:1]1([H:8])([H:9])[C:2]([H:10])([H:11])[O:3][C:4]([H:12])([H:13])[C@@:5]1([O:6][H:7])[H:14]"
C       -0.85569250      -0.86182219      -0.35281897
C       -0.42999130       0.25621597      -1.27004453
O        0.36295414       1.28827417      -0.72993627
C        1.17764976       0.88548387       0.33148150
C        0.26002252       0.11995638       1.24670881
O        0.65724377      -0.83354966       2.04664204
H       -0.72605507      -1.39459251       1.08868441
H       -0.31546357      -1.78151183      -0.59805869
H       -1.90938914      -1.10294252      -0.51020589
H        0.04694131      -0.18020964      -2.15454665
H       -1.29241401       0.81631164      -1.65614097
H        1.54080200       1.77674165       0.85104362
H        2.04802867       0.29036367       0.03930881
H       -0.56463659       0.72128101       1.66788278
14
Frame=12 idx=000171 GeodesicLength=1.5869317890688457 rxn_smarts="[C:1]([C:2]([O:3][C:4]([C:5](=[O:6])[H:14])([H:12])[H:13])([H:10])[H:11])([H:7])([H:8])[H:9]>>[C:1]1([H:8])([H:9])[C:2]([H:10])([H:11])[O:3][C:4]([H:12])([H:13])[C@@:5]1([O:6][H:7])[H:14]"
C       -0.88075166      -0.85744465      -0.35057220
C       -0.42278002       0.24818634      -1.26715550
O        0.32623481       1.30168103      -0.70599479
C        1.17723119       0.90651892       0.32932147
C        0.28929605       0.12159435       1.25578753
O        0.69256349      -0.85482173       2.02142589
H       -0.78555964      -1.41946560       1.10108175
H       -0.35258482      -1.78608185      -0.58832840
H       -1.93188852      -1.08968024      -0.53798406
H        0.09542091      -0.20248593      -2.12089833
H       -1.26679379       0.79573599      -1.70803761
H        1.53696284       1.79969437       0.84746055
H        2.05065761       0.32844890       0.01314219
H       -0.52800845       0.70812010       1.71075151
14
Frame=13 idx=000171 GeodesicLength=1.7197877741758596 rxn_smarts="[C:1]([C:2]([O:3][C:4]([C:5](=[O:6])[H:14])([H:12])[H:13])([H:10])[H:11])([H:7])([H:8])[H:9]>>[C:1]1([H:8])([H:9])[C:2]([H:10])([H:11])[O:3][C:4]([H:12])([H:13])[C@@:5]1([O:6][H:7])[H:14]"
C       -0.90663139      -0.85256334      -0.34797316
C       -0.41534529       0.23967495      -1.26346450
O        0.28991392       1.31257244      -0.68225749
C        1.17659304       0.92860052       0.32690192
C        0.32048199       0.12355803       1.26439233
O        0.72774636      -0.87670031       1.99318791
H       -0.84836594      -1.44520304       1.11280285
H       -0.39073864      -1.79005107      -0.57803914
H       -1.95403220      -1.07592489      -0.56664353
H        0.14221938      -0.22560720      -2.08416514
H       -1.23703074       0.77461519      -1.75851444
H        1.53092377       1.82463705       0.84316580
H        2.05325819       0.36900696      -0.01260381
H       -0.48899245       0.69338471       1.75321040
14
Frame=14 idx=000171 GeodesicLength=1.8527335741690285 rxn_smarts="[C:1]([C:2]([O:3][C:4]([C:5](=[O:6])[H:14])([H:12])[H:13])([H:10])[H:11])([H:7])([H:8])[H:9]>>[C:1]1([H:8])([H:9])[C:2]([H:10])([H:11])[O:3][C:4]([H:12])([H:13])[C@@:5]1([O:6][H:7])[H:14]"
C       -0.93321806      -0.84733480      -0.34506173
C       -0.40775721       0.23059149      -1.25890502
O        0.25420914       1.32094817      -0.65892055
C        1.17575961       0.95167753       0.32418201
C        0.35360879       0.12601671       1.27243880
O        0.76271173      -0.89870960       1.96204123
H       -0.91503651      -1.47208227       1.12349516
H       -0.42958997      -1.79347018      -0.56712901
H       -1.97552057      -1.06206965      -0.59633652
H        0.18714072      -0.24960039      -2.04424257
H       -1.20331764       0.75337423      -1.80658420
H        1.52288405       1.85141996       0.83823334
H        2.05572435       0.41189759      -0.03804668
H       -0.44759843       0.67734122       1.79483574
14
Frame=15 idx=000171 GeodesicLength=1.9856133703203949 rxn_smarts="[C:1]([C:2]([O:3][C:4]([C:5](=[O:6])[H:14])([H:12])[H:13])([H:10])[H:11])([H:7])([H:8])[H:9]>>[C:1]1([H:8])([H:9])[C:2]([H:10])([H:11])[O:3][C:4]([H:12])([H:13])[C@@:5]1([O:6][H:7])[H:14]"
C       -0.96041451      -0.84179220      -0.34185042
C       -0.40000655       0.22091541      -1.25338228
O        0.21927236       1.32694101      -0.63592591
C        1.17478946       0.97570175       0.32115777
C        0.38886624       0.12901606       1.27986662
O        0.79748512      -0.92048516       1.92813152
H       -0.98627780      -1.50013658       1.13291974
H       -0.46884999      -1.79631130      -0.55541329
H       -1.99605321      -1.04837522      -0.62717590
H        0.22993327      -0.27445977      -2.00129275
H       -1.16591459       0.73206109      -1.85177605
H        1.51294262       1.87989037       0.83278093
H        2.05800040       0.45704301      -0.06333773
H       -0.40377282       0.65999154       1.83529775
14
Frame=16 idx=000171 GeodesicLength=2.1183094461085217 rxn_smarts="[C:1]([C:2]([O:3][C:4]([C:5](=[O:6])[H:14])([H:12])[H:13])([H:10])[H:11])([H:7])([H:8])[H:9]>>[C:1]1([H:8])([H:9])[C:2]([H:10])([H:11])[O:3][C:4]([H:12])([H:13])[C@@:5]1([O:6][H:7])[H:14]"
C       -0.98815744      -0.83595608      -0.33834462
C       -0.39207737       0.21062212      -1.24680229
O        0.18518445       1.33070656      -0.61315976
C        1.17372155       1.00066153       0.31782218
C        0.42650334       0.13256508       1.28660014
O        0.83225069      -0.94171038       1.89152575
H       -1.06299570      -1.52927839       1.14081069
H       -0.50828622      -1.79856033      -0.54264629
H       -2.01534195      -1.03510308      -0.65926772
H        0.27047236      -0.30018785      -1.95536537
H       -1.12503263       0.71065111      -1.89375606
H        1.50116154       1.90989769       0.82694390
H        2.05998818       0.50445447      -0.08869254
H       -0.35739079       0.64123756       1.87433199
