14
Frame=0 idx=010702 GeodesicLength=0.0 rxn_smarts="[C:1]([C@@:2]([C:3]([C:4](=[O:5])[H:14])([H:12])[H:13])([C:6]#[N:7])[H:11])([H:8])([H:9])[H:10]>>[C:1](=[C:2]([C:6]#[N:7])[H:11])([H:8])[H:9].[C:3](=[C:4]([O:5][H:10])[H:14])([H:12])[H:13]"
C       -1.00073809      -0.61925623       1.02547536
C       -0.91098058       0.46586765       0.14960266
C        1.21594048       0.87422912      -0.24709800
C        1.49642154      -0.45601520      -0.43355921
O        1.39621835      -1.28821177       0.54047068
C       -1.37281397       0.33623700      -1.20616378
N       -1.75115419       0.23120990      -2.28567836
H       -1.49547224      -1.51672962       0.67137818
H       -1.10537170      -0.39875723       2.08187947
H        0.31829693      -1.09713724       0.96181776
H       -0.96160216       1.47752745       0.52891778
H        1.24646795       1.55639173      -1.08731001
H        1.31945182       1.29830222       0.74261485
H        1.60533586      -0.86365779      -1.44234736
14
Frame=1 idx=010702 GeodesicLength=0.14533886254945447 rxn_smarts="[C:1]([C@@:2]([C:3]([C:4](=[O:5])[H:14])([H:12])[H:13])([C:6]#[N:7])[H:11])([H:8])([H:9])[H:10]>>[C:1](=[C:2]([C:6]#[N:7])[H:11])([H:8])[H:9].[C:3](=[C:4]([O:5][H:10])[H:14])([H:12])[H:13]"
C       -1.01919360      -0.63681228       1.00317956
C       -0.91282869       0.46554824       0.14957721
C        1.21150216       0.86439241      -0.27554253
C        1.53947878      -0.46368056      -0.40544021
O        1.43650827      -1.26689847       0.59131628
C       -1.42661079       0.37757661      -1.19206511
N       -1.84408903       0.30433645      -2.25973788
H       -1.51451723      -1.52582370       0.62919657
H       -1.13381731      -0.44346714       2.06382789
H        0.32530981      -1.08878472       0.98031568
H       -0.96919235       1.46406430       0.56339695
H        1.25797016       1.50950817      -1.14442031
H        1.33282861       1.34098728       0.68839310
H        1.71665120      -0.90094658      -1.39199720
14
Frame=2 idx=010702 GeodesicLength=0.28328984268336227 rxn_smarts="[C:1]([C@@:2]([C:3]([C:4](=[O:5])[H:14])([H:12])[H:13])([C:6]#[N:7])[H:11])([H:8])([H:9])[H:10]>>[C:1](=[C:2]([C:6]#[N:7])[H:11])([H:8])[H:9].[C:3](=[C:4]([O:5][H:10])[H:14])([H:12])[H:13]"
C       -1.03704123      -0.65575236       0.97864678
C       -0.91546399       0.46494081       0.14963265
C        1.20644671       0.85164672      -0.30689832
C        1.58327371      -0.47015032      -0.37520211
O        1.47681835      -1.24111130       0.64539790
C       -1.48182505       0.42233969      -1.17435005
N       -1.93455390       0.38220298      -2.22936219
H       -1.53320802      -1.53501898       0.58336887
H       -1.16256517      -0.49143756       2.04293776
H        0.33192934      -1.07998186       0.99887567
H       -0.97423153       1.44817440       0.60009320
H        1.26702465       1.45550832      -1.20474974
H        1.34452318       1.38402290       0.62564817
H        1.82887295      -0.93538342      -1.33403858
14
Frame=3 idx=010702 GeodesicLength=0.41482840032237556 rxn_smarts="[C:1]([C@@:2]([C:3]([C:4](=[O:5])[H:14])([H:12])[H:13])([C:6]#[N:7])[H:11])([H:8])([H:9])[H:10]>>[C:1](=[C:2]([C:6]#[N:7])[H:11])([H:8])[H:9].[C:3](=[C:4]([O:5][H:10])[H:14])([H:12])[H:13]"
C       -1.05420607      -0.67598751       0.95166937
C       -0.91886993       0.46413686       0.14978847
C        1.20082584       0.83552253      -0.34101976
C        1.62786047      -0.47496840      -0.34255871
O        1.51666462      -1.21031898       0.70260726
C       -1.53780547       0.47053298      -1.15266358
N       -2.02303956       0.46477661      -2.19390209
H       -1.55190206      -1.54384199       0.53371200
H       -1.19115043      -0.54267876       2.01888899
H        0.33789790      -1.07112345       1.01704310
H       -0.97630817       1.42973605       0.63882022
H        1.27327738       1.39324506      -1.26807740
H        1.35399771       1.42662451       0.55368811
H        1.94275777      -0.96565551      -1.26799600
14
Frame=4 idx=010702 GeodesicLength=0.5402405745326291 rxn_smarts="[C:1]([C@@:2]([C:3]([C:4](=[O:5])[H:14])([H:12])[H:13])([C:6]#[N:7])[H:11])([H:8])([H:9])[H:10]>>[C:1](=[C:2]([C:6]#[N:7])[H:11])([H:8])[H:9].[C:3](=[C:4]([O:5][H:10])[H:14])([H:12])[H:13]"
C       -1.07051059      -0.69737093       0.92214791
C       -0.92296989       0.46321815       0.15013707
C        1.19474276       0.81575391      -0.37747294
C        1.67326612      -0.47735635      -0.30730322
O        1.55555422      -1.17394164       0.76256911
C       -1.59361630       0.52186539      -1.12673391
N       -2.10857351       0.55147496      -2.15320638
H       -1.57096459      -1.55174941       0.48031378
H       -1.21883868      -0.59709102       1.99148121
H        0.34313175      -1.06267774       1.03429096
H       -0.97518253       1.40864225       0.67929655
H        1.27648747       1.32183796      -1.33366624
H        1.36072948       1.46785111       0.47219657
H        2.05674428      -0.99045666      -1.19405048
14
Frame=5 idx=010702 GeodesicLength=0.66009278480894 rxn_smarts="[C:1]([C@@:2]([C:3]([C:4](=[O:5])[H:14])([H:12])[H:13])([C:6]#[N:7])[H:11])([H:8])([H:9])[H:10]>>[C:1](=[C:2]([C:6]#[N:7])[H:11])([H:8])[H:9].[C:3](=[C:4]([O:5][H:10])[H:14])([H:12])[H:13]"
C       -1.08589353      -0.71959468       0.89006875
C       -0.92766321       0.46229516       0.15073933
C        1.18833071       0.79204705      -0.41570991
C        1.71943415      -0.47649103      -0.26935354
O        1.59275246      -1.13176226       0.82454758
C       -1.64820769       0.57587535      -1.09650510
N       -2.19077990       0.64158459      -2.10697268
H       -1.59132195      -1.55790995       0.42367006
H       -1.24471046      -0.65425217       1.96064141
H        0.34747080      -1.05547783       1.04971763
H       -0.97076192       1.38487410       0.72104796
H        1.27652300       1.24035086      -1.40048278
H        1.36417833       1.50646631       0.38106828
H        2.17064921      -1.00800550      -1.11247700
14
Frame=6 idx=010702 GeodesicLength=0.7749010331438049 rxn_smarts="[C:1]([C@@:2]([C:3]([C:4](=[O:5])[H:14])([H:12])[H:13])([C:6]#[N:7])[H:11])([H:8])([H:9])[H:10]>>[C:1](=[C:2]([C:6]#[N:7])[H:11])([H:8])[H:9].[C:3](=[C:4]([O:5][H:10])[H:14])([H:12])[H:13]"
C       -1.10032422      -0.74224324       0.85551358
C       -0.93276141       0.46145253       0.15159797
C        1.18185238       0.76432724      -0.45492430
C        1.76622409      -0.47139457      -0.22879202
O        1.62746840      -1.08391871       0.88746946
C       -1.70026941       0.63179749      -1.06231509
N       -2.26925364       0.73396280      -2.05509789
H       -1.61414830      -1.56140075       0.36469294
H       -1.26776718      -0.71346307       1.92643699
H        0.35093139      -1.05046853       1.06229545
H       -0.96318769       1.35849450       0.76337924
H        1.27366017       1.14826563      -1.46691441
H        1.36396052       1.54106523       0.28073876
H        2.28361491      -1.01647656      -1.02408066
14
Frame=7 idx=010702 GeodesicLength=0.8855762294017393 rxn_smarts="[C:1]([C@@:2]([C:3]([C:4](=[O:5])[H:14])([H:12])[H:13])([C:6]#[N:7])[H:11])([H:8])([H:9])[H:10]>>[C:1](=[C:2]([C:6]#[N:7])[H:11])([H:8])[H:9].[C:3](=[C:4]([O:5][H:10])[H:14])([H:12])[H:13]"
C       -1.11374789      -0.76489689       0.81831790
C       -0.93786715       0.46073897       0.15237564
C        1.17593277       0.73275630      -0.49416201
C        1.81369845      -0.46096229      -0.18551763
O        1.65902686      -1.03074593       0.95049140
C       -1.74816642       0.68879295      -1.02525389
N       -2.34551773       0.82741607      -1.99675618
H       -1.64039906      -1.56142113       0.30413977
H       -1.28737157      -0.77395481       1.88869848
H        0.35378438      -1.04843079       1.07113722
H       -0.95275038       1.32961272       0.80527314
H        1.26907042       1.04546612      -1.53095098
H        1.36001890       1.57031235       0.17206571
H        2.39428842      -1.01468364      -0.92985858
14
Frame=8 idx=010702 GeodesicLength=0.9925695031316237 rxn_smarts="[C:1]([C@@:2]([C:3]([C:4](=[O:5])[H:14])([H:12])[H:13])([C:6]#[N:7])[H:11])([H:8])([H:9])[H:10]>>[C:1](=[C:2]([C:6]#[N:7])[H:11])([H:8])[H:9].[C:3](=[C:4]([O:5][H:10])[H:14])([H:12])[H:13]"
C       -1.12692612      -0.78652161       0.77996109
C       -0.94323220       0.46025722       0.15342670
C        1.17027218       0.69723366      -0.53240949
C        1.86017905      -0.44548742      -0.14169614
O        1.68610294      -0.97582260       1.00986551
C       -1.79164073       0.74544581      -0.98572470
N       -2.41556783       0.91950316      -1.93459268
H       -1.67353334      -1.55640348       0.24608417
H       -1.30199561      -0.83339200       1.84921494
H        0.35582193      -1.05083826       1.07455161
H       -0.94044647       1.29891744       0.84588874
H        1.26233829       0.93290681      -1.59007537
H        1.35247335       1.59158812       0.05725086
H        2.50615456      -0.99738686      -0.83174522
14
Frame=9 idx=010702 GeodesicLength=1.0967241423144296 rxn_smarts="[C:1]([C@@:2]([C:3]([C:4](=[O:5])[H:14])([H:12])[H:13])([C:6]#[N:7])[H:11])([H:8])([H:9])[H:10]>>[C:1](=[C:2]([C:6]#[N:7])[H:11])([H:8])[H:9].[C:3](=[C:4]([O:5][H:10])[H:14])([H:12])[H:13]"
C       -1.13914738      -0.80743169       0.73951391
C       -0.94808475       0.45977665       0.15418039
C        1.16591908       0.65903628      -0.56880368
C        1.90626457      -0.42297620      -0.09622426
O        1.70936963      -0.91775562       1.06688125
C       -1.82909657       0.80107829      -0.94540276
N       -2.48206619       1.01009141      -1.86731302
H       -1.71124111      -1.54709519       0.18946637
H       -1.31230373      -0.89247963       1.80684764
H        0.35836449      -1.05643546       1.07353468
H       -0.92673153       1.26611155       0.88463181
H        1.25639688       0.81164280      -1.64229251
H        1.34180418       1.60526099      -0.06286293
H        2.61055244      -0.96882420      -0.73215690
14
Frame=10 idx=010702 GeodesicLength=1.1989404581010197 rxn_smarts="[C:1]([C@@:2]([C:3]([C:4](=[O:5])[H:14])([H:12])[H:13])([C:6]#[N:7])[H:11])([H:8])([H:9])[H:10]>>[C:1](=[C:2]([C:6]#[N:7])[H:11])([H:8])[H:9].[C:3](=[C:4]([O:5][H:10])[H:14])([H:12])[H:13]"
C       -1.15133641      -0.82677164       0.69819003
C       -0.95266350       0.45949454       0.15477447
C        1.16275603       0.61828036      -0.60259301
C        1.95034765      -0.39461868      -0.05131091
O        1.72845716      -0.86094204       1.11852275
C       -1.86080967       0.85500628      -0.90503393
N       -2.54277334       1.09711011      -1.79742253
H       -1.75574531      -1.53248537       0.13770497
H       -1.31798619      -0.94932605       1.76306893
H        0.36116745      -1.06577891       1.06737606
H       -0.91279606       1.23204567       0.92095729
H        1.25127478       0.68344316      -1.68555627
H        1.32868066       1.60939403      -0.18568226
H        2.71142675      -0.92485145      -0.63299559
14
Frame=11 idx=010702 GeodesicLength=1.299617728093102 rxn_smarts="[C:1]([C@@:2]([C:3]([C:4](=[O:5])[H:14])([H:12])[H:13])([C:6]#[N:7])[H:11])([H:8])([H:9])[H:10]>>[C:1](=[C:2]([C:6]#[N:7])[H:11])([H:8])[H:9].[C:3](=[C:4]([O:5][H:10])[H:14])([H:12])[H:13]"
C       -1.16339310      -0.84459661       0.65605615
C       -0.95681699       0.45921484       0.15495023
C        1.16105320       0.57602978      -0.63336645
C        1.99174840      -0.36021282      -0.00740851
O        1.74430756      -0.80580176       1.16493412
C       -1.88679856       0.90636153      -0.86573837
N       -2.59792485       1.18059671      -1.72550527
H       -1.80514795      -1.51340984       0.09126742
H       -1.31967596      -1.00397985       1.71781745
H        0.36477268      -1.07745504       1.05734824
H       -0.89959944       1.19681812       0.95454863
H        1.24894579       0.55080621      -1.71846411
H        1.31400515       1.60399961      -0.30957150
H        2.80452405      -0.86837088      -0.53686802
14
Frame=12 idx=010702 GeodesicLength=1.3991708196782289 rxn_smarts="[C:1]([C@@:2]([C:3]([C:4](=[O:5])[H:14])([H:12])[H:13])([C:6]#[N:7])[H:11])([H:8])([H:9])[H:10]>>[C:1](=[C:2]([C:6]#[N:7])[H:11])([H:8])[H:9].[C:3](=[C:4]([O:5][H:10])[H:14])([H:12])[H:13]"
C       -1.17566294      -0.86064378       0.61333580
C       -0.96054750       0.45906835       0.15462007
C        1.16090523       0.53280822      -0.66083941
C        2.02975380      -0.32068905       0.03454912
O        1.75781701      -0.75417028       1.20561616
C       -1.90755003       0.95518721      -0.82808216
N       -2.64748476       1.25958438      -1.65271184
H       -1.85895828      -1.48990199       0.05112557
H       -1.31795044      -1.05602672       1.67126615
H        0.36908250      -1.09089942       1.04402048
H       -0.88787890       1.16083394       0.98537489
H        1.24997124       0.41579861      -1.74016774
H        1.29867429       1.58880168      -0.43269405
H        2.88982880      -0.79975117      -0.44541304
14
Frame=13 idx=010702 GeodesicLength=1.4976967452398546 rxn_smarts="[C:1]([C@@:2]([C:3]([C:4](=[O:5])[H:14])([H:12])[H:13])([C:6]#[N:7])[H:11])([H:8])([H:9])[H:10]>>[C:1](=[C:2]([C:6]#[N:7])[H:11])([H:8])[H:9].[C:3](=[C:4]([O:5][H:10])[H:14])([H:12])[H:13]"
C       -1.18823622      -0.87501573       0.57016803
C       -0.96393467       0.45896073       0.15378823
C        1.16215059       0.48916575      -0.68519516
C        2.06372708      -0.27662080       0.07402577
O        1.77003663      -0.70594439       1.24104681
C       -1.92386893       1.00122693      -0.79227058
N       -2.69125860       1.33475639      -1.57976119
H       -1.91531473      -1.46285170       0.01729699
H       -1.31353576      -1.10576380       1.62336135
H        0.37409226      -1.10515358       1.02859853
H       -0.87827475       1.12414675       1.01363382
H        1.25524758       0.28055577      -1.75058677
H        1.28337789       1.56403436      -0.55403874
H        2.96579163      -0.72149668      -0.36006708
14
Frame=14 idx=010702 GeodesicLength=1.5953999521777673 rxn_smarts="[C:1]([C@@:2]([C:3]([C:4](=[O:5])[H:14])([H:12])[H:13])([C:6]#[N:7])[H:11])([H:8])([H:9])[H:10]>>[C:1](=[C:2]([C:6]#[N:7])[H:11])([H:8])[H:9].[C:3](=[C:4]([O:5][H:10])[H:14])([H:12])[H:13]"
C       -1.20136117      -0.88762391       0.52651393
C       -0.96701447       0.45900963       0.15246256
C        1.16471540       0.44522664      -0.70661032
C        2.09337634      -0.22892968       0.11059402
O        1.78186085      -0.66160718       1.27149939
C       -1.93639675       1.04492439      -0.75826683
N       -2.72957203       1.40604589      -1.50715706
H       -1.97332700      -1.43254538      -0.01017677
H       -1.30708217      -1.15327176       1.57388757
H        0.37952674      -1.11991481       1.01168205
H       -0.87103385       1.08689913       1.03957022
H        1.26487980       0.14644275      -1.74993144
H        1.26864562       1.52978514      -0.67265896
H        3.03278268      -0.63444083      -0.28140835
14
Frame=15 idx=010702 GeodesicLength=1.6923377348144 rxn_smarts="[C:1]([C@@:2]([C:3]([C:4](=[O:5])[H:14])([H:12])[H:13])([C:6]#[N:7])[H:11])([H:8])([H:9])[H:10]>>[C:1](=[C:2]([C:6]#[N:7])[H:11])([H:8])[H:9].[C:3](=[C:4]([O:5][H:10])[H:14])([H:12])[H:13]"
C       -1.21511286      -0.89856736       0.48237923
C       -0.96985613       0.45916709       0.15071142
C        1.16837539       0.40110941      -0.72547129
C        2.11836338      -0.17829388       0.14394495
O        1.79401426      -0.62033509       1.29763976
C       -1.94589200       1.08636785      -0.72581504
N       -2.76257456       1.47427757      -1.43508393
H       -2.03147990      -1.39977490      -0.03182813
H       -1.29923000      -1.19892385       1.52260008
H        0.38520310      -1.13469118       0.99424366
H       -0.86633705       1.04902081       1.06345697
H        1.27921611       0.01489293      -1.73882822
H        1.25500872       1.48632668      -0.78801321
H        3.09030152      -0.54057609      -0.20993625
14
Frame=16 idx=010702 GeodesicLength=1.7886447995501653 rxn_smarts="[C:1]([C@@:2]([C:3]([C:4](=[O:5])[H:14])([H:12])[H:13])([C:6]#[N:7])[H:11])([H:8])([H:9])[H:10]>>[C:1](=[C:2]([C:6]#[N:7])[H:11])([H:8])[H:9].[C:3](=[C:4]([O:5][H:10])[H:14])([H:12])[H:13]"
C       -1.22963652      -0.90777397       0.43771695
C       -0.97249813       0.45951985       0.14858088
C        1.17303372       0.35674013      -0.74195441
C        2.13866133      -0.12563591       0.17380231
O        1.80718260      -0.58197676       1.31983419
C       -1.95283141       1.12592428      -0.69473011
N       -2.79059737       1.53953102      -1.36386399
H       -2.08899679      -1.36492999      -0.04793231
H       -1.29047913      -1.24279567       1.46924666
H        0.39082846      -1.14932293       0.97692105
H       -0.86425508       1.01057911       1.08547288
H        1.29811301      -0.11289729      -1.71797093
H        1.24277493       1.43393711      -0.89914968
H        3.13870039      -0.44089899      -0.14597350
