9
Frame=0 idx=005525 GeodesicLength=0.0 rxn_smarts="[N:1]([c:2]1[n:3][o:4][n:5][c:6]1[H:9])([H:7])[H:8]>>[N:1]([C:2]#[N:3])([H:7])[H:8].[O-:4][N+:5]#[C:6][H:9]"
N       -1.57296414      -0.25398329       0.07287977
C       -0.27413917      -0.66478437       0.19140283
N        0.43605962      -1.57381572       0.47093363
O        2.43990801      -0.45408176       0.27622919
N        1.86983453       0.55467769       0.01929914
C        0.74914124       0.97708253      -0.12853217
H       -2.22848671      -1.01564346       0.00185789
H       -1.74782230       0.48184810      -0.58878525
H        0.32846892       1.94870026      -0.31528502
9
Frame=1 idx=005525 GeodesicLength=0.05224516392668516 rxn_smarts="[N:1]([c:2]1[n:3][o:4][n:5][c:6]1[H:9])([H:7])[H:8]>>[N:1]([C:2]#[N:3])([H:7])[H:8].[O-:4][N+:5]#[C:6][H:9]"
N       -1.58552242      -0.27484164       0.04545462
C       -0.28372711      -0.63735071       0.24699121
N        0.42229950      -1.52586592       0.60257428
O        2.41895830      -0.49647442       0.16722068
N        1.87675736       0.54672792      -0.02792048
C        0.75842150       0.99710846      -0.09531777
H       -2.20358979      -1.06097851      -0.07860491
H       -1.75542835       0.47253093      -0.60395903
H        0.35183101       1.97914390      -0.25643858
9
Frame=2 idx=005525 GeodesicLength=0.1054050405443968 rxn_smarts="[N:1]([c:2]1[n:3][o:4][n:5][c:6]1[H:9])([H:7])[H:8]>>[N:1]([C:2]#[N:3])([H:7])[H:8].[O-:4][N+:5]#[C:6][H:9]"
N       -1.59390986      -0.29740868       0.02114405
C       -0.29486092      -0.60664059       0.30368658
N        0.41020449      -1.47419869       0.71605169
O        2.38186153      -0.53982407       0.07058947
N        1.87911009       0.53719233      -0.06962569
C        0.76978525       1.01607387      -0.07056862
H       -2.16589065      -1.10801791      -0.15658169
H       -1.76624726       0.46407539      -0.61038811
H        0.37994733       2.00874835      -0.20430767
9
Frame=3 idx=005525 GeodesicLength=0.15983284561209338 rxn_smarts="[N:1]([c:2]1[n:3][o:4][n:5][c:6]1[H:9])([H:7])[H:8]>>[N:1]([C:2]#[N:3])([H:7])[H:8].[O-:4][N+:5]#[C:6][H:9]"
N       -1.59891047      -0.32207527       0.00050570
C       -0.30799204      -0.57282393       0.36124020
N        0.39911353      -1.42196371       0.81342038
O        2.33343814      -0.58243876      -0.00929165
N        1.87706064       0.52477428      -0.11228249
C        0.78205135       1.03401797      -0.05253591
H       -2.11376774      -1.15531215      -0.23792368
H       -1.78353398       0.45844599      -0.60314763
H        0.41254057       2.03737559      -0.15998493
9
Frame=4 idx=005525 GeodesicLength=0.2154255848488353 rxn_smarts="[N:1]([c:2]1[n:3][o:4][n:5][c:6]1[H:9])([H:7])[H:8]>>[N:1]([C:2]#[N:3])([H:7])[H:8].[O-:4][N+:5]#[C:6][H:9]"
N       -1.60052346      -0.34781349      -0.01764334
C       -0.32269602      -0.53752729       0.41556320
N        0.38852050      -1.37043068       0.89700652
O        2.27650521      -0.62401348      -0.07820023
N        1.87185899       0.51106006      -0.14976663
C        0.79471621       1.05084427      -0.03893413
H       -2.04923610      -1.19919450      -0.31819098
H       -1.80802706       0.45252196      -0.58645350
H        0.44888172       2.06455315      -0.12338092
9
Frame=5 idx=005525 GeodesicLength=0.2724298418326835 rxn_smarts="[N:1]([c:2]1[n:3][o:4][n:5][c:6]1[H:9])([H:7])[H:8]>>[N:1]([C:2]#[N:3])([H:7])[H:8].[O-:4][N+:5]#[C:6][H:9]"
N       -1.59949344      -0.37391636      -0.03350111
C       -0.33827544      -0.50270031       0.46331445
N        0.37815409      -1.32032153       0.96887719
O        2.21537993      -0.66318159      -0.13383910
N        1.86392365       0.49599943      -0.18600439
C        0.80737393       1.06622974      -0.02976463
H       -1.97520940      -1.23659277      -0.39606657
H       -1.84018320       0.44436885      -0.56179266
H        0.48832987       2.09011454      -0.09122318
9
Frame=6 idx=005525 GeodesicLength=0.3311074763757638 rxn_smarts="[N:1]([c:2]1[n:3][o:4][n:5][c:6]1[H:9])([H:7])[H:8]>>[N:1]([C:2]#[N:3])([H:7])[H:8].[O-:4][N+:5]#[C:6][H:9]"
N       -1.59676519      -0.39973334      -0.04738105
C       -0.35436311      -0.46896096       0.50397001
N        0.36796004      -1.27151166       1.03095317
O        2.15222401      -0.69954798      -0.17919410
N        1.85396931       0.48031135      -0.22097606
C        0.82004006       1.08035987      -0.02405397
H       -1.89548827      -1.26596069      -0.46875519
H       -1.87842099       0.43098741      -0.53411166
H        0.53084415       2.11405600      -0.06045115
9
Frame=7 idx=005525 GeodesicLength=0.3913474653767153 rxn_smarts="[N:1]([c:2]1[n:3][o:4][n:5][c:6]1[H:9])([H:7])[H:8]>>[N:1]([C:2]#[N:3])([H:7])[H:8].[O-:4][N+:5]#[C:6][H:9]"
N       -1.59288799      -0.42492130      -0.05999713
C       -0.37059672      -0.43657441       0.53738062
N        0.35797484      -1.22403677       1.08411737
O        2.08857301      -0.73255328      -0.21668024
N        1.84260826       0.46484999      -0.25484137
C        0.83301944       1.09377247      -0.02032115
H       -1.81508666      -1.28769807      -0.53286485
H       -1.92019894       0.41067324      -0.50802652
H        0.57659477       2.13648812      -0.02876671
9
Frame=8 idx=005525 GeodesicLength=0.45288459113425905 rxn_smarts="[N:1]([c:2]1[n:3][o:4][n:5][c:6]1[H:9])([H:7])[H:8]>>[N:1]([C:2]#[N:3])([H:7])[H:8].[O-:4][N+:5]#[C:6][H:9]"
N       -1.58841157      -0.44945963      -0.07185294
C       -0.38696250      -0.40509075       0.56415214
N        0.34809050      -1.17724709       1.12957795
O        2.02557095      -0.76194438      -0.24753727
N        1.82979678       0.44996641      -0.28909280
C        0.84645790       1.10687295      -0.01835862
H       -1.73696989      -1.30377214      -0.58735471
H       -1.96404658       0.38323828      -0.48593699
H        0.62647441       2.15743634       0.00640323
9
Frame=9 idx=005525 GeodesicLength=0.5153844116890798 rxn_smarts="[N:1]([c:2]1[n:3][o:4][n:5][c:6]1[H:9])([H:7])[H:8]>>[N:1]([C:2]#[N:3])([H:7])[H:8].[O-:4][N+:5]#[C:6][H:9]"
N       -1.58387857      -0.47364116      -0.08285589
C       -0.40342623      -0.37431238       0.58483290
N        0.33813473      -1.13085111       1.16835114
O        1.96417509      -0.78764190      -0.27255278
N        1.81619897       0.43609244      -0.32294679
C        0.86034469       1.11976616      -0.01848285
H       -1.66212706      -1.31496174      -0.63427225
H       -2.01000366       0.34932908      -0.46624697
H        0.68058204       2.17622061       0.04417348
9
Frame=10 idx=005525 GeodesicLength=0.5785923630959757 rxn_smarts="[N:1]([c:2]1[n:3][o:4][n:5][c:6]1[H:9])([H:7])[H:8]>>[N:1]([C:2]#[N:3])([H:7])[H:8].[O-:4][N+:5]#[C:6][H:9]"
N       -1.57957742      -0.49773528      -0.09297387
C       -0.41997049      -0.34409603       0.60001997
N        0.32789954      -1.08461661       1.20144884
O        1.90511847      -0.80975991      -0.29211178
N        1.80233348       0.42339276      -0.35585812
C        0.87473074       1.13251692      -0.02052350
H       -1.59069447      -1.32116839      -0.67621650
H       -2.05836199       0.30934460      -0.44676637
H        0.73852214       2.19212196       0.08298133
9
Frame=11 idx=005525 GeodesicLength=0.6424993886980026 rxn_smarts="[N:1]([c:2]1[n:3][o:4][n:5][c:6]1[H:9])([H:7])[H:8]>>[N:1]([C:2]#[N:3])([H:7])[H:8].[O-:4][N+:5]#[C:6][H:9]"
N       -1.57553734      -0.52182306      -0.10255183
C       -0.43685769      -0.31366342       0.61030749
N        0.31714386      -1.03736667       1.22990767
O        1.84823228      -0.82842076      -0.30716355
N        1.78776190       0.41189608      -0.38904306
C        0.88957675       1.14558606      -0.02466096
H       -1.52321179      -1.32372187      -0.71322407
H       -2.10829898       0.26284997      -0.42837902
H        0.80119102       2.20466367       0.12480734
9
Frame=12 idx=005525 GeodesicLength=0.7068496002852346 rxn_smarts="[N:1]([c:2]1[n:3][o:4][n:5][c:6]1[H:9])([H:7])[H:8]>>[N:1]([C:2]#[N:3])([H:7])[H:8].[O-:4][N+:5]#[C:6][H:9]"
N       -1.57177073      -0.54579541      -0.11163862
C       -0.45406855      -0.28298320       0.61601129
N        0.30564290      -0.98928755       1.25402983
O        1.79387076      -0.84363283      -0.31813828
N        1.77286546       0.40182887      -0.42179287
C        0.90520225       1.15912793      -0.02987788
H       -1.46010356      -1.32262106      -0.74657043
H       -2.15937971       0.21011884      -0.40986818
H        0.86774118       2.21324442       0.16784514
9
Frame=13 idx=005525 GeodesicLength=0.7715305683117689 rxn_smarts="[N:1]([c:2]1[n:3][o:4][n:5][c:6]1[H:9])([H:7])[H:8]>>[N:1]([C:2]#[N:3])([H:7])[H:8].[O-:4][N+:5]#[C:6][H:9]"
N       -1.56819475      -0.56951253      -0.12039101
C       -0.47168612      -0.25180792       0.61744470
N        0.29311967      -0.94017704       1.27426486
O        1.74206857      -0.85552890      -0.32545761
N        1.75778324       0.39323040      -0.45392675
C        0.92186739       1.17325726      -0.03565577
H       -1.40150073      -1.31800562      -0.77720352
H       -2.21109327       0.15109589      -0.39046099
H        0.93763600       2.21744846       0.21138609
9
Frame=14 idx=005525 GeodesicLength=0.8364632144291413 rxn_smarts="[N:1]([c:2]1[n:3][o:4][n:5][c:6]1[H:9])([H:7])[H:8]>>[N:1]([C:2]#[N:3])([H:7])[H:8].[O-:4][N+:5]#[C:6][H:9]"
N       -1.56470780      -0.59276696      -0.12893708
C       -0.48980869      -0.21991148       0.61488388
N        0.27930047      -0.88989485       1.29095974
O        1.69265084      -0.86425714      -0.32962622
N        1.74265147       0.38611858      -0.48518996
C        0.93982392       1.18802659      -0.04149447
H       -1.34753467      -1.31005778      -0.80578645
H       -2.26267211       0.08569420      -0.36963602
H        1.01029656       2.21704884       0.25482658
9
Frame=15 idx=005525 GeodesicLength=0.9015640221620899 rxn_smarts="[N:1]([c:2]1[n:3][o:4][n:5][c:6]1[H:9])([H:7])[H:8]>>[N:1]([C:2]#[N:3])([H:7])[H:8].[O-:4][N+:5]#[C:6][H:9]"
N       -1.56120166      -0.61532854      -0.13738465
C       -0.50849375      -0.18723267       0.60858378
N        0.26389452      -0.83856708       1.30441376
O        1.64539082      -0.87011209      -0.33104112
N        1.72789126       0.38038926      -0.51489485
C        0.95934455       1.20327153      -0.04685611
H       -1.29819480      -1.29842195      -0.83334813
H       -2.31332630       0.01383572      -0.34641943
H        1.08469535       2.21216582       0.29694675
9
Frame=16 idx=005525 GeodesicLength=0.966794707510098 rxn_smarts="[N:1]([c:2]1[n:3][o:4][n:5][c:6]1[H:9])([H:7])[H:8]>>[N:1]([C:2]#[N:3])([H:7])[H:8].[O-:4][N+:5]#[C:6][H:9]"
N       -1.55757814      -0.63693478      -0.14585110
C       -0.52784249      -0.15362789       0.59876322
N        0.24665911      -0.78613114       1.31489662
O        1.59982792      -0.87337115      -0.33021038
N        1.71375440       0.37591726      -0.54267494
C        0.98057767       1.21883907      -0.05145248
H       -1.25360028      -1.28314487      -0.86035842
H       -2.36190267      -0.06455537      -0.32043080
H        1.16010448       2.20300886       0.33731828
