19
Frame=0 idx=009706 GeodesicLength=0.0 rxn_smarts="[C:1]([C@@:2]1([H:11])[C@@:3]2([H:12])[C:4]([H:13])([H:14])[C:5]([H:15])([H:16])[C:6]([H:17])([H:18])[C@@:7]12[H:19])([H:8])([H:9])[H:10]>>[C:1]([C:2]([C@@:7]1([H:19])[C:3][C:4]([H:13])([H:14])[C:5]([H:15])([H:16])[C:6]1([H:17])[H:18])([H:11])[H:12])([H:8])([H:9])[H:10]"
C       -1.85173704       0.06944041       0.59000355
C       -1.19331373      -0.52041794      -0.63923404
C        0.36890107       0.02928511      -1.55956768
C        1.00676232       1.14461177      -0.74101676
C        1.27782270       0.67573387       0.70490954
C        1.03884524      -0.84203662       0.67123315
C        0.22565452      -1.09670387      -0.59273481
H       -2.89762466       0.29428414       0.37817560
H       -1.82202091      -0.63115995       1.42742049
H       -1.38011482       0.99529185       0.91319922
H       -1.83787001      -1.19491981      -1.19792586
H       -1.06664949       0.29347105      -1.49545082
H        1.94787502       1.31843206      -1.27322355
H        0.46421507       2.08999806      -0.80698080
H        2.29169315       0.91804125       1.02607489
H        0.60843296       1.16268834       1.41393888
H        0.55028571      -1.21376629       1.57529188
H        1.98471272      -1.38120289       0.58359008
H        0.28413023      -2.11107051      -0.97770296
19
Frame=1 idx=009706 GeodesicLength=0.06835163630632679 rxn_smarts="[C:1]([C@@:2]1([H:11])[C@@:3]2([H:12])[C:4]([H:13])([H:14])[C:5]([H:15])([H:16])[C:6]([H:17])([H:18])[C@@:7]12[H:19])([H:8])([H:9])[H:10]>>[C:1]([C:2]([C@@:7]1([H:19])[C:3][C:4]([H:13])([H:14])[C:5]([H:15])([H:16])[C:6]1([H:17])[H:18])([H:11])[H:12])([H:8])([H:9])[H:10]"
C       -1.86521756       0.05139948       0.59611092
C       -1.19579037      -0.51490497      -0.63810055
C        0.36472840       0.03289982      -1.55370094
C        1.01858305       1.14529130      -0.74817082
C        1.28720973       0.68261280       0.69954434
C        1.03919290      -0.83357937       0.67454605
C        0.22205112      -1.09182972      -0.58591779
H       -2.90656778       0.29112566       0.37784402
H       -1.85283971      -0.66940351       1.41664768
H       -1.38979569       0.96546165       0.94633855
H       -1.83591214      -1.18670647      -1.20551116
H       -1.07122086       0.31155769      -1.50254056
H        1.96085501       1.29999476      -1.28506325
H        0.49010422       2.09824066      -0.81918047
H        2.30206343       0.92158011       1.02025112
H        0.62032914       1.17800190       1.40517469
H        0.55146705      -1.19690671       1.58236534
H        1.98245446      -1.37770178       0.58819099
H        0.27830560      -2.10713329      -0.96882817
19
Frame=2 idx=009706 GeodesicLength=0.13637926451145926 rxn_smarts="[C:1]([C@@:2]1([H:11])[C@@:3]2([H:12])[C:4]([H:13])([H:14])[C:5]([H:15])([H:16])[C:6]([H:17])([H:18])[C@@:7]12[H:19])([H:8])([H:9])[H:10]>>[C:1]([C:2]([C@@:7]1([H:19])[C:3][C:4]([H:13])([H:14])[C:5]([H:15])([H:16])[C:6]1([H:17])[H:18])([H:11])[H:12])([H:8])([H:9])[H:10]"
C       -1.87870823       0.03291425       0.60229050
C       -1.19836622      -0.50921162      -0.63667410
C        0.36032046       0.03679070      -1.54772750
C        1.03069970       1.14580541      -0.75557149
C        1.29636032       0.68968978       0.69412729
C        1.03946097      -0.82486270       0.67791874
C        0.21837388      -1.08674391      -0.57902555
H       -2.91525965       0.28809278       0.37832037
H       -1.88355800      -0.70807344       1.40473009
H       -1.39945819       0.93401020       0.98003258
H       -1.83399769      -1.17805396      -1.21298888
H       -1.07576351       0.33019568      -1.50939500
H        1.97398023       1.28063127      -1.29688568
H        0.51703615       2.10637752      -0.83221505
H        2.31206552       0.92541538       1.01468085
H        0.63171970       1.19360616       1.39591388
H        0.55256907      -1.17973118       1.58943120
H        1.98011799      -1.37388832       0.59293485
H        0.27240750      -2.10296400      -0.95989710
19
Frame=3 idx=009706 GeodesicLength=0.20407613305756023 rxn_smarts="[C:1]([C@@:2]1([H:11])[C@@:3]2([H:12])[C:4]([H:13])([H:14])[C:5]([H:15])([H:16])[C:6]([H:17])([H:18])[C@@:7]12[H:19])([H:8])([H:9])[H:10]>>[C:1]([C:2]([C@@:7]1([H:19])[C:3][C:4]([H:13])([H:14])[C:5]([H:15])([H:16])[C:6]1([H:17])[H:18])([H:11])[H:12])([H:8])([H:9])[H:10]"
C       -1.89217973       0.01400654       0.60852851
C       -1.20104053      -0.50333585      -0.63494348
C        0.35568113       0.04097127      -1.54163830
C        1.04310128       1.14613775      -0.76320969
C        1.30525592       0.69696541       0.68866639
C        1.03965248      -0.81589097       0.68134644
C        0.21462519      -1.08144660      -0.57206353
H       -2.92367376       0.28518517       0.37965483
H       -1.91413345      -0.74707685       1.39165334
H       -1.40910268       0.90090643       1.01419678
H       -1.83213436      -1.16895341      -1.22033226
H       -1.08026908       0.34938364      -1.51602408
H        1.98721282       1.26032423      -1.30865560
H        0.54500659       2.11434973      -0.84607988
H        2.32167448       0.92956755       1.00938128
H        0.64256929       1.20948045       1.38615573
H        0.55360282      -1.16226202       1.59647975
H        1.97771257      -1.36975397       0.59780947
H        0.26643902      -2.09855850      -0.95092572
19
Frame=4 idx=009706 GeodesicLength=0.27143891230505424 rxn_smarts="[C:1]([C@@:2]1([H:11])[C@@:3]2([H:12])[C:4]([H:13])([H:14])[C:5]([H:15])([H:16])[C:6]([H:17])([H:18])[C@@:7]12[H:19])([H:8])([H:9])[H:10]>>[C:1]([C:2]([C@@:7]1([H:19])[C:3][C:4]([H:13])([H:14])[C:5]([H:15])([H:16])[C:6]1([H:17])[H:18])([H:11])[H:12])([H:8])([H:9])[H:10]"
C       -1.90560524      -0.00530387       0.61481422
C       -1.20381245      -0.49727577      -0.63289846
C        0.35081462       0.04545557      -1.53542329
C        1.05577622       1.14627317      -0.77107449
C        1.31388321       0.70444000       0.68316905
C        1.03977048      -0.80666860       0.68482559
C        0.21080788      -1.07593802      -0.56503642
H       -2.93178666       0.28240080       0.38189508
H       -1.94452957      -0.78631868       1.37740369
H       -1.41872741       0.86612345       1.04873424
H       -1.83032946      -1.15939751      -1.22751511
H       -1.08472968       0.36911839      -1.52244051
H        2.00050875       1.23906372      -1.32033628
H        0.57400299       2.12209416      -0.86076395
H        2.33087297       0.93405463       1.00436355
H        0.65285318       1.22560403       1.37590307
H        0.55457835      -1.14451962       1.60350403
H        1.97524729      -1.36529301       0.60280520
H        0.26040455      -2.09391284      -0.94192921
19
Frame=5 idx=009706 GeodesicLength=0.33846179724046643 rxn_smarts="[C:1]([C@@:2]1([H:11])[C@@:3]2([H:12])[C:4]([H:13])([H:14])[C:5]([H:15])([H:16])[C:6]([H:17])([H:18])[C@@:7]12[H:19])([H:8])([H:9])[H:10]>>[C:1]([C:2]([C@@:7]1([H:19])[C:3][C:4]([H:13])([H:14])[C:5]([H:15])([H:16])[C:6]1([H:17])[H:18])([H:11])[H:12])([H:8])([H:9])[H:10]"
C       -1.91895532      -0.02498828       0.62112995
C       -1.20667984      -0.49103220      -0.63053007
C        0.34572724       0.05025550      -1.52907200
C        1.06870583       1.14619699      -0.77915180
C        1.32223439       0.71211297       0.67764109
C        1.03981840      -0.79720081       0.68835459
C        0.20692610      -1.07022037      -0.55794734
H       -2.93956969       0.27974862       0.38507870
H       -1.97472029      -0.82570613       1.36196906
H       -1.42832734       0.82963446       1.08354978
H       -1.82858951      -1.14938341      -1.23451053
H       -1.08913395       0.38938973      -1.52866308
H        2.01381189       1.21685549      -1.33189298
H        0.60399567       2.12954274      -0.87624513
H        2.33965204       0.93889086       0.99962937
H        0.66255926       1.24195532       1.36516482
H        0.55550452      -1.12652283       1.61050062
H        1.97273049      -1.36050285       0.60791577
H        0.25431011      -2.08902580      -0.93292082
19
Frame=6 idx=009706 GeodesicLength=0.40514958270729656 rxn_smarts="[C:1]([C@@:2]1([H:11])[C@@:3]2([H:12])[C:4]([H:13])([H:14])[C:5]([H:15])([H:16])[C:6]([H:17])([H:18])[C@@:7]12[H:19])([H:8])([H:9])[H:10]>>[C:1]([C:2]([C@@:7]1([H:19])[C:3][C:4]([H:13])([H:14])[C:5]([H:15])([H:16])[C:6]1([H:17])[H:18])([H:11])[H:12])([H:8])([H:9])[H:10]"
C       -1.93220665      -0.04502590       0.62746338
C       -1.20964045      -0.48460697      -0.62782780
C        0.34042547       0.05538508      -1.52257025
C        1.08187100       1.14589618      -0.78742356
C        1.33030884       0.71998059       0.67208910
C        1.03979919      -0.78749409       0.69193284
C        0.20298431      -1.06429483      -0.55079906
H       -2.94700622       0.27720718       0.38924832
H       -2.00467570      -0.86512482       1.34533939
H       -1.43790358       0.79143368       1.11851478
H       -1.82691862      -1.13890973      -1.24129280
H       -1.09347433       0.41019143      -1.53471087
H        2.02706376       1.19370908      -1.34328824
H        0.63494900       2.13662558      -0.89249205
H        2.34801212       0.94408336       0.99517419
H        0.67169057       1.25851228       1.35395559
H        0.55638917      -1.10828797       1.61746708
H        1.97016789      -1.35538636       0.61313526
H        0.24816422      -2.08389378      -0.92391530
19
Frame=7 idx=009706 GeodesicLength=0.4715001961091827 rxn_smarts="[C:1]([C@@:2]1([H:11])[C@@:3]2([H:12])[C:4]([H:13])([H:14])[C:5]([H:15])([H:16])[C:6]([H:17])([H:18])[C@@:7]12[H:19])([H:8])([H:9])[H:10]>>[C:1]([C:2]([C@@:7]1([H:19])[C:3][C:4]([H:13])([H:14])[C:5]([H:15])([H:16])[C:6]1([H:17])[H:18])([H:11])[H:12])([H:8])([H:9])[H:10]"
C       -1.94533606      -0.06539256       0.63379687
C       -1.21269156      -0.47800345      -0.62478232
C        0.33491680       0.06085655      -1.51590340
C        1.09524478       1.14536010      -0.79586874
C        1.33811297       0.72803779       0.66651840
C        1.03971544      -0.77755461       0.69556292
C        0.19898737      -1.05816392      -0.54359153
H       -2.95407701       0.27476824       0.39443488
H       -2.03437932      -0.90446953       1.32750491
H       -1.44745197       0.75151105       1.15350759
H       -1.82532059      -1.12797737      -1.24783745
H       -1.09773738       0.43150511      -1.54061030
H        2.04019531       1.16965316      -1.35448956
H        0.66681264       2.14327349      -0.90946835
H        2.35596573       0.94963355       0.99098208
H        0.68026740       1.27525408       1.34229756
H        0.55723694      -1.08982670       1.62440630
H        1.96756257      -1.34994947       0.61846412
H        0.24197593      -2.07851551      -0.91492397
19
Frame=8 idx=009706 GeodesicLength=0.5375208059947987 rxn_smarts="[C:1]([C@@:2]1([H:11])[C@@:3]2([H:12])[C:4]([H:13])([H:14])[C:5]([H:15])([H:16])[C:6]([H:17])([H:18])[C@@:7]12[H:19])([H:8])([H:9])[H:10]>>[C:1]([C:2]([C@@:7]1([H:19])[C:3][C:4]([H:13])([H:14])[C:5]([H:15])([H:16])[C:6]1([H:17])[H:18])([H:11])[H:12])([H:8])([H:9])[H:10]"
C       -1.95832692      -0.08606774       0.64011333
C       -1.21583133      -0.47122726      -0.62138575
C        0.32920757       0.06668308      -1.50905530
C        1.10879988       1.14457963      -0.80446539
C        1.34566140       0.73627779       0.66093253
C        1.03956833      -0.76738779       0.69925000
C        0.19494053      -1.05182937      -0.53632363
H       -2.96077254       0.27240989       0.40066508
H       -2.06381842      -0.94362740       1.30845910
H       -1.45696653       0.70985992       1.18839488
H       -1.82379749      -1.11659316      -1.25412091
H       -1.10191196       0.45331648      -1.54638866
H        2.05313603       1.14472403      -1.36546479
H        0.69952844       2.14941902      -0.92713004
H        2.36353502       0.95553544       0.98702780
H        0.68832732       1.29216274       1.33021674
H        0.55804848      -1.07114416       1.63132469
H        1.96491500      -1.34420234       0.62390770
H        0.23575718      -2.07288881      -0.90595740
19
Frame=9 idx=009706 GeodesicLength=0.6032938296670739 rxn_smarts="[C:1]([C@@:2]1([H:11])[C@@:3]2([H:12])[C:4]([H:13])([H:14])[C:5]([H:15])([H:16])[C:6]([H:17])([H:18])[C@@:7]12[H:19])([H:8])([H:9])[H:10]>>[C:1]([C:2]([C@@:7]1([H:19])[C:3][C:4]([H:13])([H:14])[C:5]([H:15])([H:16])[C:6]1([H:17])[H:18])([H:11])[H:12])([H:8])([H:9])[H:10]"
C       -1.97120170      -0.10707368       0.64641785
C       -1.21906445      -0.46428654      -0.61763703
C        0.32329398       0.07288292      -1.50200364
C        1.12253135       1.14354660      -0.81319930
C        1.35298443       0.74469928       0.65532937
C        1.03933644      -0.75698824       0.70301104
C        0.19084191      -1.04528686      -0.52898836
H       -2.96709692       0.27000560       0.40799904
H       -2.09302172      -0.98261719       1.28820415
H       -1.46637825       0.66657944       1.22301008
H       -1.82234989      -1.10474600      -1.26015174
H       -1.10602433       0.47566513      -1.55205755
H        2.06582759       1.11897161      -1.37618559
H        0.73311579       2.15501775      -0.94547955
H        2.37076782       0.96176790       0.98327569
H        0.69593697       1.30924961       1.31772854
H        0.55878891      -1.05221301       1.63824041
H        1.96219289      -1.33816659       0.62950516
H        0.22951919      -2.06700771      -0.89701856
19
Frame=10 idx=009706 GeodesicLength=0.6687506976241603 rxn_smarts="[C:1]([C@@:2]1([H:11])[C@@:3]2([H:12])[C:4]([H:13])([H:14])[C:5]([H:15])([H:16])[C:6]([H:17])([H:18])[C@@:7]12[H:19])([H:8])([H:9])[H:10]>>[C:1]([C:2]([C@@:7]1([H:19])[C:3][C:4]([H:13])([H:14])[C:5]([H:15])([H:16])[C:6]1([H:17])[H:18])([H:11])[H:12])([H:8])([H:9])[H:10]"
C       -1.98390637      -0.12835158       0.65266597
C       -1.22238066      -0.45718807      -0.61353012
C        0.31719784       0.07945602      -1.49473838
C        1.13637888       1.14225586      -0.82203858
C        1.36009392       0.75328849       0.64971359
C        1.03903882      -0.74636796       0.70684582
C        0.18670442      -1.03854662      -0.52158546
H       -2.97301709       0.26763446       0.41641482
H       -2.12195817      -1.02121269       1.26672914
H       -1.47574953       0.62156744       1.25727781
H       -1.82097738      -1.09246332      -1.26588576
H       -1.11002354       0.49847401      -1.55767736
H        2.07817542       1.09244127      -1.38663119
H        0.76741526       2.15998539      -0.96440939
H        2.37768533       0.96832455       0.97969030
H        0.70314255       1.32647802       1.30487645
H        0.55948574      -1.03305221       1.64515422
H        1.95941798      -1.33184496       0.63524426
H        0.22327656      -2.06087811      -0.88811612
19
Frame=11 idx=009706 GeodesicLength=0.73390131626403 rxn_smarts="[C:1]([C@@:2]1([H:11])[C@@:3]2([H:12])[C:4]([H:13])([H:14])[C:5]([H:15])([H:16])[C:6]([H:17])([H:18])[C@@:7]12[H:19])([H:8])([H:9])[H:10]>>[C:1]([C:2]([C@@:7]1([H:19])[C:3][C:4]([H:13])([H:14])[C:5]([H:15])([H:16])[C:6]1([H:17])[H:18])([H:11])[H:12])([H:8])([H:9])[H:10]"
C       -1.99643009      -0.14988472       0.65883371
C       -1.22577665      -0.44993984      -0.60906621
C        0.31093018       0.08640998      -1.48724345
C        1.15030821       1.14070335      -0.83096063
C        1.36701690       0.76203929       0.64408294
C        1.03866979      -0.73552601       0.71076535
C        0.18253350      -1.03161054      -0.51410950
H       -2.97851333       0.26527222       0.42592838
H       -2.15063598      -1.05933690       1.24403456
H       -1.48507463       0.57483098       1.29108778
H       -1.81967669      -1.07975462      -1.27131295
H       -1.11389871       0.52172400      -1.56329027
H        2.09010756       1.06517806      -1.39678429
H        0.80233975       2.16426128      -0.98385434
H        2.38433346       0.97518512       0.97622603
H        0.71001770       1.34384520       1.29168911
H        0.56012726      -1.01364555       1.65207837
H        1.95657778      -1.32525109       0.64114672
H        0.21704401      -2.05450022      -0.87925133
19
Frame=12 idx=009706 GeodesicLength=0.7987553063453078 rxn_smarts="[C:1]([C@@:2]1([H:11])[C@@:3]2([H:12])[C:4]([H:13])([H:14])[C:5]([H:15])([H:16])[C:6]([H:17])([H:18])[C@@:7]12[H:19])([H:8])([H:9])[H:10]>>[C:1]([C:2]([C@@:7]1([H:19])[C:3][C:4]([H:13])([H:14])[C:5]([H:15])([H:16])[C:6]1([H:17])[H:18])([H:11])[H:12])([H:8])([H:9])[H:10]"
C       -2.00876287      -0.17165800       0.66489959
C       -1.22924921      -0.44255339      -0.60424824
C        0.30450230       0.09374787      -1.47950432
C        1.16428274       1.13888559      -0.83994358
C        1.37378294       0.77094250       0.63843497
C        1.03822352      -0.72446180       0.71478239
C        0.17833435      -1.02448226      -0.50655437
H       -2.98356189       0.26290483       0.43655162
H       -2.17906508      -1.09690877       1.22012558
H       -1.49435349       0.52636434       1.32433626
H       -1.81844539      -1.06663352      -1.27642432
H       -1.11763299       0.54538989      -1.56894593
H        2.10155003       1.03724366      -1.40663213
H        0.83779995       2.16779515      -1.00375145
H        2.39075984       0.98232358       0.97283403
H        0.71664181       1.36134900       1.27819789
H        0.56069980      -0.99397293       1.65902677
H        1.95365746      -1.31839955       0.64723859
H        0.21083618      -2.04787619      -0.87042337
19
Frame=13 idx=009706 GeodesicLength=0.8633266091709508 rxn_smarts="[C:1]([C@@:2]1([H:11])[C@@:3]2([H:12])[C:4]([H:13])([H:14])[C:5]([H:15])([H:16])[C:6]([H:17])([H:18])[C@@:7]12[H:19])([H:8])([H:9])[H:10]>>[C:1]([C:2]([C@@:7]1([H:19])[C:3][C:4]([H:13])([H:14])[C:5]([H:15])([H:16])[C:6]1([H:17])[H:18])([H:11])[H:12])([H:8])([H:9])[H:10]"
C       -2.02089846      -0.19366525       0.67084560
C       -1.23279665      -0.43503955      -0.59907768
C        0.29792190       0.10147430      -1.47150587
C        1.17826687       1.13680256      -0.84896913
C        1.38042500       0.77999087       0.63276531
C        1.03769192      -0.71316943       0.71891317
C        0.17411160      -1.01716363      -0.49891119
H       -2.98812924       0.26053128       0.44829774
H       -2.20726887      -1.13386470       1.19498877
H       -1.50357915       0.47614473       1.35693050
H       -1.81727962      -1.05311391      -1.28121181
H       -1.12121210       0.56944769      -1.57469437
H        2.11243450       1.00869169      -1.41616650
H        0.87369731       2.17054032      -1.02404357
H        2.39701863       0.98971100       0.96946248
H        0.72310279       1.37899465       1.26443385
H        0.56118493      -0.97400322       1.66601693
H        1.95063976      -1.31130228       0.65355380
H        0.20466890      -2.04100712      -0.86162804
19
Frame=14 idx=009706 GeodesicLength=0.9276173756057188 rxn_smarts="[C:1]([C@@:2]1([H:11])[C@@:3]2([H:12])[C:4]([H:13])([H:14])[C:5]([H:15])([H:16])[C:6]([H:17])([H:18])[C@@:7]12[H:19])([H:8])([H:9])[H:10]>>[C:1]([C:2]([C@@:7]1([H:19])[C:3][C:4]([H:13])([H:14])[C:5]([H:15])([H:16])[C:6]1([H:17])[H:18])([H:11])[H:12])([H:8])([H:9])[H:10]"
C       -2.03283867      -0.21590974       0.67664799
C       -1.23641700      -0.42740637      -0.59355013
C        0.29119653       0.10959731      -1.46322617
C        1.19222402       1.13445131      -0.85801521
C        1.38698576       0.78917359       0.62706982
C        1.03706553      -0.70164310       0.72317659
C        0.16986906      -1.00965346      -0.49116912
H       -2.99221413       0.25808181       0.46118767
H       -2.23526842      -1.17010711       1.16862545
H       -1.51274185       0.42416445       1.38873333
H       -1.81617317      -1.03920065      -1.28566810
H       -1.12462085       0.59387816      -1.58057296
H        2.12268842       0.97959098      -1.42538495
H        0.90995020       2.17245171      -1.04467393
H        2.40317527       0.99730754       0.96605256
H        0.72950462       1.39678845       1.25043046
H        0.56155807      -0.95369828       1.67306725
H        1.94750009      -1.30397709       0.66013002
H        0.19855653      -2.03388953      -0.85286055
19
Frame=15 idx=009706 GeodesicLength=0.9916613401667951 rxn_smarts="[C:1]([C@@:2]1([H:11])[C@@:3]2([H:12])[C:4]([H:13])([H:14])[C:5]([H:15])([H:16])[C:6]([H:17])([H:18])[C@@:7]12[H:19])([H:8])([H:9])[H:10]>>[C:1]([C:2]([C@@:7]1([H:19])[C:3][C:4]([H:13])([H:14])[C:5]([H:15])([H:16])[C:6]1([H:17])[H:18])([H:11])[H:12])([H:8])([H:9])[H:10]"
C       -2.04458525      -0.23839499       0.68229474
C       -1.24011214      -0.41965924      -0.58766621
C        0.28433067       0.11812110      -1.45465014
C        1.20612765       1.13183474      -0.86707100
C        1.39350391       0.79848626       0.62134182
C        1.03633055      -0.68986792       0.72759495
C        0.16560832      -1.00194900      -0.48331403
H       -2.99579204       0.25553512       0.47525862
H       -2.26310556      -1.20558283       1.14100578
H       -1.52182459       0.37035286       1.41965951
H       -1.81512225      -1.02490372      -1.28978732
H       -1.12784742       0.61866595      -1.58664017
H        2.13225598       0.94999122      -1.43428893
H        0.94648477       2.17350315      -1.06560975
H        2.40929203       1.00507812       0.96255167
H        0.73594423       1.41474949       1.23621162
H        0.56178849      -0.93300577       1.68019947
H        1.94421117      -1.29643254       0.66701631
H        0.19251148      -2.02652200      -0.84410697
19
Frame=16 idx=009706 GeodesicLength=1.0554722562521717 rxn_smarts="[C:1]([C@@:2]1([H:11])[C@@:3]2([H:12])[C:4]([H:13])([H:14])[C:5]([H:15])([H:16])[C:6]([H:17])([H:18])[C@@:7]12[H:19])([H:8])([H:9])[H:10]>>[C:1]([C:2]([C@@:7]1([H:19])[C:3][C:4]([H:13])([H:14])[C:5]([H:15])([H:16])[C:6]1([H:17])[H:18])([H:11])[H:12])([H:8])([H:9])[H:10]"
C       -2.05614019      -0.26113274       0.68776428
C       -1.24388050      -0.41180715      -0.58142066
C        0.27732986       0.12704991      -1.44575733
C        1.21994241       1.12895265      -0.87612074
C        1.40002147       0.80791987       0.61557554
C        1.03547498      -0.67783097       0.73219115
C        0.16133385      -0.99404919      -0.47533151
H       -2.99884328       0.25284157       0.49054830
H       -2.29082528      -1.24019121       1.11211079
H       -1.53080377       0.31464717       1.44958833
H       -1.81412042      -1.01023063      -1.29355986
H       -1.13088071       0.64379118      -1.59294520
H        2.14106948       0.91996405      -1.44288096
H        0.98322366       2.17365847      -1.08681337
H        2.41543470       1.01298023       0.95890390
H        0.74252486       1.43289141       1.22180587
H        0.56184313      -0.91187301       1.68743340
H        1.94074534      -1.28867854       0.67426276
H        0.18655040      -2.01890307      -0.83535467
