14
Frame=0 idx=000177 GeodesicLength=0.0 rxn_smarts="[C:1]([C:2]([O:3][C:4]([C:5](=[O:6])[H:14])([H:12])[H:13])([H:10])[H:11])([H:7])([H:8])[H:9]>>[C:1]([C:2](=[O:3])[H:11])([H:7])([H:8])[H:9].[C:4](=[C:5]([O:6][H:10])[H:14])([H:12])[H:13]"
C       -1.80662579      -0.64172968      -0.37826296
C       -0.56410057       0.08654999      -0.84280783
O       -0.20366020       1.13118630      -0.17619300
C        1.54161665       1.09624969       0.53722670
C        1.41746620      -0.18708455       1.03476167
O        1.31437619      -1.14172424       0.18155851
H       -2.69180139      -0.01616260      -0.51727871
H       -1.72782241      -0.87498461       0.68584687
H       -1.94661810      -1.57024571      -0.93326567
H        0.40069756      -0.82079337      -0.51796203
H       -0.36309666       0.11182639      -1.92528290
H        1.50038675       1.94697791       1.20360332
H        2.02764472       1.24564361      -0.41673124
H        1.10153700      -0.36570911       2.06478721
14
Frame=1 idx=000177 GeodesicLength=0.0921490997026648 rxn_smarts="[C:1]([C:2]([O:3][C:4]([C:5](=[O:6])[H:14])([H:12])[H:13])([H:10])[H:11])([H:7])([H:8])[H:9]>>[C:1]([C:2](=[O:3])[H:11])([H:7])([H:8])[H:9].[C:4](=[C:5]([O:6][H:10])[H:14])([H:12])[H:13]"
C       -1.81588867      -0.63466504      -0.37705994
C       -0.56724967       0.08074772      -0.84354158
O       -0.21304925       1.13460734      -0.18603373
C        1.53525695       1.10051781       0.54297729
C        1.43967933      -0.19059294       1.03295210
O        1.35503874      -1.14066358       0.17297303
H       -2.69958017      -0.01520741      -0.54886978
H       -1.75518523      -0.83846410       0.69408191
H       -1.94495825      -1.57817306      -0.90908463
H        0.40877370      -0.84451192      -0.52024667
H       -0.37195441       0.10392148      -1.92727645
H        1.50452503       1.94009366       1.22420301
H        2.01772496       1.26375803      -0.41111940
H        1.10686692      -0.38136799       2.05604484
14
Frame=2 idx=000177 GeodesicLength=0.18427238661919593 rxn_smarts="[C:1]([C:2]([O:3][C:4]([C:5](=[O:6])[H:14])([H:12])[H:13])([H:10])[H:11])([H:7])([H:8])[H:9]>>[C:1]([C:2](=[O:3])[H:11])([H:7])([H:8])[H:9].[C:4](=[C:5]([O:6][H:10])[H:14])([H:12])[H:13]"
C       -1.82567278      -0.62735115      -0.37620895
C       -0.57052513       0.07479828      -0.84379219
O       -0.22288521       1.13807611      -0.19578766
C        1.52846594       1.10468957       0.54899986
C        1.46281171      -0.19377471       1.03100733
O        1.39639723      -1.13857398       0.16391539
H       -2.70718857      -0.01497579      -0.58127418
H       -1.78379907      -0.80111804       0.70092719
H       -1.94390945      -1.58541841      -0.88432198
H        0.41661085      -0.86911107      -0.52114656
H       -0.38021458       0.09538531      -1.92865239
H        1.50896654       1.93298580       1.24462985
H        2.00712419       1.28209922      -0.40510813
H        1.11381833      -0.39771114       2.04681240
14
Frame=3 idx=000177 GeodesicLength=0.2763544963063648 rxn_smarts="[C:1]([C:2]([O:3][C:4]([C:5](=[O:6])[H:14])([H:12])[H:13])([H:10])[H:11])([H:7])([H:8])[H:9]>>[C:1]([C:2](=[O:3])[H:11])([H:7])([H:8])[H:9].[C:4](=[C:5]([O:6][H:10])[H:14])([H:12])[H:13]"
C       -1.83598523      -0.61979160      -0.37573515
C       -0.57395245       0.06871856      -0.84354206
O       -0.23317999       1.14160177      -0.20546694
C        1.52122717       1.10871096       0.55533156
C        1.48686245      -0.19661282       1.02889916
O        1.43831306      -1.13542450       0.15437552
H       -2.71457851      -0.01548833      -0.61446824
H       -1.81365618      -0.76297098       0.70629430
H       -1.94349210      -1.59194848      -0.85899798
H        0.42423288      -0.89458230      -0.52059582
H       -0.38788164       0.08622339      -1.92939422
H        1.51372334       1.92564283       1.26485514
H        1.99582105       1.30062730      -0.39864438
H        1.12254615      -0.41470580       2.03708911
14
Frame=4 idx=000177 GeodesicLength=0.36837498274366487 rxn_smarts="[C:1]([C:2]([O:3][C:4]([C:5](=[O:6])[H:14])([H:12])[H:13])([H:10])[H:11])([H:7])([H:8])[H:9]>>[C:1]([C:2](=[O:3])[H:11])([H:7])([H:8])[H:9].[C:4](=[C:5]([O:6][H:10])[H:14])([H:12])[H:13]"
C       -1.84682155      -0.61198645      -0.37565513
C       -0.57755729       0.06253901      -0.84279045
O       -0.24393420       1.14520490      -0.21510555
C        1.51352353       1.11251326       0.56202017
C        1.51180982      -0.19909855       1.02659750
O        1.48064144      -1.13119937       0.14432402
H       -2.72169804      -0.01679846      -0.64844357
H       -1.84472661      -0.72400684       0.71010306
H       -1.94372091      -1.59774733      -0.83306914
H        0.43168086      -0.92089289      -0.51856381
H       -0.39498236       0.07645520      -1.92950402
H        1.51879042       1.91803780       1.28486763
H        1.98380505       1.31929418      -0.39165135
H        1.13318985      -0.43231445       2.02687063
14
Frame=5 idx=000177 GeodesicLength=0.46031001264539295 rxn_smarts="[C:1]([C:2]([O:3][C:4]([C:5](=[O:6])[H:14])([H:12])[H:13])([H:10])[H:11])([H:7])([H:8])[H:9]>>[C:1]([C:2](=[O:3])[H:11])([H:7])([H:8])[H:9].[C:4](=[C:5]([O:6][H:10])[H:14])([H:12])[H:13]"
C       -1.85816666      -0.60393932      -0.37597607
C       -0.58136617       0.05630215      -0.84154343
O       -0.25514523       1.14890822      -0.22473248
C        1.50535151       1.11602608       0.56909613
C        1.53759841      -0.20121720       1.02409901
O        1.52321034      -1.12590331       0.13377015
H       -2.72850497      -0.01893990      -0.68310144
H       -1.87691963      -0.68430709       0.71227005
H       -1.94459575      -1.60276116      -0.80656534
H        0.43901397      -0.94799518      -0.51505454
H       -0.40155053       0.06611919      -1.92899044
H        1.52416772       1.91016417       1.30461525
H        1.97108167       1.33801247      -0.38408229
H        1.14582530      -0.45046912       2.01619545
14
Frame=6 idx=000177 GeodesicLength=0.5521354951606385 rxn_smarts="[C:1]([C:2]([O:3][C:4]([C:5](=[O:6])[H:14])([H:12])[H:13])([H:10])[H:11])([H:7])([H:8])[H:9]>>[C:1]([C:2](=[O:3])[H:11])([H:7])([H:8])[H:9].[C:4](=[C:5]([O:6][H:10])[H:14])([H:12])[H:13]"
C       -1.86998836      -0.59565194      -0.37669910
C       -0.58540791       0.05006713      -0.83982924
O       -0.26679920       1.15275101      -0.23440634
C        1.49670149       1.11915932       0.57660442
C        1.56415736      -0.20297019       1.02138363
O        1.56584614      -1.11956365       0.12271753
H       -2.73495741      -0.02201135      -0.71837756
H       -1.91014245      -0.64386072       0.71271852
H       -1.94610928      -1.60696374      -0.77941892
H        0.44631047      -0.97581728      -0.51013227
H       -0.40764718       0.05527228      -1.92788501
H        1.52983271       1.90198593       1.32408647
H        1.95766536       1.35669739      -0.37585205
H        1.16053826      -0.46909419       2.00508991
14
Frame=7 idx=000177 GeodesicLength=0.6438334761228197 rxn_smarts="[C:1]([C:2]([O:3][C:4]([C:5](=[O:6])[H:14])([H:12])[H:13])([H:10])[H:11])([H:7])([H:8])[H:9]>>[C:1]([C:2](=[O:3])[H:11])([H:7])([H:8])[H:9].[C:4](=[C:5]([O:6][H:10])[H:14])([H:12])[H:13]"
C       -1.88223112      -0.58713229      -0.37780750
C       -0.58970392       0.04389804      -0.83769327
O       -0.27886890       1.15677524      -0.24419768
C        1.48757152       1.12183502       0.58457620
C        1.59138843      -0.20435520       1.01845540
O        1.60838964      -1.11221705       0.11119849
H       -2.74102069      -0.02608107      -0.75410098
H       -1.94423529      -0.60272018       0.71138901
H       -1.94824266      -1.61029334      -0.75160715
H        0.45366713      -1.00428564      -0.50390647
H       -0.41333741       0.04397108      -1.92623899
H        1.53574064       1.89348792       1.34324088
H        1.94359282       1.37524377      -0.36690204
H        1.17728979      -0.48812630       1.99359410
14
Frame=8 idx=000177 GeodesicLength=0.7353844157254829 rxn_smarts="[C:1]([C:2]([O:3][C:4]([C:5](=[O:6])[H:14])([H:12])[H:13])([H:10])[H:11])([H:7])([H:8])[H:9]>>[C:1]([C:2](=[O:3])[H:11])([H:7])([H:8])[H:9].[C:4](=[C:5]([O:6][H:10])[H:14])([H:12])[H:13]"
C       -1.89483202      -0.57837285      -0.37927143
C       -0.59427374       0.03787015      -0.83519812
O       -0.29131193       1.16103378      -0.25420580
C        1.47795559       1.12395834       0.59304727
C        1.61918181      -0.20538121       1.01531152
O        1.65071090      -1.10390935       0.09922890
H       -2.74666200      -0.03125416      -0.79012620
H       -1.97902751      -0.56089478       0.70822864
H       -1.95097302      -1.61269192      -0.72302994
H        0.46118971      -1.03332354      -0.49652995
H       -0.41870506       0.03227565      -1.92411641
H        1.54181395       1.88463633       1.36206856
H        1.92890754       1.39355448      -0.35715151
H        1.19602581      -0.50750093       1.98174447
14
Frame=9 idx=000177 GeodesicLength=0.8268463466586617 rxn_smarts="[C:1]([C:2]([O:3][C:4]([C:5](=[O:6])[H:14])([H:12])[H:13])([H:10])[H:11])([H:7])([H:8])[H:9]>>[C:1]([C:2](=[O:3])[H:11])([H:7])([H:8])[H:9].[C:4](=[C:5]([O:6][H:10])[H:14])([H:12])[H:13]"
C       -1.90767298      -0.56936432      -0.38100328
C       -0.59912378       0.03208301      -0.83246888
O       -0.30402691       1.16559343      -0.26460128
C        1.46785524       1.12546339       0.60203878
C        1.64734477      -0.20606899       1.01196554
O        1.69274300      -1.09470841       0.08689054
H       -2.75192698      -0.03756326      -0.82612400
H       -2.01411700      -0.51843144       0.70331731
H       -1.95421076      -1.61405885      -0.69365818
H        0.46902823      -1.06291636      -0.48820935
H       -0.42382856       0.02022323      -1.92163453
H        1.54785102       1.87537947       1.38057892
H        1.91368921       1.41152219      -0.34655697
H        1.21639551      -0.52715310       1.96946538
14
Frame=10 idx=000177 GeodesicLength=0.9181307260883333 rxn_smarts="[C:1]([C:2]([O:3][C:4]([C:5](=[O:6])[H:14])([H:12])[H:13])([H:10])[H:11])([H:7])([H:8])[H:9]>>[C:1]([C:2](=[O:3])[H:11])([H:7])([H:8])[H:9].[C:4](=[C:5]([O:6][H:10])[H:14])([H:12])[H:13]"
C       -1.92074808      -0.56010284      -0.38300807
C       -0.60427667       0.02658268      -0.82951894
O       -0.31701752       1.17047424      -0.27540463
C        1.45726669       1.12623994       0.61156825
C        1.67586694      -0.20642329       1.00840738
O        1.73438678      -1.08465090       0.07416277
H       -2.75671885      -0.04512472      -0.86210818
H       -2.04959744      -0.47529073       0.69654365
H       -1.95793178      -1.61436393      -0.66334184
H        0.47723544      -1.09296552      -0.47907365
H       -0.42878565       0.00788919      -1.91881068
H        1.55382809       1.86569363       1.39875209
H        1.89793391       1.42908814      -0.33504733
H        1.23855814      -0.54704590       1.95687918
14
Frame=11 idx=000177 GeodesicLength=1.009242688590355 rxn_smarts="[C:1]([C:2]([O:3][C:4]([C:5](=[O:6])[H:14])([H:12])[H:13])([H:10])[H:11])([H:7])([H:8])[H:9]>>[C:1]([C:2](=[O:3])[H:11])([H:7])([H:8])[H:9].[C:4](=[C:5]([O:6][H:10])[H:14])([H:12])[H:13]"
C       -1.93400387      -0.55058500      -0.38524527
C       -0.60974127       0.02143020      -0.82641135
O       -0.33023823       1.17570770      -0.28669336
C        1.44619899       1.12622180       0.62163024
C        1.70464116      -0.20645343       1.00465457
O        1.77561023      -1.07378548       0.06110310
H       -2.76103198      -0.05393708      -0.89788640
H       -2.08526676      -0.43153566       0.68794467
H       -1.96209050      -1.61352640      -0.63207629
H        0.48590051      -1.12345254      -0.46928691
H       -0.43363160      -0.00468625      -1.91570839
H        1.55960556       1.85556186       1.41656754
H        1.88167773       1.44617350      -0.32260827
H        1.26237004      -0.56713322       1.94401610
14
Frame=12 idx=000177 GeodesicLength=1.1001745207082028 rxn_smarts="[C:1]([C:2]([O:3][C:4]([C:5](=[O:6])[H:14])([H:12])[H:13])([H:10])[H:11])([H:7])([H:8])[H:9]>>[C:1]([C:2](=[O:3])[H:11])([H:7])([H:8])[H:9].[C:4](=[C:5]([O:6][H:10])[H:14])([H:12])[H:13]"
C       -1.94740146      -0.54078914      -0.38767391
C       -0.61552717       0.01668474      -0.82320649
O       -0.34363705       1.18132059      -0.29854672
C        1.43465839       1.12532382       0.63222442
C        1.73359197      -0.20616962       1.00070184
O        1.81641195      -1.06214662       0.04772990
H       -2.76486447      -0.06404938      -0.93334264
H       -2.12099631      -0.38714792       0.67752144
H       -1.96663327      -1.61146897      -0.59977165
H        0.49509698      -1.15437493      -0.45897704
H       -0.43842267      -0.01746598      -1.91237946
H        1.56501698       1.84493980       1.43404497
H        1.86494486       1.46272144      -0.30919689
H        1.28776127      -0.58737782       1.93087223
14
Frame=13 idx=000177 GeodesicLength=1.1909347856617685 rxn_smarts="[C:1]([C:2]([O:3][C:4]([C:5](=[O:6])[H:14])([H:12])[H:13])([H:10])[H:11])([H:7])([H:8])[H:9]>>[C:1]([C:2](=[O:3])[H:11])([H:7])([H:8])[H:9].[C:4](=[C:5]([O:6][H:10])[H:14])([H:12])[H:13]"
C       -1.96091230      -0.53071444      -0.39027401
C       -0.62164058       0.01239374      -0.81993306
O       -0.35718239       1.18731957      -0.31097219
C        1.42268241       1.12349821       0.64331184
C        1.76267413      -0.20556242       0.99656412
O        1.85680577      -1.04976378       0.03409845
H       -2.76822586      -0.07542139      -0.96829245
H       -2.15665987      -0.34225264       0.66528262
H       -1.97154838      -1.60809186      -0.56650804
H        0.50487712      -1.18576084      -0.44821484
H       -0.44317727      -0.03040671      -1.90884305
H        1.56994126       1.83382994       1.45115167
H        1.84775413       1.47866027      -0.29485304
H        1.31461183      -0.60772765       1.91748199
14
Frame=14 idx=000177 GeodesicLength=1.2815333644102616 rxn_smarts="[C:1]([C:2]([O:3][C:4]([C:5](=[O:6])[H:14])([H:12])[H:13])([H:10])[H:11])([H:7])([H:8])[H:9]>>[C:1]([C:2](=[O:3])[H:11])([H:7])([H:8])[H:9].[C:4](=[C:5]([O:6][H:10])[H:14])([H:12])[H:13]"
C       -1.97451441      -0.52032784      -0.39302156
C       -0.62808780       0.00860182      -0.81664399
O       -0.37082116       1.19371649      -0.32403027
C        1.41028282       1.12066372       0.65487851
C        1.79184977      -0.20463863       0.99222387
O        1.89683541      -1.03664081       0.02020080
H       -2.77112561      -0.08812706      -1.00265575
H       -2.19219684      -0.29678999       0.65119461
H       -1.97681325      -1.60328496      -0.53216773
H        0.51529527      -1.21765065      -0.43707360
H       -0.44792856      -0.04348979      -1.90513270
H        1.57417719       1.82216299       1.46795346
H        1.83011629       1.49395821      -0.27954175
H        1.34293088      -0.62815350       1.90381611
14
Frame=15 idx=000177 GeodesicLength=1.3719870909702698 rxn_smarts="[C:1]([C:2]([O:3][C:4]([C:5](=[O:6])[H:14])([H:12])[H:13])([H:10])[H:11])([H:7])([H:8])[H:9]>>[C:1]([C:2](=[O:3])[H:11])([H:7])([H:8])[H:9].[C:4](=[C:5]([O:6][H:10])[H:14])([H:12])[H:13]"
C       -1.98820328      -0.50962743      -0.39592271
C       -0.63487484       0.00534504      -0.81334812
O       -0.38453208       1.20049991      -0.33768013
C        1.39751430       1.11677298       0.66686568
C        1.82111342      -0.20337661       0.98768130
O        1.93653951      -1.02279425       0.00608273
H       -2.77359345      -0.10212571      -1.03626629
H       -2.22756614      -0.25089771       0.63521394
H       -1.98244930      -1.59692538      -0.49686264
H        0.52637767      -1.25011022      -0.42553996
H       -0.45266639      -0.05666600      -1.90123775
H        1.57761530       1.80993107       1.48443756
H        1.81203411       1.50855843      -0.26332582
H        1.37269117      -0.64858413       1.88990220
14
Frame=16 idx=000177 GeodesicLength=1.462317299564588 rxn_smarts="[C:1]([C:2]([O:3][C:4]([C:5](=[O:6])[H:14])([H:12])[H:13])([H:10])[H:11])([H:7])([H:8])[H:9]>>[C:1]([C:2](=[O:3])[H:11])([H:7])([H:8])[H:9].[C:4](=[C:5]([O:6][H:10])[H:14])([H:12])[H:13]"
C       -2.00198452      -0.49859094      -0.39897464
C       -0.64201073       0.00265980      -0.81005269
O       -0.39828893       1.20766323      -0.35188762
C        1.38442148       1.11175966       0.67923653
C        1.85049375      -0.20176290       0.98289679
O        1.97597305      -1.00821261      -0.00828513
H       -2.77563646      -0.11750380      -1.06908784
H       -2.26282888      -0.20455078       0.61723021
H       -1.98846946      -1.58887159      -0.46051518
H        0.53815327      -1.28321302      -0.41358022
H       -0.45738983      -0.06989244      -1.89714059
H        1.58011293       1.79706714       1.50066414
H        1.79349637       1.52244264      -0.24621768
H        1.40395796      -0.66899438       1.87571394
