15
Frame=0 idx=010448 GeodesicLength=0.0 rxn_smarts="[N:1]([C:2](=[O:3])[C:4]([N:5]1[C:6]([H:12])([H:13])[C:7]1([H:14])[H:15])([H:10])[H:11])([H:8])[H:9]>>[H:9][H:14].[N:1]1([H:8])[C:2](=[O:3])[C:4]([H:10])([H:11])[N:5]2[C:6]([H:12])([H:13])[C@:7]12[H:15]"
N        0.84838962      -1.12648034      -0.77977655
C        1.59080935      -0.74273145       0.24533995
O        2.69610357      -1.09136789       0.63608615
C        0.89642427       0.36753962       1.08248373
N       -0.43360914       0.62367743       0.57626689
C       -1.73737899      -0.00047661       0.37322793
C       -1.13915064       1.15593526      -0.31880045
H        1.34291916      -1.84230351      -1.30456287
H       -0.19940590      -0.22221553      -1.70418661
H        0.81729710       0.05580764       2.12171367
H        1.46841651       1.29246199       1.02051644
H       -1.72973390      -0.94996326      -0.15305504
H       -2.46824328       0.15162627       1.15982594
H       -0.76496124       0.27625438      -2.04356777
H       -1.18787643       2.05223601      -0.91151146
15
Frame=1 idx=010448 GeodesicLength=0.12278256883730902 rxn_smarts="[N:1]([C:2](=[O:3])[C:4]([N:5]1[C:6]([H:12])([H:13])[C:7]1([H:14])[H:15])([H:10])[H:11])([H:8])[H:9]>>[H:9][H:14].[N:1]1([H:8])[C:2](=[O:3])[C:4]([H:10])([H:11])[N:5]2[C:6]([H:12])([H:13])[C@:7]12[H:15]"
N        0.88358567      -1.06845420      -0.81358130
C        1.60167398      -0.72573011       0.24423120
O        2.69565820      -1.09776703       0.64341938
C        0.88680400       0.34492958       1.10821478
N       -0.42191087       0.64107824       0.57822409
C       -1.73430436       0.03265796       0.39414212
C       -1.10758273       1.12984846      -0.36601216
H        1.40329170      -1.74119394      -1.37036125
H       -0.23953392      -0.29476303      -1.73546775
H        0.78112977      -0.01726165       2.12909798
H        1.46483392       1.26847270       1.10913899
H       -1.73187525      -0.95157875      -0.06417003
H       -2.47475450       0.24722228       1.15664563
H       -0.84087960       0.20360028      -2.05982609
H       -1.16613602       2.02893920      -0.95369558
15
Frame=2 idx=010448 GeodesicLength=0.24470696546271167 rxn_smarts="[N:1]([C:2](=[O:3])[C:4]([N:5]1[C:6]([H:12])([H:13])[C:7]1([H:14])[H:15])([H:10])[H:11])([H:8])[H:9]>>[H:9][H:14].[N:1]1([H:8])[C:2](=[O:3])[C:4]([H:10])([H:11])[N:5]2[C:6]([H:12])([H:13])[C@:7]12[H:15]"
N        0.92014069      -1.00254795      -0.84972216
C        1.60925474      -0.71172279       0.24389973
O        2.69110202      -1.10932729       0.64972966
C        0.87615418       0.32129406       1.13172030
N       -0.40989946       0.66111761       0.58039876
C       -1.73039602       0.06805167       0.41428511
C       -1.07635790       1.10064144      -0.41107484
H        1.46667630      -1.62655085      -1.43707756
H       -0.27913136      -0.37526386      -1.75869535
H        0.74398929      -0.08940017       2.13145199
H        1.46035956       1.23910902       1.19442250
H       -1.73422951      -0.94616839       0.02639049
H       -2.47845268       0.34324499       1.14915821
H       -0.91264559       0.12752734      -2.06737445
H       -1.14656425       1.99999518      -0.99751238
15
Frame=3 idx=010448 GeodesicLength=0.3657545335482301 rxn_smarts="[N:1]([C:2](=[O:3])[C:4]([N:5]1[C:6]([H:12])([H:13])[C:7]1([H:14])[H:15])([H:10])[H:11])([H:8])[H:9]>>[H:9][H:14].[N:1]1([H:8])[C:2](=[O:3])[C:4]([H:10])([H:11])[N:5]2[C:6]([H:12])([H:13])[C@:7]12[H:15]"
N        0.95667006      -0.92944773      -0.88710943
C        1.61318844      -0.70055268       0.24259548
O        2.68219620      -1.12584788       0.65253191
C        0.86433761       0.29678318       1.15213122
N       -0.39783916       0.68378318       0.58259022
C       -1.72586982       0.10533815       0.43375694
C       -1.04642433       1.06847086      -0.45334485
H        1.53090246      -1.49969843      -1.50208980
H       -0.31361803      -0.46178718      -1.77200393
H        0.70600553      -0.16038734       2.12810881
H        1.45501006       1.20455501       1.27526258
H       -1.73743889      -0.93364561       0.11773772
H       -2.47988426       0.43874187       1.13756685
H       -0.97724150       0.04809683      -2.06557800
H       -1.12999436       1.96559777      -1.04215572
15
Frame=4 idx=010448 GeodesicLength=0.4861684765142173 rxn_smarts="[N:1]([C:2](=[O:3])[C:4]([N:5]1[C:6]([H:12])([H:13])[C:7]1([H:14])[H:15])([H:10])[H:11])([H:8])[H:9]>>[H:9][H:14].[N:1]1([H:8])[C:2](=[O:3])[C:4]([H:10])([H:11])[N:5]2[C:6]([H:12])([H:13])[C@:7]12[H:15]"
N        0.99038715      -0.85334733      -0.92282830
C        1.61403199      -0.69135111       0.23887851
O        2.66997816      -1.14559224       0.64969767
C        0.85125981       0.27150075       1.16885021
N       -0.38587962       0.70845630       0.58433908
C       -1.72106841       0.14420867       0.45262559
C       -1.01864906       1.03369285      -0.49217941
H        1.59348921      -1.36213430      -1.56350725
H       -0.33757270      -0.55052862      -1.77517066
H        0.66744225      -0.23040509       2.11851200
H        1.44848951       1.16519834       1.35114216
H       -1.74376893      -0.91382008       0.20790058
H       -2.47856211       0.53313242       1.12321848
H       -1.03273986      -0.03485874      -2.05424414
H       -1.11683738       1.92584818      -1.08723450
15
Frame=5 idx=010448 GeodesicLength=0.6063438309496757 rxn_smarts="[N:1]([C:2](=[O:3])[C:4]([N:5]1[C:6]([H:12])([H:13])[C:7]1([H:14])[H:15])([H:10])[H:11])([H:8])[H:9]>>[H:9][H:14].[N:1]1([H:8])[C:2](=[O:3])[C:4]([H:10])([H:11])[N:5]2[C:6]([H:12])([H:13])[C@:7]12[H:15]"
N        1.01906300      -0.77845100      -0.95502353
C        1.61319966      -0.68170571       0.23164359
O        2.65655741      -1.16474316       0.63959237
C        0.83723669       0.24619109       1.18158996
N       -0.37416317       0.73418416       0.58578108
C       -1.71584744       0.18336961       0.47041145
C       -0.99350689       0.99712902      -0.52663279
H        1.64860829      -1.22479817      -1.61625034
H       -0.34710571      -0.63506488      -1.77201781
H        0.62922093      -0.29908593       2.10235801
H        1.44004558       1.12254362       1.42174517
H       -1.75200277      -0.88817196       0.29570334
H       -2.47550312       0.62395071       1.10539607
H       -1.07852387      -0.11815053      -2.03459239
H       -1.10727860       1.88280312      -1.12970417
15
Frame=6 idx=010448 GeodesicLength=0.7264287070723815 rxn_smarts="[N:1]([C:2](=[O:3])[C:4]([N:5]1[C:6]([H:12])([H:13])[C:7]1([H:14])[H:15])([H:10])[H:11])([H:8])[H:9]>>[H:9][H:14].[N:1]1([H:8])[C:2](=[O:3])[C:4]([H:10])([H:11])[N:5]2[C:6]([H:12])([H:13])[C@:7]12[H:15]"
N        1.04166140      -0.70896538      -0.98234323
C        1.61268511      -0.66992070       0.22152870
O        2.64475420      -1.17978814       0.62309893
C        0.82240808       0.22102555       1.19088301
N       -0.36260602       0.75980895       0.58664581
C       -1.71040058       0.22237290       0.48696881
C       -0.97112479       0.95940431      -0.55657839
H        1.69412177      -1.09296279      -1.65993998
H       -0.34290812      -0.71279837      -1.76604873
H        0.59159880      -0.36665916       2.08002963
H        1.42895674       1.07734029       1.48799869
H       -1.76319705      -0.85732592       0.37944716
H       -2.47002842       0.71068877       1.08581801
H       -1.11557637      -0.19966664      -2.00855081
H       -1.10034477       1.83744633      -1.16895760
15
Frame=7 idx=010448 GeodesicLength=0.8466881011891941 rxn_smarts="[N:1]([C:2](=[O:3])[C:4]([N:5]1[C:6]([H:12])([H:13])[C:7]1([H:14])[H:15])([H:10])[H:11])([H:8])[H:9]>>[H:9][H:14].[N:1]1([H:8])[C:2](=[O:3])[C:4]([H:10])([H:11])[N:5]2[C:6]([H:12])([H:13])[C@:7]12[H:15]"
N        1.05894707      -0.64547853      -1.00553120
C        1.61311715      -0.65566151       0.20960225
O        2.63539413      -1.18986968       0.60201918
C        0.80703567       0.19625415       1.19729737
N       -0.35108102       0.78486928       0.58712198
C       -1.70467528       0.26086647       0.50235680
C       -0.95128906       0.92094172      -0.58207082
H        1.73010280      -0.97021592      -1.69531409
H       -0.32730323      -0.78274370      -1.76043653
H        0.55477982      -0.43266762       2.05218333
H        1.41510819       1.03019702       1.55036765
H       -1.77610379      -0.82226563       0.45974309
H       -2.46283237       0.79313424       1.06433222
H       -1.14573842      -0.27820609      -1.97757110
H       -1.09546166       1.79084579      -1.20410013
15
Frame=8 idx=010448 GeodesicLength=0.9673044444576361 rxn_smarts="[N:1]([C:2](=[O:3])[C:4]([N:5]1[C:6]([H:12])([H:13])[C:7]1([H:14])[H:15])([H:10])[H:11])([H:8])[H:9]>>[H:9][H:14].[N:1]1([H:8])[C:2](=[O:3])[C:4]([H:10])([H:11])[N:5]2[C:6]([H:12])([H:13])[C@:7]12[H:15]"
N        1.07176884      -0.58791232      -1.02532846
C        1.61454479      -0.63928545       0.19682644
O        2.62850318      -1.19515765       0.57798400
C        0.79114002       0.17169137       1.20126453
N       -0.33937462       0.80908429       0.58716667
C       -1.69861183       0.29902821       0.51684330
C       -0.93368566       0.88173619      -0.60345987
H        1.75818430      -0.85509436      -1.72420176
H       -0.30287737      -0.84577641      -1.75647951
H        0.51855463      -0.49714385       2.01924999
H        1.39846347       0.98098299       1.60926146
H       -1.79036374      -0.78317363       0.53741999
H       -2.45387878       0.87214535       1.04113168
H       -1.17048131      -0.35419517      -1.94220851
H       -1.09188592       1.74307044      -1.23546994
15
Frame=9 idx=010448 GeodesicLength=1.0881955220333996 rxn_smarts="[N:1]([C:2](=[O:3])[C:4]([N:5]1[C:6]([H:12])([H:13])[C:7]1([H:14])[H:15])([H:10])[H:11])([H:8])[H:9]>>[H:9][H:14].[N:1]1([H:8])[C:2](=[O:3])[C:4]([H:10])([H:11])[N:5]2[C:6]([H:12])([H:13])[C@:7]12[H:15]"
N        1.08109595      -0.53541226      -1.04247382
C        1.61664027      -0.62146814       0.18396114
O        2.62362224      -1.19644519       0.55238706
C        0.77478012       0.14734971       1.20314329
N       -0.32741188       0.83233074       0.58681042
C       -1.69218248       0.33683640       0.53055930
C       -0.91822020       0.84186449      -0.62102465
H        1.77960847      -0.74695759      -1.74784485
H       -0.27132665      -0.90217291      -1.75532833
H        0.48290922      -0.55959914       1.98192414
H        1.37928201       0.92985772       1.66452172
H       -1.80546555      -0.74031176       0.61283796
H       -2.44314735       0.94789392       1.01669720
H       -1.19072669      -0.42803411      -1.90288703
H       -1.08945746       1.69426813      -1.26328356
15
Frame=10 idx=010448 GeodesicLength=1.209328108526235 rxn_smarts="[N:1]([C:2](=[O:3])[C:4]([N:5]1[C:6]([H:12])([H:13])[C:7]1([H:14])[H:15])([H:10])[H:11])([H:8])[H:9]>>[H:9][H:14].[N:1]1([H:8])[C:2](=[O:3])[C:4]([H:10])([H:11])[N:5]2[C:6]([H:12])([H:13])[C@:7]12[H:15]"
N        1.08762559      -0.48716944      -1.05750267
C        1.61882264      -0.60310585       0.17150663
O        2.62003178      -1.19480323       0.52616616
C        0.75799246       0.12323286       1.20319354
N       -0.31512595       0.85457433       0.58606739
C       -1.68531221       0.37426847       0.54360781
C       -0.90477981       0.80129290      -0.63502232
H        1.79558563      -0.64440482      -1.76708536
H       -0.23389508      -0.95209858      -1.75787182
H        0.44778518      -0.61954061       1.94091390
H        1.35795047       0.87701688       1.71581337
H       -1.82082670      -0.69385064       0.68648305
H       -2.43066425       1.02057753       0.99121050
H       -1.20703721      -0.50039491      -1.85968920
H       -1.08815254       1.64440511      -1.28779099
15
Frame=11 idx=010448 GeodesicLength=1.3307400355662116 rxn_smarts="[N:1]([C:2](=[O:3])[C:4]([N:5]1[C:6]([H:12])([H:13])[C:7]1([H:14])[H:15])([H:10])[H:11])([H:8])[H:9]>>[H:9][H:14].[N:1]1([H:8])[C:2](=[O:3])[C:4]([H:10])([H:11])[N:5]2[C:6]([H:12])([H:13])[C@:7]12[H:15]"
N        1.09177566      -0.44259070      -1.07081155
C        1.62054668      -0.58502721       0.15971381
O        2.61714161      -1.19114070       0.49985862
C        0.74084521       0.09935636       1.20165157
N       -0.30246684       0.87580305       0.58499611
C       -1.67791830       0.41125148       0.55602586
C       -0.89319852       0.75997318      -0.64564817
H        1.80701931      -0.54617035      -1.78238983
H       -0.19168205      -0.99564343      -1.76476378
H        0.41309014      -0.67656990       1.89691338
H        1.33488428       0.82274630       1.76290088
H       -1.83583191      -0.64390124       0.75887241
H       -2.41660158       1.09028333       0.96449408
H       -1.21964172      -0.57181404      -1.81267787
H       -1.08796197       1.59344386      -1.30913552
15
Frame=12 idx=010448 GeodesicLength=1.452245219375964 rxn_smarts="[N:1]([C:2](=[O:3])[C:4]([N:5]1[C:6]([H:12])([H:13])[C:7]1([H:14])[H:15])([H:10])[H:11])([H:8])[H:9]>>[H:9][H:14].[N:1]1([H:8])[C:2](=[O:3])[C:4]([H:10])([H:11])[N:5]2[C:6]([H:12])([H:13])[C@:7]12[H:15]"
N        1.09377126      -0.40123766      -1.08252205
C        1.62102673      -0.56836296       0.14888155
O        2.61380823      -1.18708765       0.47408416
C        0.72344826       0.07609179       1.19876771
N       -0.28947615       0.89605756       0.58356300
C       -1.66985859       0.44731791       0.56763312
C       -0.88336588       0.71806276      -0.65314836
H        1.81442567      -0.45134889      -1.79382480
H       -0.14562037      -1.03239743      -1.77675822
H        0.37893906      -0.72958634       1.85127139
H        1.31087229       0.76806083       1.80495744
H       -1.84946931      -0.59105588       0.82976377
H       -2.40106212       1.15622757       0.93689677
H       -1.22847236      -0.64237851      -1.76218034
H       -1.08896673       1.54163690      -1.32738516
15
Frame=13 idx=010448 GeodesicLength=1.5739673280048405 rxn_smarts="[N:1]([C:2](=[O:3])[C:4]([N:5]1[C:6]([H:12])([H:13])[C:7]1([H:14])[H:15])([H:10])[H:11])([H:8])[H:9]>>[H:9][H:14].[N:1]1([H:8])[C:2](=[O:3])[C:4]([H:10])([H:11])[N:5]2[C:6]([H:12])([H:13])[C@:7]12[H:15]"
N        1.09371265      -0.36289301      -1.09285936
C        1.62010957      -0.55347361       0.13894829
O        2.60989960      -1.18304495       0.44888688
C        0.70591886       0.05349413       1.19482714
N       -0.27614863       0.91533486       0.58185333
C       -1.66109894       0.48225916       0.57832352
C       -0.87501052       0.67568488      -0.65773678
H        1.81806177      -0.35948534      -1.80157520
H       -0.09688429      -1.06275775      -1.79356477
H        0.34524675      -0.77853961       1.80467957
H        1.28626291       0.71342215       1.84225012
H       -1.86116299      -0.53553110       0.89931306
H       -2.38442692       1.21825053       0.90801737
H       -1.23347413      -0.71193130      -1.70874752
H       -1.09100568       1.48921096      -1.34261565
15
Frame=14 idx=010448 GeodesicLength=1.6960064008067304 rxn_smarts="[N:1]([C:2](=[O:3])[C:4]([N:5]1[C:6]([H:12])([H:13])[C:7]1([H:14])[H:15])([H:10])[H:11])([H:8])[H:9]>>[H:9][H:14].[N:1]1([H:8])[C:2](=[O:3])[C:4]([H:10])([H:11])[N:5]2[C:6]([H:12])([H:13])[C@:7]12[H:15]"
N        1.09161947      -0.32742550      -1.10193685
C        1.61766648      -0.54059995       0.12985230
O        2.60524289      -1.17931999       0.42430587
C        0.68837204       0.03169379       1.19009152
N       -0.26250090       0.93362753       0.57992686
C       -1.65156802       0.51572773       0.58791630
C       -0.86782691       0.63306951      -0.65965186
H        1.81795675      -0.27048293      -1.80572606
H       -0.04647954      -1.08726206      -1.81448687
H        0.31200235      -0.82330228       1.75785554
H        1.26139900       0.65942951       1.87497774
H       -1.87030989      -0.47773582       0.96727729
H       -2.36696752       1.27590202       0.87767109
H       -1.23477919      -0.77989855      -1.65323558
H       -1.09382702       1.43657700      -1.35483728
15
Frame=15 idx=010448 GeodesicLength=1.8182081392026197 rxn_smarts="[N:1]([C:2](=[O:3])[C:4]([N:5]1[C:6]([H:12])([H:13])[C:7]1([H:14])[H:15])([H:10])[H:11])([H:8])[H:9]>>[H:9][H:14].[N:1]1([H:8])[C:2](=[O:3])[C:4]([H:10])([H:11])[N:5]2[C:6]([H:12])([H:13])[C@:7]12[H:15]"
N        1.08752363      -0.29483203      -1.10971785
C        1.61336522      -0.53037301       0.12169255
O        2.59914825      -1.17706326       0.40062505
C        0.67102175       0.01118312       1.18489990
N       -0.24866519       0.95099403       0.57777334
C       -1.64124343       0.54702476       0.59612090
C       -0.86153930       0.59064130      -0.65931034
H        1.81415479      -0.18444031      -1.80620257
H        0.00488193      -1.10609128      -1.83920175
H        0.27946570      -0.86302077       1.71239976
H        1.23711057       0.60746806       1.90281880
H       -1.87604009      -0.41874560       1.03281455
H       -2.34909944       1.32804590       0.84634445
H       -1.23291966      -0.84529445      -1.59695489
H       -1.09716472       1.38450353      -1.36410192
15
Frame=16 idx=010448 GeodesicLength=1.9406559828288337 rxn_smarts="[N:1]([C:2](=[O:3])[C:4]([N:5]1[C:6]([H:12])([H:13])[C:7]1([H:14])[H:15])([H:10])[H:11])([H:8])[H:9]>>[H:9][H:14].[N:1]1([H:8])[C:2](=[O:3])[C:4]([H:10])([H:11])[N:5]2[C:6]([H:12])([H:13])[C@:7]12[H:15]"
N        1.08154099      -0.26501615      -1.11633739
C        1.60731652      -0.52280343       0.11433090
O        2.59174978      -1.17628249       0.37775713
C        0.65400458      -0.00798186       1.17950878
N       -0.23467537       0.96742917       0.57542801
C       -1.63017409       0.57592104       0.60289006
C       -0.85585857       0.54860541      -0.65705066
H        1.80680907      -0.10142482      -1.80310365
H        0.05683415      -1.11994602      -1.86696019
H        0.24767622      -0.89789675       1.66897310
H        1.21368577       0.55802229       1.92629237
H       -1.87820226      -0.35901523       1.09562136
H       -2.33114816       1.37452910       0.81405187
H       -1.22884590      -0.90753301      -1.54080542
H       -1.10071274       1.33339276      -1.37059626
