15
Frame=0 idx=010972 GeodesicLength=0.0 rxn_smarts="[C:1]([C:2]1=[C:3]([H:11])[C:4]([H:12])([H:13])[C@@:5]2([H:14])[O:6][C@@:7]12[H:15])([H:8])([H:9])[H:10]>>[C:1](/[C:2]([C:3](=[C:4]([H:12])[H:13])[H:11])=[C:7](/[C:5](=[O:6])[H:14])[H:15])([H:8])([H:9])[H:10]"
C        2.15800856      -0.12610520      -0.45838381
C        0.69246886      -0.06418812      -0.16106423
C       -0.11202862      -1.11608652       0.22164868
C       -1.40631046      -0.69119175       0.70344375
C       -1.55265044       0.82975962      -0.00900492
O       -1.83965263       1.80182114       0.80059112
C       -0.13565077       1.04022870      -0.35457122
H        2.42881165       0.54415355      -1.27384856
H        2.45755256      -1.13917923      -0.72993136
H        2.73668045       0.16656066       0.41999171
H        0.17695822      -2.15558638       0.09080876
H       -2.22329319      -1.39858492       0.56520116
H       -1.36583554      -0.35801669       1.73854480
H       -2.20703432       0.64018440      -0.89193293
H        0.19197574       2.02623071      -0.66149301
15
Frame=1 idx=010972 GeodesicLength=0.07394184275098045 rxn_smarts="[C:1]([C:2]1=[C:3]([H:11])[C:4]([H:12])([H:13])[C@@:5]2([H:14])[O:6][C@@:7]12[H:15])([H:8])([H:9])[H:10]>>[C:1](/[C:2]([C:3](=[C:4]([H:12])[H:13])[H:11])=[C:7](/[C:5](=[O:6])[H:14])[H:15])([H:8])([H:9])[H:10]"
C        2.15359831      -0.12244660      -0.45375022
C        0.68673409      -0.06262820      -0.16426483
C       -0.11175988      -1.11852969       0.22469088
C       -1.40746722      -0.70546761       0.70746858
C       -1.55425779       0.83580955      -0.00840028
O       -1.80006578       1.82396442       0.79503733
C       -0.13811645       1.04647904      -0.35364740
H        2.42937910       0.55406581      -1.26246376
H        2.45465964      -1.13310591      -0.73280620
H        2.72757076       0.16224815       0.43039148
H        0.18119954      -2.15612058       0.08844290
H       -2.22029929      -1.41629800       0.56276514
H       -1.37442037      -0.37578422       1.74401280
H       -2.21791575       0.64739654      -0.88227811
H        0.19116109       2.02041729      -0.69519832
15
Frame=2 idx=010972 GeodesicLength=0.14785562650407202 rxn_smarts="[C:1]([C:2]1=[C:3]([H:11])[C:4]([H:12])([H:13])[C@@:5]2([H:14])[O:6][C@@:7]12[H:15])([H:8])([H:9])[H:10]>>[C:1](/[C:2]([C:3](=[C:4]([H:12])[H:13])[H:11])=[C:7](/[C:5](=[O:6])[H:14])[H:15])([H:8])([H:9])[H:10]"
C        2.14918101      -0.11876526      -0.44888483
C        0.68086892      -0.06112490      -0.16799184
C       -0.11162581      -1.12094276       0.22719848
C       -1.40841624      -0.71974569       0.71157531
C       -1.55567380       0.84251565      -0.00733493
O       -1.76067881       1.84571903       0.78873768
C       -0.14057071       1.05268309      -0.35371026
H        2.43024128       0.56391999      -1.25066323
H        2.45201458      -1.12693378      -0.73519087
H        2.71797057       0.15803233       0.44116522
H        0.18519883      -2.15658261       0.08539018
H       -2.21711928      -1.43393733       0.56065761
H       -1.38234905      -0.39354880       1.74947365
H       -2.22910824       0.65499975      -0.87157023
H        0.19006674       2.01371128      -0.72885194
15
Frame=3 idx=010972 GeodesicLength=0.22177624548342534 rxn_smarts="[C:1]([C:2]1=[C:3]([H:11])[C:4]([H:12])([H:13])[C@@:5]2([H:14])[O:6][C@@:7]12[H:15])([H:8])([H:9])[H:10]>>[C:1](/[C:2]([C:3](=[C:4]([H:12])[H:13])[H:11])=[C:7](/[C:5](=[O:6])[H:14])[H:15])([H:8])([H:9])[H:10]"
C        2.14472294      -0.11509406      -0.44395988
C        0.67494965      -0.05960813      -0.17190792
C       -0.11157643      -1.12329092       0.22939063
C       -1.40923632      -0.73406767       0.71568969
C       -1.55688739       0.84985381      -0.00592767
O       -1.72171841       1.86709355       0.78156258
C       -0.14294845       1.05890634      -0.35452603
H        2.43112667       0.57356071      -1.23881604
H        2.44948332      -1.12074873      -0.73722466
H        2.70814419       0.15398057       0.45192529
H        0.18914165      -2.15695010       0.08217620
H       -2.21378022      -1.45157734       0.55861162
H       -1.38993481      -0.41137718       1.75488224
H       -2.24038403       0.66295826      -0.86006400
H        0.18889764       2.00636090      -0.76181205
15
Frame=4 idx=010972 GeodesicLength=0.2957270828882196 rxn_smarts="[C:1]([C:2]1=[C:3]([H:11])[C:4]([H:12])([H:13])[C@@:5]2([H:14])[O:6][C@@:7]12[H:15])([H:8])([H:9])[H:10]>>[C:1](/[C:2]([C:3](=[C:4]([H:12])[H:13])[H:11])=[C:7](/[C:5](=[O:6])[H:14])[H:15])([H:8])([H:9])[H:10]"
C        2.14023041      -0.11141189      -0.43887669
C        0.66894764      -0.05812150      -0.17612589
C       -0.11164197      -1.12562452       0.23114607
C       -1.40989833      -0.74845873       0.71982873
C       -1.55789357       0.85782432      -0.00412718
O       -1.68298268       1.88820805       0.77354769
C       -0.14530834       1.06507011      -0.35628023
H        2.43212755       0.58308701      -1.22672615
H        2.44713481      -1.11451004      -0.73883529
H        2.69795874       0.15007164       0.46287435
H        0.19297099      -2.15727077       0.07858350
H       -2.21029164      -1.46921750       0.55671604
H       -1.39703525      -0.42931657       1.76026908
H       -2.25188734       0.67131386      -0.84757083
H        0.18756897       1.99835653      -0.79442321
15
Frame=5 idx=010972 GeodesicLength=0.369675133774246 rxn_smarts="[C:1]([C:2]1=[C:3]([H:11])[C:4]([H:12])([H:13])[C@@:5]2([H:14])[O:6][C@@:7]12[H:15])([H:8])([H:9])[H:10]>>[C:1](/[C:2]([C:3](=[C:4]([H:12])[H:13])[H:11])=[C:7](/[C:5](=[O:6])[H:14])[H:15])([H:8])([H:9])[H:10]"
C        2.13568616      -0.10774806      -0.43377622
C        0.66293707      -0.05659461      -0.18031790
C       -0.11176287      -1.12789533       0.23270931
C       -1.41046880      -0.76294844       0.72395113
C       -1.55868034       0.86638871      -0.00202050
O       -1.64470004       1.90907389       0.76456577
C       -0.14758740       1.07122146      -0.35871277
H        2.43303317       0.59238286      -1.21468079
H        2.44483628      -1.10827765      -0.74018214
H        2.68766824       0.14631824       0.47368668
H        0.19680460      -2.15749275       0.07495579
H       -2.20666222      -1.48691268       0.55475855
H       -1.40395174      -0.44740696       1.76559954
H       -2.26338979       0.67999482      -0.83430344
H        0.18623767       1.98989651      -0.82623301
15
Frame=6 idx=010972 GeodesicLength=0.44363893255260567 rxn_smarts="[C:1]([C:2]1=[C:3]([H:11])[C:4]([H:12])([H:13])[C@@:5]2([H:14])[O:6][C@@:7]12[H:15])([H:8])([H:9])[H:10]>>[C:1](/[C:2]([C:3](=[C:4]([H:12])[H:13])[H:11])=[C:7](/[C:5](=[O:6])[H:14])[H:15])([H:8])([H:9])[H:10]"
C        2.13109420      -0.10407296      -0.42855488
C        0.65688481      -0.05506584      -0.18460039
C       -0.11197927      -1.13014606       0.23395194
C       -1.41092437      -0.77756368       0.72806453
C       -1.55922992       0.87555916       0.00046640
O       -1.60664917       1.92978140       0.75467416
C       -0.14983297       1.07730248      -0.36196967
H        2.43393912       0.60155431      -1.20247853
H        2.44265190      -1.10199996      -0.74118374
H        2.67713769       0.14270564       0.48456880
H        0.20058300      -2.15765334       0.07109373
H       -2.20290708      -1.50466194       0.55280509
H       -1.41055129      -0.46571372       1.77089265
H       -2.27501494       0.68906987      -0.82004971
H        0.18479831       1.98090464      -0.85768039
15
Frame=7 idx=010972 GeodesicLength=0.5176041226711404 rxn_smarts="[C:1]([C:2]1=[C:3]([H:11])[C:4]([H:12])([H:13])[C@@:5]2([H:14])[O:6][C@@:7]12[H:15])([H:8])([H:9])[H:10]>>[C:1](/[C:2]([C:3](=[C:4]([H:12])[H:13])[H:11])=[C:7](/[C:5](=[O:6])[H:14])[H:15])([H:8])([H:9])[H:10]"
C        2.12644584      -0.10040938      -0.42331063
C        0.65084670      -0.05347911      -0.18871325
C       -0.11224311      -1.13234363       0.23507116
C       -1.41131194      -0.79233026       0.73214976
C       -1.55953571       0.88530802       0.00326507
O       -1.56901444       1.95034961       0.74377353
C       -0.15200554       1.08335373      -0.36583913
H        2.43468788       0.61050383      -1.19034646
H        2.44048417      -1.09573118      -0.74193710
H        2.66656839       0.13926402       0.49528486
H        0.20436710      -2.15771575       0.06717590
H       -2.19902571      -1.52251116       0.55071792
H       -1.41705679      -0.48426446       1.77613220
H       -2.28658189       0.69847643      -0.80497683
H        0.18337504       1.97152930      -0.88844701
15
Frame=8 idx=010972 GeodesicLength=0.591589027898664 rxn_smarts="[C:1]([C:2]1=[C:3]([H:11])[C:4]([H:12])([H:13])[C@@:5]2([H:14])[O:6][C@@:7]12[H:15])([H:8])([H:9])[H:10]>>[C:1](/[C:2]([C:3](=[C:4]([H:12])[H:13])[H:11])=[C:7](/[C:5](=[O:6])[H:14])[H:15])([H:8])([H:9])[H:10]"
C        2.12174524      -0.09672904      -0.41795901
C        0.64479394      -0.05186728      -0.19276419
C       -0.11258960      -1.13452244       0.23595505
C       -1.41162104      -0.80727720       0.73619404
C       -1.55957321       0.89566351       0.00646227
O       -1.53158495       1.97085763       0.73192224
C       -0.15414226       1.08933330      -0.37042891
H        2.43536381       0.61933716      -1.17810474
H        2.43838787      -1.08941963      -0.74239327
H        2.65584386       0.13596222       0.50601351
H        0.20814552      -2.15771101       0.06311656
H       -2.19503713      -1.54046062       0.54850058
H       -1.42338295      -0.50314035       1.78132122
H       -2.29819031       0.70831086      -0.78886804
H        0.18184121       1.96166287      -0.91896730
15
Frame=9 idx=010972 GeodesicLength=0.6655667249089307 rxn_smarts="[C:1]([C:2]1=[C:3]([H:11])[C:4]([H:12])([H:13])[C@@:5]2([H:14])[O:6][C@@:7]12[H:15])([H:8])([H:9])[H:10]>>[C:1](/[C:2]([C:3](=[C:4]([H:12])[H:13])[H:11])=[C:7](/[C:5](=[O:6])[H:14])[H:15])([H:8])([H:9])[H:10]"
C        2.11698432      -0.09305282      -0.41259917
C        0.63877103      -0.05017310      -0.19651947
C       -0.11297552      -1.13664539       0.23679444
C       -1.41189906      -0.82242990       0.74017416
C       -1.55933333       0.90660009       0.00999557
O       -1.49454089       1.99131756       0.71903261
C       -0.15620138       1.09528151      -0.37553451
H        2.43582988       0.62795558      -1.16598294
H        2.43626400      -1.08311672      -0.74264642
H        2.64515628       0.13283057       0.51652891
H        0.21198013      -2.15759594       0.05911385
H       -2.19093849      -1.55855505       0.54601476
H       -1.42975066      -0.52236690       1.78643229
H       -2.30966825       0.71850685      -0.77188169
H        0.18032195       1.95144363      -0.94892242
15
Frame=10 idx=010972 GeodesicLength=0.7395734381063696 rxn_smarts="[C:1]([C:2]1=[C:3]([H:11])[C:4]([H:12])([H:13])[C@@:5]2([H:14])[O:6][C@@:7]12[H:15])([H:8])([H:9])[H:10]>>[C:1](/[C:2]([C:3](=[C:4]([H:12])[H:13])[H:11])=[C:7](/[C:5](=[O:6])[H:14])[H:15])([H:8])([H:9])[H:10]"
C        2.11216917      -0.08935276      -0.40712760
C        0.63274082      -0.04844151      -0.20012560
C       -0.11343956      -1.13876054       0.23745026
C       -1.41212138      -0.83781717       0.74408758
C       -1.55878643       0.91815627       0.01396064
O       -1.45766135       2.01182700       0.70513113
C       -0.15823898       1.10115341      -0.38130927
H        2.43618200       0.63646916      -1.15377626
H        2.43419417      -1.07677562      -0.74261508
H        2.63435721       0.12985642       0.52705053
H        0.21583351      -2.15741804       0.05500121
H       -2.18674450      -1.57679171       0.54330095
H       -1.43602614      -0.54201230       1.79147994
H       -2.32113200       0.72916563      -0.75376542
H        0.17867346       1.94074176      -0.97874302
15
Frame=11 idx=010972 GeodesicLength=0.8135966680408102 rxn_smarts="[C:1]([C:2]1=[C:3]([H:11])[C:4]([H:12])([H:13])[C@@:5]2([H:14])[O:6][C@@:7]12[H:15])([H:8])([H:9])[H:10]>>[C:1](/[C:2]([C:3](=[C:4]([H:12])[H:13])[H:11])=[C:7](/[C:5](=[O:6])[H:14])[H:15])([H:8])([H:9])[H:10]"
C        2.10729109      -0.08558372      -0.40146807
C        0.62667486      -0.04670385      -0.20368723
C       -0.11402123      -1.14088603       0.23782059
C       -1.41228756      -0.85345380       0.74790457
C       -1.55787887       0.93036651       0.01844632
O       -1.42070493       2.03238367       0.69023973
C       -0.16027619       1.10688295      -0.38784427
H        2.43648013       0.64498084      -1.14130857
H        2.43221857      -1.07030933      -0.74223289
H        2.62331346       0.12704388       0.53771172
H        0.21969368      -2.15718363       0.05071861
H       -2.18248351      -1.59514522       0.54034399
H       -1.44214954      -0.56215213       1.79643502
H       -2.33262728       0.74040612      -0.73426128
H        0.17675731       1.92935376      -1.00881826
15
Frame=12 idx=010972 GeodesicLength=0.8876460499690763 rxn_smarts="[C:1]([C:2]1=[C:3]([H:11])[C:4]([H:12])([H:13])[C@@:5]2([H:14])[O:6][C@@:7]12[H:15])([H:8])([H:9])[H:10]>>[C:1](/[C:2]([C:3](=[C:4]([H:12])[H:13])[H:11])=[C:7](/[C:5](=[O:6])[H:14])[H:15])([H:8])([H:9])[H:10]"
C        2.10235432      -0.08178357      -0.39572937
C        0.62062440      -0.04489169      -0.20693983
C       -0.11465645      -1.14298703       0.23813837
C       -1.41244300      -0.86937599       0.75160761
C       -1.55660527       0.94321988       0.02340083
O       -1.38391893       2.05306019       0.67423750
C       -0.16228293       1.11254624      -0.39492288
H        2.43658274       0.65338935      -1.12883477
H        2.43023950      -1.06380772      -0.74163029
H        2.61226304       0.12439128       0.54829337
H        0.22363392      -2.15685855       0.04646289
H       -2.17813319      -1.61368636       0.53698007
H       -1.44836763      -0.58280825       1.80128428
H       -2.34397512       0.75215259      -0.71354786
H        0.17468461       1.91743963      -1.03879991
15
Frame=13 idx=010972 GeodesicLength=0.9617592957830063 rxn_smarts="[C:1]([C:2]1=[C:3]([H:11])[C:4]([H:12])([H:13])[C@@:5]2([H:14])[O:6][C@@:7]12[H:15])([H:8])([H:9])[H:10]>>[C:1](/[C:2]([C:3](=[C:4]([H:12])[H:13])[H:11])=[C:7](/[C:5](=[O:6])[H:14])[H:15])([H:8])([H:9])[H:10]"
C        2.09738255      -0.07793210      -0.38998830
C        0.61462261      -0.04295893      -0.20974001
C       -0.11534271      -1.14505876       0.23855622
C       -1.41267203      -0.88563777       0.75519571
C       -1.55494285       0.95671572       0.02880073
O       -1.34738084       2.07388299       0.65711304
C       -0.16419904       1.11818585      -0.40241128
H        2.43647221       0.66168746      -1.11653307
H        2.42820084      -1.05728593      -0.74090244
H        2.60135421       0.12196098       0.55866875
H        0.22766058      -2.15645276       0.04239063
H       -2.17375515      -1.63250280       0.53310338
H       -1.45491397      -0.60402969       1.80604698
H       -2.35504975       0.76436037      -0.69170913
H        0.17256337       1.90506537      -1.06859120
15
Frame=14 idx=010972 GeodesicLength=1.035771142798366 rxn_smarts="[C:1]([C:2]1=[C:3]([H:11])[C:4]([H:12])([H:13])[C@@:5]2([H:14])[O:6][C@@:7]12[H:15])([H:8])([H:9])[H:10]>>[C:1](/[C:2]([C:3](=[C:4]([H:12])[H:13])[H:11])=[C:7](/[C:5](=[O:6])[H:14])[H:15])([H:8])([H:9])[H:10]"
C        2.09229411      -0.07405939      -0.38410604
C        0.60861155      -0.04095374      -0.21217131
C       -0.11603770      -1.14704967       0.23893788
C       -1.41283020      -0.90216474       0.75856870
C       -1.55282806       0.97089610       0.03476832
O       -1.31090481       2.09480453       0.63873381
C       -0.16614669       1.12368378      -0.41039116
H        2.43605249       0.66987143      -1.10409773
H        2.42611231      -1.05067753      -0.73989655
H        2.59038872       0.11962306       0.56897800
H        0.23185409      -2.15583665       0.03835588
H       -2.16917916      -1.65138197       0.52864160
H       -1.46153284      -0.62584267       1.81052953
H       -2.36590360       0.77720864      -0.66836871
H        0.17004980       1.89187882      -1.09848222
15
Frame=15 idx=010972 GeodesicLength=1.1098632477597623 rxn_smarts="[C:1]([C:2]1=[C:3]([H:11])[C:4]([H:12])([H:13])[C@@:5]2([H:14])[O:6][C@@:7]12[H:15])([H:8])([H:9])[H:10]>>[C:1](/[C:2]([C:3](=[C:4]([H:12])[H:13])[H:11])=[C:7](/[C:5](=[O:6])[H:14])[H:15])([H:8])([H:9])[H:10]"
C        2.08716825      -0.07010099      -0.37815098
C        0.60262141      -0.03884716      -0.21419945
C       -0.11679966      -1.14903416       0.23937769
C       -1.41306873      -0.91907893       0.76176770
C       -1.55022959       0.98579118       0.04131237
O       -1.27448328       2.11595531       0.61913511
C       -0.16805454       1.12910855      -0.41885881
H        2.43544214       0.67802306      -1.09172257
H        2.42400901      -1.04400454      -0.73869304
H        2.57948446       0.11753906       0.57921080
H        0.23614869      -2.15515008       0.03446149
H       -2.16458275      -1.67053668       0.52355982
H       -1.46848552      -0.64833485       1.81486647
H       -2.37647576       0.79066071      -0.64355216
H        0.16730588       1.87800953      -1.12851445
15
Frame=16 idx=010972 GeodesicLength=1.1839713008568302 rxn_smarts="[C:1]([C:2]1=[C:3]([H:11])[C:4]([H:12])([H:13])[C@@:5]2([H:14])[O:6][C@@:7]12[H:15])([H:8])([H:9])[H:10]>>[C:1](/[C:2]([C:3](=[C:4]([H:12])[H:13])[H:11])=[C:7](/[C:5](=[O:6])[H:14])[H:15])([H:8])([H:9])[H:10]"
C        2.08197902      -0.06606075      -0.37210692
C        0.59664000      -0.03663736      -0.21579419
C       -0.11760382      -1.15098075       0.23990335
C       -1.41336958      -0.93637187       0.76473460
C       -1.54709320       1.00142783       0.04847453
O       -1.23808505       2.13730353       0.59823527
C       -0.16995342       1.13442112      -0.42778935
H        2.43457839       0.68612020      -1.07938519
H        2.42187050      -1.03725019      -0.73725840
H        2.56862924       0.11570058       0.58935165
H        0.24059456      -2.15433110       0.03074603
H       -2.15991464      -1.68991356       0.51775599
H       -1.47579493      -0.67153878       1.81896077
H       -2.38670496       0.80478574      -0.61711308
H        0.16422789       1.86332537      -1.15871506
