11
Frame=0 idx=003056 GeodesicLength=0.0 rxn_smarts="[O:1]([C@@:2]1([H:8])[C:3]([H:9])([H:10])[C@:4]1([C:5]#[N:6])[H:11])[H:7]>>[O:1]([C@@:2]([C:4](=[C:3]([H:9])[H:10])[H:11])([C:5]#[N:6])[H:8])[H:7]"
O       -0.52698509       1.38119432      -1.06297623
C       -0.46720506       0.48563991      -0.00461955
C       -0.39268102      -0.99248398      -0.39846678
C        0.93770800      -1.01971640       0.26185867
C        0.79791140       0.81351161       0.82863623
N        1.45851502       1.46765388       1.51886817
H        0.24299761       1.26284623      -1.62785525
H       -1.30302572       0.68007321       0.66425918
H       -1.21061319      -1.57975029       0.01835069
H       -0.36627764      -1.08333805      -1.48335831
H        0.82965564      -1.41563049       1.28530315
11
Frame=1 idx=003056 GeodesicLength=0.1178384407201947 rxn_smarts="[O:1]([C@@:2]1([H:8])[C:3]([H:9])([H:10])[C@:4]1([C:5]#[N:6])[H:11])[H:7]>>[O:1]([C@@:2]([C:4](=[C:3]([H:9])[H:10])[H:11])([C:5]#[N:6])[H:8])[H:7]"
O       -0.54219509       1.36816241      -1.05609408
C       -0.46179786       0.47761114       0.00516440
C       -0.39989373      -1.01178543      -0.41412951
C        0.90345328      -1.00270077       0.28352066
C        0.82468310       0.82700902       0.82862280
N        1.50149562       1.48925818       1.49389361
H        0.23979579       1.28629081      -1.61027993
H       -1.29526252       0.66797460       0.67898503
H       -1.21601017      -1.61255894      -0.01489395
H       -0.34567986      -1.08708885      -1.49858160
H        0.79141145      -1.40217216       1.30379256
11
Frame=2 idx=003056 GeodesicLength=0.23562356537295243 rxn_smarts="[O:1]([C@@:2]1([H:8])[C:3]([H:9])([H:10])[C@:4]1([C:5]#[N:6])[H:11])[H:7]>>[O:1]([C@@:2]([C:4](=[C:3]([H:9])[H:10])[H:11])([C:5]#[N:6])[H:8])[H:7]"
O       -0.55675287       1.35539208      -1.04919177
C       -0.45737782       0.47025108       0.01493174
C       -0.40612923      -1.03075943      -0.42943540
C        0.86826615      -0.98548137       0.30502524
C        0.85118087       0.83954311       0.82844955
N        1.54509810       1.50883210       1.46741719
H        0.23565058       1.31014984      -1.59210584
H       -1.28862801       0.65663656       0.69333107
H       -1.21941088      -1.64588620      -0.04822189
H       -0.32421921      -1.09077765      -1.51253716
H        0.75232232      -1.38790012       1.32233727
11
Frame=3 idx=003056 GeodesicLength=0.353361083298806 rxn_smarts="[O:1]([C@@:2]1([H:8])[C:3]([H:9])([H:10])[C@:4]1([C:5]#[N:6])[H:11])[H:7]>>[O:1]([C@@:2]([C:4](=[C:3]([H:9])[H:10])[H:11])([C:5]#[N:6])[H:8])[H:7]"
O       -0.57055564       1.34292029      -1.04247970
C       -0.45410229       0.46369671       0.02465290
C       -0.41140306      -1.04938802      -0.44422548
C        0.83227799      -0.96792827       0.32610143
C        0.87725783       0.85096568       0.82828971
N        1.58911280       1.52615435       1.43956227
H        0.23086608       1.33440992      -1.57326347
H       -1.28340592       0.64631598       0.70709313
H       -1.22057171      -1.67979284      -0.08122462
H       -0.30222949      -1.09442219      -1.52511246
H        0.71275343      -1.37293160       1.34060630
11
Frame=4 idx=003056 GeodesicLength=0.47105285963098936 rxn_smarts="[O:1]([C@@:2]1([H:8])[C:3]([H:9])([H:10])[C@:4]1([C:5]#[N:6])[H:11])[H:7]>>[O:1]([C@@:2]([C:4](=[C:3]([H:9])[H:10])[H:11])([C:5]#[N:6])[H:8])[H:7]"
O       -0.58353619       1.33077382      -1.03614062
C       -0.45208655       0.45806154       0.03431172
C       -0.41573566      -1.06766404      -0.45837593
C        0.79559534      -0.94994933       0.34654244
C        0.90283946       0.86117058       0.82826471
N        1.63335659       1.54103791       1.41044839
H        0.22565394       1.35908594      -1.55369819
H       -1.27981215       0.63722408       0.72012268
H       -1.21928001      -1.71434280      -0.11356893
H       -0.27998523      -1.09802734      -1.53625357
H        0.67299046      -1.35737035       1.35834730
11
Frame=5 idx=003056 GeodesicLength=0.588706458263684 rxn_smarts="[O:1]([C@@:2]1([H:8])[C:3]([H:9])([H:10])[C@:4]1([C:5]#[N:6])[H:11])[H:7]>>[O:1]([C@@:2]([C:4](=[C:3]([H:9])[H:10])[H:11])([C:5]#[N:6])[H:8])[H:7]"
O       -0.59566813       1.31896827      -1.03032826
C       -0.45141498       0.45343438       0.04390414
C       -0.41914410      -1.08558974      -0.47179679
C        0.75828928      -0.93148647       0.36621314
C        0.92790587       0.87007463       0.82845540
N        1.67770325       1.55332420       1.38013985
H        0.22014188       1.38424043      -1.53334759
H       -1.27800905       0.62951861       0.73232527
H       -1.21534461      -1.74959939      -0.14500702
H       -0.25767908      -1.10158840      -1.54595186
H        0.63321967      -1.34129653       1.37539371
11
Frame=6 idx=003056 GeodesicLength=0.7063222539291774 rxn_smarts="[O:1]([C@@:2]1([H:8])[C:3]([H:9])([H:10])[C@:4]1([C:5]#[N:6])[H:11])[H:7]>>[O:1]([C@@:2]([C:4](=[C:3]([H:9])[H:10])[H:11])([C:5]#[N:6])[H:8])[H:7]"
O       -0.60694504       1.30751353      -1.02516738
C       -0.45213260       0.44988857       0.05342614
C       -0.42164514      -1.10317074      -0.48442316
C        0.72040626      -0.91250677       0.38501953
C        0.95250543       0.87760863       0.82886789
N        1.72201928       1.56286306       1.34873553
H        0.21436466       1.40994600      -1.51217306
H       -1.27808740       0.62332322       0.74364665
H       -1.20858751      -1.78560837      -0.17533843
H       -0.23545541      -1.10509521      -1.55422950
H        0.59355747      -1.32476191       1.39163579
11
Frame=7 idx=003056 GeodesicLength=0.8239000264910744 rxn_smarts="[O:1]([C@@:2]1([H:8])[C:3]([H:9])([H:10])[C@:4]1([C:5]#[N:6])[H:11])[H:7]>>[O:1]([C@@:2]([C:4](=[C:3]([H:9])[H:10])[H:11])([C:5]#[N:6])[H:8])[H:7]"
O       -0.61737692       1.29641398      -1.02075853
C       -0.45425999       0.44748338       0.06287208
C       -0.42325198      -1.12041552      -0.49620923
C        0.68196648      -0.89299537       0.40290450
C        0.97672770       0.88369796       0.82945505
N        1.76618838       1.56951243       1.31633023
H        0.20828608       1.43629992      -1.49013687
H       -1.28009128       0.61872908       0.75406082
H       -1.19883294      -1.82240073      -0.20440317
H       -0.21340777      -1.10853448      -1.56112742
H        0.55405223      -1.30779064       1.40701254
11
Frame=8 idx=003056 GeodesicLength=0.9414253688287995 rxn_smarts="[O:1]([C@@:2]1([H:8])[C:3]([H:9])([H:10])[C@:4]1([C:5]#[N:6])[H:11])[H:7]>>[O:1]([C@@:2]([C:4](=[C:3]([H:9])[H:10])[H:11])([C:5]#[N:6])[H:8])[H:7]"
O       -0.62698311       1.28568517      -1.01720584
C       -0.45778474       0.44627362       0.07221651
C       -0.42399760      -1.13734167      -0.50712115
C        0.64299598      -0.87296043       0.41982211
C        1.00075377       0.88825450       0.83006245
N        1.81005114       1.57316254       1.28317473
H        0.20179680       1.46341250      -1.46726074
H       -1.28400485       0.61581748       0.76355543
H       -1.18593253      -1.86000544      -0.23203055
H       -0.19163593      -1.11189468      -1.56671144
H        0.51474106      -1.29040360       1.42149850
11
Frame=9 idx=003056 GeodesicLength=1.058968842096194 rxn_smarts="[O:1]([C@@:2]1([H:8])[C:3]([H:9])([H:10])[C@:4]1([C:5]#[N:6])[H:11])[H:7]>>[O:1]([C@@:2]([C:4](=[C:3]([H:9])[H:10])[H:11])([C:5]#[N:6])[H:8])[H:7]"
O       -0.63576405       1.27529864      -1.01451822
C       -0.46274664       0.44629191       0.08147637
C       -0.42382207      -1.15394254      -0.51712588
C        0.60339191      -0.85235922       0.43576861
C        1.02452310       0.89117275       0.83074731
N        1.85369281       1.57357344       1.24895978
H        0.19479803       1.49143647      -1.44332152
H       -1.28990001       0.61459233       0.77211680
H       -1.16957888      -1.89838142      -0.25818033
H       -0.17007387      -1.11517858      -1.57097509
H        0.47547967      -1.27250379       1.43505218
11
Frame=10 idx=003056 GeodesicLength=1.1764537280567968 rxn_smarts="[O:1]([C@@:2]1([H:8])[C:3]([H:9])([H:10])[C@:4]1([C:5]#[N:6])[H:11])[H:7]>>[O:1]([C@@:2]([C:4](=[C:3]([H:9])[H:10])[H:11])([C:5]#[N:6])[H:8])[H:7]"
O       -0.64370354       1.26529435      -1.01283072
C       -0.46905329       0.44759757       0.09056236
C       -0.42283003      -1.17025333      -0.52619699
C        0.56324824      -0.83122780       0.45063157
C        1.04840478       0.89230858       0.83109618
N        1.89673890       1.57072988       1.21447417
H        0.18707225       1.52044867      -1.41850305
H       -1.29762257       0.61515827       0.77972342
H       -1.14968637      -1.93752992      -0.28254237
H       -0.14898018      -1.11840405      -1.57404677
H        0.43641181      -1.25412223       1.44763221
11
Frame=11 idx=003056 GeodesicLength=1.2938861430648538 rxn_smarts="[O:1]([C@@:2]1([H:8])[C:3]([H:9])([H:10])[C@:4]1([C:5]#[N:6])[H:11])[H:7]>>[O:1]([C@@:2]([C:4](=[C:3]([H:9])[H:10])[H:11])([C:5]#[N:6])[H:8])[H:7]"
O       -0.65076299       1.25567491      -1.01217509
C       -0.47668686       0.45022534       0.09943645
C       -0.42102920      -1.18628422      -0.53430732
C        0.52252057      -0.80955588       0.46436459
C        1.07247399       0.89149023       0.83095980
N        1.93914428       1.56450335       1.17982121
H        0.17842737       1.55059044      -1.39270056
H       -1.30714856       0.61753491       0.78634016
H       -1.12598989      -1.97740200      -0.30496045
H       -0.12841777      -1.12158579      -1.57598017
H        0.39746907      -1.23519130       1.45920139
11
Frame=12 idx=003056 GeodesicLength=1.4112608712669552 rxn_smarts="[O:1]([C@@:2]1([H:8])[C:3]([H:9])([H:10])[C@:4]1([C:5]#[N:6])[H:11])[H:7]>>[O:1]([C@@:2]([C:4](=[C:3]([H:9])[H:10])[H:11])([C:5]#[N:6])[H:8])[H:7]"
O       -0.65687757       1.24646444      -1.01259648
C       -0.48560624       0.45421187       0.10803411
C       -0.41846082      -1.20205496      -0.54142786
C        0.48119692      -0.78734104       0.47688664
C        1.09686059       0.88851197       0.83010163
N        1.98080706       1.55481708       1.14531194
H        0.16863296       1.58198379      -1.36586454
H       -1.31841917       0.62174587       0.79191896
H       -1.09823709      -2.01793467      -0.32521425
H       -0.10853136      -1.12475220      -1.57685447
H        0.35863472      -1.21565214       1.46970432
11
Frame=13 idx=003056 GeodesicLength=1.5285555756859168 rxn_smarts="[O:1]([C@@:2]1([H:8])[C:3]([H:9])([H:10])[C@:4]1([C:5]#[N:6])[H:11])[H:7]>>[O:1]([C@@:2]([C:4](=[C:3]([H:9])[H:10])[H:11])([C:5]#[N:6])[H:8])[H:7]"
O       -0.66194558       1.23769128      -1.01412769
C       -0.49575115       0.45958872       0.11627331
C       -0.41518001      -1.21759268      -0.54752716
C        0.43928566      -0.76458378       0.48808538
C        1.12168946       0.88312350       0.82822124
N        2.02159489       1.54162782       1.11136258
H        0.15742461       1.61473708      -1.33794061
H       -1.33134718       0.62781030       0.79639377
H       -1.06617197      -2.05901648      -0.34303540
H       -0.08951914      -1.12795212      -1.57676539
H        0.31992041      -1.19543364       1.47905995
11
Frame=14 idx=003056 GeodesicLength=1.6457932259288264 rxn_smarts="[O:1]([C@@:2]1([H:8])[C:3]([H:9])([H:10])[C@:4]1([C:5]#[N:6])[H:11])[H:7]>>[O:1]([C@@:2]([C:4](=[C:3]([H:9])[H:10])[H:11])([C:5]#[N:6])[H:8])[H:7]"
O       -0.66584103       1.22945347      -1.01675631
C       -0.50711897       0.46638847       0.12409691
C       -0.41122147      -1.23290635      -0.55257089
C        0.39675274      -0.74126411       0.49789659
C        1.14694390       0.87511360       0.82521124
N        2.06158360       1.52481526       1.07806419
H        0.14455583       1.64892433      -1.30882897
H       -1.34596022       0.63568407       0.79968183
H       -1.02940275      -2.10055348      -0.35822073
H       -0.07154543      -1.13118582      -1.57580269
H        0.28125378      -1.17446944       1.48722884
11
Frame=15 idx=003056 GeodesicLength=1.7629542292467413 rxn_smarts="[O:1]([C@@:2]1([H:8])[C:3]([H:9])([H:10])[C@:4]1([C:5]#[N:6])[H:11])[H:7]>>[O:1]([C@@:2]([C:4](=[C:3]([H:9])[H:10])[H:11])([C:5]#[N:6])[H:8])[H:7]"
O       -0.66838201       1.22182185      -1.02047588
C       -0.51961138       0.47462566       0.13139883
C       -0.40667508      -1.24804031      -0.55652246
C        0.35367446      -0.71738833       0.50612957
C        1.17273166       0.86417367       0.82068340
N        2.10057008       1.50443484       1.04607302
H        0.12973781       1.68454893      -1.27852427
H       -1.36212750       0.64534287       0.80169868
H       -0.98767613      -2.14229960      -0.37040365
H       -0.05498411      -1.13453851      -1.57411932
H        0.24274221      -1.15268106       1.49406208
11
Frame=16 idx=003056 GeodesicLength=1.880050307575208 rxn_smarts="[O:1]([C@@:2]1([H:8])[C:3]([H:9])([H:10])[C@:4]1([C:5]#[N:6])[H:11])[H:7]>>[O:1]([C@@:2]([C:4](=[C:3]([H:9])[H:10])[H:11])([C:5]#[N:6])[H:8])[H:7]"
O       -0.66939980       1.21501190      -1.02514694
C       -0.53322282       0.48432944       0.13813903
C       -0.40160111      -1.26297639      -0.55933875
C        0.31007163      -0.69292345       0.51267329
C        1.19892483       0.85009412       0.81456005
N        2.13860668       1.48036878       1.01554769
H        0.11278572       1.72140285      -1.24706327
H       -1.37988057       0.65667447       0.80236573
H       -0.94048615      -2.18401689      -0.37935100
H       -0.04017576      -1.13796609      -1.57185206
H        0.20437735      -1.12999874       1.49946624
