13
Frame=0 idx=007907 GeodesicLength=0.0 rxn_smarts="[C:1]([O:2]/[C:3](=[N:4]\[H:11])[N:5]([C:6](=[O:7])[H:13])[H:12])([H:8])([H:9])[H:10]>>[C:1]([O:2][C:3](=[N:4]\[H:11])/[N:5]=[C:6](/[O:7][H:12])[H:13])([H:8])([H:9])[H:10]"
C       -1.86603698       0.01987473      -1.29694061
O       -1.19791167      -0.03353585      -0.05206367
C        0.14487588       0.00990916      -0.07380281
N        0.92820855       0.09201985      -1.06420550
N        0.61284716      -0.05090705       1.22874102
C        1.86373510      -0.04124318       1.61251646
O        1.88010237      -0.10993917       2.87820155
H       -2.92775337      -0.03031426      -1.06971680
H       -1.59240294      -0.82830971      -1.93049539
H       -1.65266478       0.95553609      -1.82106176
H        0.44669165       0.12690454      -1.95352605
H        0.61302071      -0.12366472       2.55922777
H        2.74728831       0.01366954       0.98312581
13
Frame=1 idx=007907 GeodesicLength=0.03127057138207951 rxn_smarts="[C:1]([O:2]/[C:3](=[N:4]\[H:11])[N:5]([C:6](=[O:7])[H:13])[H:12])([H:8])([H:9])[H:10]>>[C:1]([O:2][C:3](=[N:4]\[H:11])/[N:5]=[C:6](/[O:7][H:12])[H:13])([H:8])([H:9])[H:10]"
C       -1.86447341       0.01914588      -1.29679167
O       -1.19718855      -0.04048004      -0.05167135
C        0.14579819       0.00340013      -0.07251777
N        0.92969530       0.09067182      -1.06191661
N        0.61043305      -0.02986751       1.23226516
C        1.86444452      -0.06784280       1.60852897
O        1.88365981      -0.10400117       2.87587957
H       -2.92638363      -0.03202490      -1.07070031
H       -1.59055137      -0.82586529      -1.93445799
H       -1.65062817       0.95733233      -1.81619723
H        0.44862988       0.12948610      -1.95131221
H        0.60632389      -0.12008098       2.56693742
H        2.74024050       0.02012642       0.97195402
13
Frame=2 idx=007907 GeodesicLength=0.06260178033824243 rxn_smarts="[C:1]([O:2]/[C:3](=[N:4]\[H:11])[N:5]([C:6](=[O:7])[H:13])[H:12])([H:8])([H:9])[H:10]>>[C:1]([O:2][C:3](=[N:4]\[H:11])/[N:5]=[C:6](/[O:7][H:12])[H:13])([H:8])([H:9])[H:10]"
C       -1.86284087       0.01783291      -1.29645768
O       -1.19628991      -0.04411060      -0.05099188
C        0.14684326       0.00148373      -0.07112116
N        0.93119838       0.09189805      -1.05975728
N        0.60881507      -0.01375021       1.23503758
C        1.86463462      -0.08802283       1.60479652
O        1.88707734      -0.10518931       2.87292342
H       -2.92488511      -0.03473598      -1.07133395
H       -1.58784675      -0.82539252      -1.93601647
H       -1.64944624       0.95736231      -1.81360392
H        0.45050290       0.13196501      -1.94928429
H        0.59931257      -0.11288364       2.57438717
H        2.73292474       0.02354309       0.96142193
13
Frame=3 idx=007907 GeodesicLength=0.09399105324532618 rxn_smarts="[C:1]([O:2]/[C:3](=[N:4]\[H:11])[N:5]([C:6](=[O:7])[H:13])[H:12])([H:8])([H:9])[H:10]>>[C:1]([O:2][C:3](=[N:4]\[H:11])/[N:5]=[C:6](/[O:7][H:12])[H:13])([H:8])([H:9])[H:10]"
C       -1.86117245       0.01590700      -1.29604318
O       -1.19532012      -0.04541591      -0.05010764
C        0.14790915       0.00311338      -0.06962143
N        0.93267753       0.09541911      -1.05764560
N        0.60761102       0.00119865       1.23751236
C        1.86448373      -0.10504381       1.60110218
O        1.89033302      -0.11057870       2.86971262
H       -2.92330527      -0.03861372      -1.07180453
H       -1.58433679      -0.82647044      -1.93592134
H       -1.64907393       0.95600598      -1.81268354
H        0.45231991       0.13475423      -1.94737491
H        0.59219842      -0.10393526       2.58173855
H        2.72567578       0.02365950       0.95113645
13
Frame=4 idx=007907 GeodesicLength=0.12552071629799982 rxn_smarts="[C:1]([O:2]/[C:3](=[N:4]\[H:11])[N:5]([C:6](=[O:7])[H:13])[H:12])([H:8])([H:9])[H:10]>>[C:1]([O:2][C:3](=[N:4]\[H:11])/[N:5]=[C:6](/[O:7][H:12])[H:13])([H:8])([H:9])[H:10]"
C       -1.85947176       0.01354677      -1.29557737
O       -1.19424776      -0.04638438      -0.04917261
C        0.14902443       0.00608713      -0.06813832
N        0.93413269       0.10050054      -1.05557401
N        0.60668728       0.01494567       1.23977592
C        1.86401443      -0.12063151       1.59744382
O        1.89340001      -0.11704596       2.86643597
H       -2.92164092      -0.04366845      -1.07219954
H       -1.58018857      -0.82790642      -1.93559411
H       -1.64938323       0.95424892      -1.81192450
H        0.45405486       0.13871276      -1.94549078
H        0.58503652      -0.09262269       2.58914786
H        2.71858201       0.02021763       0.94086766
13
Frame=5 idx=007907 GeodesicLength=0.15683242543811443 rxn_smarts="[C:1]([O:2]/[C:3](=[N:4]\[H:11])[N:5]([C:6](=[O:7])[H:13])[H:12])([H:8])([H:9])[H:10]>>[C:1]([O:2][C:3](=[N:4]\[H:11])/[N:5]=[C:6](/[O:7][H:12])[H:13])([H:8])([H:9])[H:10]"
C       -1.85773293       0.01079323      -1.29505087
O       -1.19308802      -0.04673747      -0.04814967
C        0.15017529       0.01051701      -0.06665983
N        0.93557352       0.10697837      -1.05355221
N        0.60604159       0.02824945       1.24187640
C        1.86325102      -0.13546781       1.59377818
O        1.89611802      -0.12461015       2.86308510
H       -2.91989190      -0.04970297      -1.07249644
H       -1.57548187      -0.82984451      -1.93483328
H       -1.65026191       0.95199351      -1.81154556
H        0.45573000       0.14348708      -1.94366030
H        0.57801386      -0.07975122       2.59656825
H        2.71155333       0.01409549       0.93064023
13
Frame=6 idx=007907 GeodesicLength=0.18827158623175688 rxn_smarts="[C:1]([O:2]/[C:3](=[N:4]\[H:11])[N:5]([C:6](=[O:7])[H:13])[H:12])([H:8])([H:9])[H:10]>>[C:1]([O:2][C:3](=[N:4]\[H:11])/[N:5]=[C:6](/[O:7][H:12])[H:13])([H:8])([H:9])[H:10]"
C       -1.85590504       0.00739862      -1.29447596
O       -1.19185098      -0.04603235      -0.04700396
C        0.15131039       0.01729696      -0.06512931
N        0.93696721       0.11569247      -1.05150855
N        0.60566773       0.04166183       1.24392061
C        1.86204461      -0.15061179       1.59000230
O        1.89858669      -0.13383258       2.85961489
H       -2.91798219      -0.05727162      -1.07273627
H       -1.56982896      -0.83264013      -1.93333869
H       -1.65197581       0.94886596      -1.81188528
H        0.45735172       0.14945995      -1.94184097
H        0.57118164      -0.06447602       2.60410918
H        2.70443299       0.00448870       0.92027201
13
Frame=7 idx=007907 GeodesicLength=0.21978493763487117 rxn_smarts="[C:1]([O:2]/[C:3](=[N:4]\[H:11])[N:5]([C:6](=[O:7])[H:13])[H:12])([H:8])([H:9])[H:10]>>[C:1]([O:2][C:3](=[N:4]\[H:11])/[N:5]=[C:6](/[O:7][H:12])[H:13])([H:8])([H:9])[H:10]"
C       -1.85394213       0.00306495      -1.29384897
O       -1.19056197      -0.04318226      -0.04565513
C        0.15237709       0.02798544      -0.06347182
N        0.93829821       0.12772486      -1.04938496
N        0.60561019       0.05594029       1.24598813
C        1.86016854      -0.16689000       1.58599816
O        1.90073778      -0.14596497       2.85590220
H       -2.91585187      -0.06692972      -1.07292144
H       -1.56279099      -0.83702225      -1.93034956
H       -1.65483691       0.94419028      -1.81375368
H        0.45894907       0.15675648      -1.94002374
H        0.56479548      -0.04638636       2.61182382
H        2.69704752      -0.00928674       0.90969699
13
Frame=8 idx=007907 GeodesicLength=0.2514821200953702 rxn_smarts="[C:1]([O:2]/[C:3](=[N:4]\[H:11])[N:5]([C:6](=[O:7])[H:13])[H:12])([H:8])([H:9])[H:10]>>[C:1]([O:2][C:3](=[N:4]\[H:11])/[N:5]=[C:6](/[O:7][H:12])[H:13])([H:8])([H:9])[H:10]"
C       -1.85166873      -0.00302607      -1.29314686
O       -1.18929242      -0.03638461      -0.04393149
C        0.15318594       0.04604593      -0.06145388
N        0.93946842       0.14598541      -1.04696457
N        0.60596784       0.07248716       1.24823428
C        1.85705878      -0.18592940       1.58153835
O        1.90246225      -0.16207969       2.85162932
H       -2.91325766      -0.08055390      -1.07308589
H       -1.55298790      -0.84429816      -1.92461045
H       -1.65975714       0.93663610      -1.81842908
H        0.46057633       0.16672410      -1.93807808
H        0.55926090      -0.02413885       2.61988469
H        2.68898339      -0.03146801       0.89841364
13
Frame=9 idx=007907 GeodesicLength=0.28308187941284 rxn_smarts="[C:1]([O:2]/[C:3](=[N:4]\[H:11])[N:5]([C:6](=[O:7])[H:13])[H:12])([H:8])([H:9])[H:10]>>[C:1]([O:2][C:3](=[N:4]\[H:11])/[N:5]=[C:6](/[O:7][H:12])[H:13])([H:8])([H:9])[H:10]"
C       -1.84950392      -0.00733894      -1.29234693
O       -1.18787459      -0.03328633      -0.04247394
C        0.15423731       0.05697297      -0.05985335
N        0.94075459       0.15771849      -1.04495788
N        0.60627615       0.08562129       1.25013010
C        1.85444577      -0.20118660       1.57725356
O        1.90371840      -0.17575081       2.84762642
H       -2.91082222      -0.09012197      -1.07301455
H       -1.54582498      -0.84869097      -1.92129564
H       -1.66238404       0.93176457      -1.82032066
H        0.46213988       0.17384785      -1.93631718
H        0.55373596      -0.00510118       2.62758415
H        2.68110169      -0.04444836       0.88798591
13
Frame=10 idx=007907 GeodesicLength=0.3146423566253319 rxn_smarts="[C:1]([O:2]/[C:3](=[N:4]\[H:11])[N:5]([C:6](=[O:7])[H:13])[H:12])([H:8])([H:9])[H:10]>>[C:1]([O:2][C:3](=[N:4]\[H:11])/[N:5]=[C:6](/[O:7][H:12])[H:13])([H:8])([H:9])[H:10]"
C       -1.84742957      -0.01086787      -1.29150054
O       -1.18637262      -0.03223870      -0.04116135
C        0.15544802       0.06447701      -0.05848291
N        0.94215343       0.16648534      -1.04317791
N        0.60663304       0.09688606       1.25179329
C        1.85205308      -0.21458857       1.57309263
O        1.90463096      -0.18795379       2.84376845
H       -2.90852615      -0.09802824      -1.07283472
H       -1.53983786      -0.85160863      -1.91934231
H       -1.66409425       0.92829861      -1.82066424
H        0.46368620       0.18002908      -1.93465353
H        0.54832332       0.01297518       2.63511909
H        2.67333239      -0.05386549       0.87804405
13
Frame=11 idx=007907 GeodesicLength=0.3462175274622576 rxn_smarts="[C:1]([O:2]/[C:3](=[N:4]\[H:11])[N:5]([C:6](=[O:7])[H:13])[H:12])([H:8])([H:9])[H:10]>>[C:1]([O:2][C:3](=[N:4]\[H:11])/[N:5]=[C:6](/[O:7][H:12])[H:13])([H:8])([H:9])[H:10]"
C       -1.84537357      -0.01414128      -1.29062370
O       -1.18483631      -0.03185122      -0.03987678
C        0.15669792       0.07090237      -0.05719870
N        0.94357848       0.17426737      -1.04149404
N        0.60706170       0.10717549       1.25334603
C        1.84966636      -0.22722945       1.56892792
O        1.90521129      -0.19993843       2.83992650
H       -2.90625215      -0.10541093      -1.07259636
H       -1.53422221      -0.85403821      -1.91782853
H       -1.66550496       0.92529126      -1.82049189
H        0.46521196       0.18591666      -1.93304367
H        0.54317055       0.03107435       2.64260318
H        2.66559092      -0.06201799       0.86835006
13
Frame=12 idx=007907 GeodesicLength=0.37782532968804183 rxn_smarts="[C:1]([O:2]/[C:3](=[N:4]\[H:11])[N:5]([C:6](=[O:7])[H:13])[H:12])([H:8])([H:9])[H:10]>>[C:1]([O:2][C:3](=[N:4]\[H:11])/[N:5]=[C:6](/[O:7][H:12])[H:13])([H:8])([H:9])[H:10]"
C       -1.84326258      -0.01753115      -1.28970343
O       -1.18329050      -0.03090924      -0.03852502
C        0.15791389       0.07807126      -0.05589718
N        0.94498008       0.18249737      -1.03981711
N        0.60760133       0.11720549       1.25488263
C        1.84706505      -0.23984269       1.56461279
O        1.90537400      -0.21283278       2.83596123
H       -2.90389526      -0.11300858      -1.07229815
H       -1.52839572      -0.85679029      -1.91590130
H       -1.66701296       0.92195629      -1.82068475
H        0.46673425       0.19181633      -1.93145438
H        0.53843488       0.04965657       2.65010597
H        2.65775355      -0.07028858       0.85871869
13
Frame=13 idx=007907 GeodesicLength=0.40951028741086337 rxn_smarts="[C:1]([O:2]/[C:3](=[N:4]\[H:11])[N:5]([C:6](=[O:7])[H:13])[H:12])([H:8])([H:9])[H:10]>>[C:1]([O:2][C:3](=[N:4]\[H:11])/[N:5]=[C:6](/[O:7][H:12])[H:13])([H:8])([H:9])[H:10]"
C       -1.84099426      -0.02140103      -1.28870247
O       -1.18177862      -0.02793671      -0.03698825
C        0.15900569       0.08797826      -0.05445905
N        0.94630510       0.19266559      -1.03804919
N        0.60830860       0.12770636       1.25650963
C        1.84395745      -0.25312299       1.55992840
O        1.90496244      -0.22793018       2.83165820
H       -2.90132257      -0.12149005      -1.07190379
H       -1.52174311      -0.86078927      -1.91250163
H       -1.66894999       0.91738990      -1.82228888
H        0.46830282       0.19785993      -1.92984849
H        0.53431520       0.06890190       2.65771518
H        2.64963126      -0.07983169       0.84893033
13
Frame=14 idx=007907 GeodesicLength=0.44134619425916605 rxn_smarts="[C:1]([O:2]/[C:3](=[N:4]\[H:11])[N:5]([C:6](=[O:7])[H:13])[H:12])([H:8])([H:9])[H:10]>>[C:1]([O:2][C:3](=[N:4]\[H:11])/[N:5]=[C:6](/[O:7][H:12])[H:13])([H:8])([H:9])[H:10]"
C       -1.83843089      -0.02611423      -1.28755587
O       -1.18032965      -0.02168400      -0.03516771
C        0.15988937       0.10239969      -0.05278572
N        0.94750610       0.20617818      -1.03610455
N        0.60924503       0.13936548       1.25831091
C        1.83994794      -0.26777227       1.55462821
O        1.90371023      -0.24641976       2.82676936
H       -2.89835618      -0.13158320      -1.07134301
H       -1.51360812      -0.86681227      -1.90669488
H       -1.67160970       0.91076697      -1.82613519
H        0.46998170       0.20433079      -1.92816697
H        0.53110945       0.08925192       2.66553349
H        2.64094472      -0.09190728       0.83871192
13
Frame=15 idx=007907 GeodesicLength=0.4733421986267829 rxn_smarts="[C:1]([O:2]/[C:3](=[N:4]\[H:11])[N:5]([C:6](=[O:7])[H:13])[H:12])([H:8])([H:9])[H:10]>>[C:1]([O:2][C:3](=[N:4]\[H:11])/[N:5]=[C:6](/[O:7][H:12])[H:13])([H:8])([H:9])[H:10]"
C       -1.83543304      -0.03183895      -1.28618294
O       -1.17895920      -0.01158792      -0.03301965
C        0.16051205       0.12205050      -0.05080867
N        0.94854034       0.22369634      -1.03390347
N        0.61043593       0.15249577       1.26031436
C        1.83470236      -0.28410062       1.54850818
O        1.90133180      -0.26874413       2.82106975
H       -2.89482113      -0.14362267      -1.07053405
H       -1.50359632      -0.87515782      -1.89799007
H       -1.67501883       0.90166211      -1.83251712
H        0.47183260       0.21140408      -1.92631354
H        0.52906975       0.11087650       2.67356601
H        2.63140368      -0.10713320       0.82781121
13
Frame=16 idx=007907 GeodesicLength=0.5055181376895533 rxn_smarts="[C:1]([O:2]/[C:3](=[N:4]\[H:11])[N:5]([C:6](=[O:7])[H:13])[H:12])([H:8])([H:9])[H:10]>>[C:1]([O:2][C:3](=[N:4]\[H:11])/[N:5]=[C:6](/[O:7][H:12])[H:13])([H:8])([H:9])[H:10]"
C       -1.83207733      -0.03805332      -1.28458179
O       -1.17763387       0.00054695      -0.03071225
C        0.16098449       0.14419441      -0.04868074
N        0.94946933       0.24323898      -1.03156762
N        0.61177944       0.16613463       1.26237295
C        1.82852005      -0.30113694       1.54174808
O        1.89786680      -0.29310358       2.81471981
H       -2.89083511      -0.15657553      -1.06945815
H       -1.49249557      -0.88460556      -1.88760551
H       -1.67857689       0.89118472      -1.84008990
H        0.47384790       0.21869607      -1.92429614
H        0.52800266       0.13312962       2.68171773
H        2.62114810      -0.12365046       0.81643352
