14
Frame=0 idx=009491 GeodesicLength=0.0 rxn_smarts="[C:1]([N:2]([c:3]1[n:4][n:5]([H:12])[c:6]([H:13])[c:7]1[H:14])[H:11])([H:8])([H:9])[H:10]>>[C:1]([N:2]([C:3]#[N+:4][N-:5][H:12])[H:11])([H:8])([H:9])[H:10].[C:6](#[C:7][H:14])[H:13]"
C        2.29575868       0.29293570       0.21270743
N        1.15908629       0.47253622      -0.66427305
C       -0.08210609       0.55473266      -0.21908189
N       -1.11991971       0.96422843      -0.78252987
N       -2.24674608       0.43370628      -0.97947645
C       -2.09968498      -1.18987868       0.72107493
C       -0.92440301      -1.13350793       1.02511252
H        1.97428542       0.47903712       1.23555810
H        2.70255275      -0.71978549       0.14599303
H        3.08592200       1.00486197      -0.03272590
H        1.32698060       0.42468580      -1.65781491
H       -2.92918797       1.18925404      -1.08268748
H       -3.13129037      -1.39157487       0.56269656
H       -0.01124752      -1.38123131       1.51544696
14
Frame=1 idx=009491 GeodesicLength=0.056886196621322056 rxn_smarts="[C:1]([N:2]([c:3]1[n:4][n:5]([H:12])[c:6]([H:13])[c:7]1[H:14])[H:11])([H:8])([H:9])[H:10]>>[C:1]([N:2]([C:3]#[N+:4][N-:5][H:12])[H:11])([H:8])([H:9])[H:10].[C:6](#[C:7][H:14])[H:13]"
C        2.29978596       0.30642654       0.21269079
N        1.15623134       0.44979039      -0.66051576
C       -0.08298083       0.55221773      -0.20928560
N       -1.11606433       0.97260956      -0.77669778
N       -2.24923516       0.44405637      -0.95591194
C       -2.09355924      -1.19577200       0.68128621
C       -0.91924609      -1.15262451       1.00666285
H        1.98494116       0.49328627       1.23760409
H        2.73038451      -0.69688132       0.15543042
H        3.07251654       1.03381711      -0.04412259
H        1.31115709       0.36943830      -1.65390447
H       -2.93039357       1.19532264      -1.08604447
H       -3.13893775      -1.35660018       0.56946938
H       -0.02459963      -1.41508691       1.52333888
14
Frame=2 idx=009491 GeodesicLength=0.11369784137500723 rxn_smarts="[C:1]([N:2]([c:3]1[n:4][n:5]([H:12])[c:6]([H:13])[c:7]1[H:14])[H:11])([H:8])([H:9])[H:10]>>[C:1]([N:2]([C:3]#[N+:4][N-:5][H:12])[H:11])([H:8])([H:9])[H:10].[C:6](#[C:7][H:14])[H:13]"
C        2.30331028       0.31958080       0.21281620
N        1.15349191       0.42852417      -0.65566252
C       -0.08404007       0.54967914      -0.19970618
N       -1.11212220       0.97984185      -0.77219874
N       -2.25137133       0.45316762      -0.93325967
C       -2.08889754      -1.19742684       0.64620041
C       -0.91440318      -1.17081538       0.98853519
H        1.99524249       0.50555913       1.24009850
H        2.75750494      -0.67355630       0.16263864
H        3.05821167       1.06239780      -0.05408360
H        1.29615455       0.31782139      -1.64781100
H       -2.93115788       1.19848287      -1.09371250
H       -3.14399554      -1.31973657       0.58024023
H       -0.03792809      -1.45351966       1.52590505
14
Frame=3 idx=009491 GeodesicLength=0.1697578946463264 rxn_smarts="[C:1]([N:2]([c:3]1[n:4][n:5]([H:12])[c:6]([H:13])[c:7]1[H:14])[H:11])([H:8])([H:9])[H:10]>>[C:1]([N:2]([C:3]#[N+:4][N-:5][H:12])[H:11])([H:8])([H:9])[H:10].[C:6](#[C:7][H:14])[H:13]"
C        2.30633455       0.33148322       0.21265690
N        1.15076892       0.40970952      -0.65000858
C       -0.08526591       0.54749186      -0.19002756
N       -1.10838211       0.98667225      -0.76785562
N       -2.25298243       0.46113736      -0.91132760
C       -2.08486517      -1.19587697       0.61532616
C       -0.90927874      -1.18926788       0.96922341
H        2.00574242       0.51509074       1.24270648
H        2.78256944      -0.65135860       0.16668085
H        3.04398535       1.08886280      -0.06275903
H        1.28169410       0.27268270      -1.64031189
H       -2.93161488       1.19800505      -1.10615189
H       -3.14599920      -1.28284843       0.59352016
H       -0.05270634      -1.49178362       1.52832820
14
Frame=4 idx=009491 GeodesicLength=0.22534607300634393 rxn_smarts="[C:1]([N:2]([c:3]1[n:4][n:5]([H:12])[c:6]([H:13])[c:7]1[H:14])[H:11])([H:8])([H:9])[H:10]>>[C:1]([N:2]([C:3]#[N+:4][N-:5][H:12])[H:11])([H:8])([H:9])[H:10].[C:6](#[C:7][H:14])[H:13]"
C        2.30872900       0.34272796       0.21288549
N        1.14819051       0.39286211      -0.64374307
C       -0.08675597       0.54545116      -0.18075834
N       -1.10486315       0.99264068      -0.76459862
N       -2.25444846       0.46798372      -0.89028501
C       -2.08166997      -1.19133650       0.58859668
C       -0.90393053      -1.20742468       0.94932246
H        2.01567541       0.52272258       1.24588732
H        2.80604825      -0.62960890       0.16906541
H        3.02947335       1.11419490      -0.06943007
H        1.26827705       0.23249549      -1.63175088
H       -2.93174935       1.19363784      -1.12326088
H       -3.14579505      -1.24309198       0.61199838
H       -0.06718107      -1.53325440       1.52607113
14
Frame=5 idx=009491 GeodesicLength=0.2807675406650222 rxn_smarts="[C:1]([N:2]([c:3]1[n:4][n:5]([H:12])[c:6]([H:13])[c:7]1[H:14])[H:11])([H:8])([H:9])[H:10]>>[C:1]([N:2]([C:3]#[N+:4][N-:5][H:12])[H:11])([H:8])([H:9])[H:10].[C:6](#[C:7][H:14])[H:13]"
C        2.31079835       0.35304914       0.21288810
N        1.14562749       0.37749444      -0.63711430
C       -0.08831848       0.54382244      -0.17144699
N       -1.10143470       0.99862542      -0.76139588
N       -2.25584884       0.47504489      -0.86910109
C       -2.07867669      -1.18538068       0.56387027
C       -0.89848179      -1.22475435       0.92950488
H        2.02589341       0.52903834       1.24900217
H        2.82784431      -0.60885945       0.16973683
H        3.01518352       1.13771308      -0.07557017
H        1.25514720       0.19591538      -1.62251314
H       -2.93156677       1.18664605      -1.14250579
H       -3.14282038      -1.20473083       0.63076429
H       -0.08334661      -1.57362388       1.52388083
14
Frame=6 idx=009491 GeodesicLength=0.336107292638282 rxn_smarts="[C:1]([N:2]([c:3]1[n:4][n:5]([H:12])[c:6]([H:13])[c:7]1[H:14])[H:11])([H:8])([H:9])[H:10]>>[C:1]([N:2]([C:3]#[N+:4][N-:5][H:12])[H:11])([H:8])([H:9])[H:10].[C:6](#[C:7][H:14])[H:13]"
C        2.31261716       0.36277246       0.21278080
N        1.14310531       0.36314808      -0.63016824
C       -0.08993100       0.54253871      -0.16215992
N       -1.09799213       1.00457481      -0.75845284
N       -2.25730822       0.48273097      -0.84746756
C       -2.07601166      -1.17791386       0.54116449
C       -0.89318192      -1.24089672       0.91021846
H        2.03632738       0.53452224       1.25208975
H        2.84844035      -0.58867764       0.16919976
H        3.00093021       1.15999804      -0.08126425
H        1.24228772       0.16166483      -1.61263078
H       -2.93090701       1.17716440      -1.16355363
H       -3.13766862      -1.16758623       0.64968604
H       -0.10070754      -1.61404009       1.52055791
14
Frame=7 idx=009491 GeodesicLength=0.39066983581725884 rxn_smarts="[C:1]([N:2]([c:3]1[n:4][n:5]([H:12])[c:6]([H:13])[c:7]1[H:14])[H:11])([H:8])([H:9])[H:10]>>[C:1]([N:2]([C:3]#[N+:4][N-:5][H:12])[H:11])([H:8])([H:9])[H:10].[C:6](#[C:7][H:14])[H:13]"
C        2.31350000       0.37261296       0.21399829
N        1.14070765       0.35035758      -0.62267497
C       -0.09199145       0.54153315      -0.15365433
N       -1.09481297       1.00942887      -0.75750734
N       -2.25899251       0.48973140      -0.82657403
C       -2.07464602      -1.16624434       0.52455296
C       -0.88800993      -1.25635005       0.89026250
H        2.04520235       0.53926599       1.25637919
H        2.86764460      -0.56811154       0.16906911
H        2.98597417       1.18222826      -0.08406807
H        1.23068045       0.12989173      -1.60178353
H       -2.92946099       1.16193971      -1.19081257
H       -3.13079951      -1.12359455       0.67765201
H       -0.11499584      -1.66268917       1.50516078
14
Frame=8 idx=009491 GeodesicLength=0.44530410113148927 rxn_smarts="[C:1]([N:2]([c:3]1[n:4][n:5]([H:12])[c:6]([H:13])[c:7]1[H:14])[H:11])([H:8])([H:9])[H:10]>>[C:1]([N:2]([C:3]#[N+:4][N-:5][H:12])[H:11])([H:8])([H:9])[H:10].[C:6](#[C:7][H:14])[H:13]"
C        2.31449477       0.38148361       0.21441760
N        1.13813312       0.33809871      -0.61499664
C       -0.09389375       0.54157789      -0.14460745
N       -1.09149688       1.01537303      -0.75579248
N       -2.26096182       0.49933004      -0.80342408
C       -2.07262381      -1.15500566       0.50696807
C       -0.88337954      -1.26884219       0.87273550
H        2.05533075       0.54404829       1.25989945
H        2.88537811      -0.54897820       0.16778484
H        2.97185593       1.20217039      -0.08828314
H        1.21837554       0.09918627      -1.59045398
H       -2.92749266       1.14505148      -1.21715421
H       -3.12173272      -1.08621319       0.69966840
H       -0.13198703      -1.70728048       1.49323811
14
Frame=9 idx=009491 GeodesicLength=0.49993329091813293 rxn_smarts="[C:1]([N:2]([c:3]1[n:4][n:5]([H:12])[c:6]([H:13])[c:7]1[H:14])[H:11])([H:8])([H:9])[H:10]>>[C:1]([N:2]([C:3]#[N+:4][N-:5][H:12])[H:11])([H:8])([H:9])[H:10].[C:6](#[C:7][H:14])[H:13]"
C        2.31597597       0.38998264       0.21389103
N        1.13569957       0.32533305      -0.60716821
C       -0.09541758       0.54171361      -0.13522866
N       -1.08755123       1.02176747      -0.75372393
N       -2.26322480       0.51238117      -0.77746701
C       -2.07028315      -1.14470856       0.48725015
C       -0.87957361      -1.27991180       0.85655934
H        2.06690264       0.54947658       1.26247481
H        2.90308829      -0.53014908       0.16547033
H        2.95804018       1.22109555      -0.09441010
H        1.20579341       0.06795163      -1.57855794
H       -2.92474461       1.12771901      -1.24041705
H       -3.11168734      -1.05558070       0.71521234
H       -0.15301773      -1.74707057       1.48611491
14
Frame=10 idx=009491 GeodesicLength=0.5545940791502494 rxn_smarts="[C:1]([N:2]([c:3]1[n:4][n:5]([H:12])[c:6]([H:13])[c:7]1[H:14])[H:11])([H:8])([H:9])[H:10]>>[C:1]([N:2]([C:3]#[N+:4][N-:5][H:12])[H:11])([H:8])([H:9])[H:10].[C:6](#[C:7][H:14])[H:13]"
C        2.31717376       0.39809861       0.21349727
N        1.13299122       0.31393770      -0.59872824
C       -0.09697475       0.54355780      -0.12526784
N       -1.08367431       1.02921134      -0.75134044
N       -2.26577146       0.52805615      -0.74885987
C       -2.06823074      -1.13182100       0.47006794
C       -0.87628798      -1.28759370       0.84268488
H        2.07883994       0.55519753       1.26508420
H        2.91897654      -0.51225747       0.16294599
H        2.94485328       1.23846124      -0.10050958
H        1.19256158       0.03751493      -1.56541324
H       -2.92037656       1.10351644      -1.26804685
H       -3.10111351      -1.02555666       0.73114527
H       -0.17296700      -1.79032293       1.47274053
14
Frame=11 idx=009491 GeodesicLength=0.6094596887562025 rxn_smarts="[C:1]([N:2]([c:3]1[n:4][n:5]([H:12])[c:6]([H:13])[c:7]1[H:14])[H:11])([H:8])([H:9])[H:10]>>[C:1]([N:2]([C:3]#[N+:4][N-:5][H:12])[H:11])([H:8])([H:9])[H:10].[C:6](#[C:7][H:14])[H:13]"
C        2.31965962       0.40592692       0.21115259
N        1.13043179       0.30127838      -0.58989769
C       -0.09768042       0.54542015      -0.11398564
N       -1.07871829       1.03779679      -0.74699116
N       -2.26777346       0.54786766      -0.71739504
C       -2.06527212      -1.12141114       0.44731454
C       -0.87414993      -1.29404233       0.83070249
H        2.09394671       0.56178453       1.26588319
H        2.93606167      -0.49435330       0.15796401
H        2.93206455       1.25510962      -0.11035814
H        1.17812048       0.00516648      -1.55125349
H       -2.91503926       1.08030669      -1.28763226
H       -3.09141181      -1.00692589       0.73389748
H       -0.20023952      -1.82392455       1.47059913
14
Frame=12 idx=009491 GeodesicLength=0.6644570879574401 rxn_smarts="[C:1]([N:2]([c:3]1[n:4][n:5]([H:12])[c:6]([H:13])[c:7]1[H:14])[H:11])([H:8])([H:9])[H:10]>>[C:1]([N:2]([C:3]#[N+:4][N-:5][H:12])[H:11])([H:8])([H:9])[H:10].[C:6](#[C:7][H:14])[H:13]"
C        2.32142989       0.41410216       0.21001197
N        1.12802869       0.28977657      -0.58052146
C       -0.09866011       0.54762190      -0.10341233
N       -1.07388959       1.04543550      -0.74430445
N       -2.26857244       0.56472556      -0.69081449
C       -2.06378480      -1.10697281       0.42963770
C       -0.87249524      -1.29956828       0.81829432
H        2.10776112       0.56860698       1.26757298
H        2.95191295      -0.47604300       0.15397208
H        2.91890831       1.27178722      -0.11808604
H        1.16470290      -0.02569584      -1.53599850
H       -2.90897760       1.05061649      -1.30742441
H       -3.08097168      -0.97972105       0.74447316
H       -0.22539241      -1.86467140       1.45659948
14
Frame=13 idx=009491 GeodesicLength=0.7193772873836537 rxn_smarts="[C:1]([N:2]([c:3]1[n:4][n:5]([H:12])[c:6]([H:13])[c:7]1[H:14])[H:11])([H:8])([H:9])[H:10]>>[C:1]([N:2]([C:3]#[N+:4][N-:5][H:12])[H:11])([H:8])([H:9])[H:10].[C:6](#[C:7][H:14])[H:13]"
C        2.32289555       0.42294332       0.20980640
N        1.12595693       0.27840316      -0.57055550
C       -0.09991794       0.54924267      -0.09342784
N       -1.06907055       1.05185195      -0.74315327
N       -2.26821601       0.57774575      -0.67086416
C       -2.06377706      -1.09005339       0.41616417
C       -0.87147603      -1.30551086       0.80522981
H        2.12078997       0.57561224       1.27012273
H        2.96808922      -0.45633302       0.15044467
H        2.90469992       1.28953943      -0.12422110
H        1.15247630      -0.05638096      -1.51965438
H       -2.90273860       1.01869834      -1.32544984
H       -3.06943909      -0.94505729       0.76196933
H       -0.25027261      -1.91070133       1.43358900
14
Frame=14 idx=009491 GeodesicLength=0.7750652971129056 rxn_smarts="[C:1]([N:2]([c:3]1[n:4][n:5]([H:12])[c:6]([H:13])[c:7]1[H:14])[H:11])([H:8])([H:9])[H:10]>>[C:1]([N:2]([C:3]#[N+:4][N-:5][H:12])[H:11])([H:8])([H:9])[H:10].[C:6](#[C:7][H:14])[H:13]"
C        2.32444326       0.43305446       0.20987670
N        1.12422506       0.26551656      -0.55938842
C       -0.10120092       0.54839676      -0.08310080
N       -1.06348993       1.05679276      -0.74172623
N       -2.26647105       0.58726359      -0.65663162
C       -2.06585814      -1.07189398       0.40563106
C       -0.87182091      -1.31486575       0.78899411
H        2.13417119       0.58217384       1.27302783
H        2.98658370      -0.43302736       0.14540518
H        2.88761687       1.31035160      -0.12929002
H        1.14122200      -0.08748237      -1.50190754
H       -2.89473691       0.98617373      -1.34262724
H       -3.05596707      -0.90250915       0.78633072
H       -0.27871715      -1.95994469       1.40540626
14
Frame=15 idx=009491 GeodesicLength=0.8306868542399716 rxn_smarts="[C:1]([N:2]([c:3]1[n:4][n:5]([H:12])[c:6]([H:13])[c:7]1[H:14])[H:11])([H:8])([H:9])[H:10]>>[C:1]([N:2]([C:3]#[N+:4][N-:5][H:12])[H:11])([H:8])([H:9])[H:10].[C:6](#[C:7][H:14])[H:13]"
C        2.32475314       0.44399914       0.21203927
N        1.12273977       0.25293145      -0.54750558
C       -0.10316410       0.54815879      -0.07473682
N       -1.05808539       1.05898105      -0.74546567
N       -2.26463683       0.59394419      -0.64701500
C       -2.06891469      -1.04965984       0.40236548
C       -0.87257183      -1.32157825       0.77494102
H        2.14489726       0.59132836       1.27747355
H        3.00346853      -0.40885559       0.14430688
H        2.86978126       1.33102472      -0.13257819
H        1.13166672      -0.12166822      -1.48163881
H       -2.88781177       0.95066913      -1.35976306
H       -3.03898974      -0.85016161       0.82075093
H       -0.30313232      -2.01911331       1.35682599
14
Frame=16 idx=009491 GeodesicLength=0.8875012105109148 rxn_smarts="[C:1]([N:2]([c:3]1[n:4][n:5]([H:12])[c:6]([H:13])[c:7]1[H:14])[H:11])([H:8])([H:9])[H:10]>>[C:1]([N:2]([C:3]#[N+:4][N-:5][H:12])[H:11])([H:8])([H:9])[H:10].[C:6](#[C:7][H:14])[H:13]"
C        2.32564938       0.45532766       0.21283530
N        1.12117044       0.23901515      -0.53438157
C       -0.10475547       0.54583871      -0.06436260
N       -1.05173456       1.06147707      -0.74552369
N       -2.26138560       0.59916854      -0.63903012
C       -2.07184622      -1.03016800       0.39598804
C       -0.87426355      -1.33172612       0.75805233
H        2.15812443       0.60089041       1.28059236
H        3.02144986      -0.38298000       0.14016368
H        2.85045575       1.35242707      -0.13797370
H        1.12130433      -0.15545639      -1.46012645
H       -2.87914938       0.91886208      -1.37288409
H       -3.02002248      -0.80127544       0.84996773
H       -0.33499693      -2.07140072       1.31668277
