17
Frame=0 idx=009031 GeodesicLength=0.0 rxn_smarts="[C:1]([C@@:2]1([H:11])[C:3]([H:12])([H:13])[C:4]([H:14])=[C:5]([H:15])[C:6]([H:16])([H:17])[O:7]1)([H:8])([H:9])[H:10]>>[C:1]([C@@:2]1([H:11])[C@:5]([C:4](=[C:3]([H:12])[H:13])[H:14])([H:15])[C:6]([H:16])([H:17])[O:7]1)([H:8])([H:9])[H:10]"
C       -2.28210819       0.17020813       0.07034761
C       -0.91073736       0.69555183       0.26718888
C        0.35755282      -1.91123054       0.09790105
C        1.44893865      -1.16816944      -0.14088075
C        1.67704727       0.19830183       0.26101993
C        1.07199102       1.40182193      -0.37998609
O       -0.24163039       1.04369938      -0.79834851
H       -2.59633093      -0.41653104       0.93291580
H       -2.34289385      -0.43930637      -0.82918336
H       -2.98229805       1.00929548      -0.02862141
H       -0.62824074       1.15565447       1.20927072
H        0.23366720      -2.89421819      -0.34380856
H       -0.39468183      -1.57443261       0.79873240
H        2.27718749      -1.68234241      -0.63904467
H        2.72785797       0.39376774       0.49358294
H        1.00343666       2.25923216       0.31401319
H        1.58124228       1.75869770      -1.28509921
17
Frame=1 idx=009031 GeodesicLength=0.09551017536074043 rxn_smarts="[C:1]([C@@:2]1([H:11])[C:3]([H:12])([H:13])[C:4]([H:14])=[C:5]([H:15])[C:6]([H:16])([H:17])[O:7]1)([H:8])([H:9])[H:10]>>[C:1]([C@@:2]1([H:11])[C@:5]([C:4](=[C:3]([H:12])[H:13])[H:14])([H:15])[C:6]([H:16])([H:17])[O:7]1)([H:8])([H:9])[H:10]"
C       -2.26606795       0.16057460       0.06383670
C       -0.88752411       0.66823206       0.27275456
C        0.34069124      -1.89987595       0.10149432
C        1.43583410      -1.15981619      -0.14833704
C        1.65511686       0.20262136       0.26002183
C        1.07542301       1.41301969      -0.39197625
O       -0.24502758       1.07122820      -0.79873819
H       -2.59476679      -0.42664803       0.92083767
H       -2.32603523      -0.44305077      -0.83997373
H       -2.95928619       1.00512798      -0.03357997
H       -0.62873204       1.14117424       1.21611997
H        0.21390909      -2.88130487      -0.34359096
H       -0.36546001      -1.60510873       0.86662229
H        2.24562255      -1.66362663      -0.68412921
H        2.69371409       0.39204693       0.54409583
H        1.02250787       2.27596580       0.29579732
H        1.59008111       1.74944031      -1.30125515
17
Frame=2 idx=009031 GeodesicLength=0.19039319424879575 rxn_smarts="[C:1]([C@@:2]1([H:11])[C:3]([H:12])([H:13])[C:4]([H:14])=[C:5]([H:15])[C:6]([H:16])([H:17])[O:7]1)([H:8])([H:9])[H:10]>>[C:1]([C@@:2]1([H:11])[C@:5]([C:4](=[C:3]([H:12])[H:13])[H:14])([H:15])[C:6]([H:16])([H:17])[O:7]1)([H:8])([H:9])[H:10]"
C       -2.25015533       0.15115674       0.05713981
C       -0.86492947       0.64218394       0.27740027
C        0.32541076      -1.88872469       0.10925705
C        1.42361862      -1.15168216      -0.15460664
C        1.63434737       0.20713270       0.25868066
C        1.07870664       1.42345028      -0.40378350
O       -0.24858736       1.09778418      -0.79749883
H       -2.59205688      -0.43777823       0.90795353
H       -2.30980536      -0.44520755      -0.85175586
H       -2.93716623       1.00067241      -0.03693779
H       -0.62948204       1.12484660       1.22288120
H        0.19146322      -2.86541899      -0.34479025
H       -0.33370608      -1.63467902       0.92937183
H        2.21409053      -1.64585339      -0.72535832
H        2.65859498       0.39088987       0.59218000
H        1.04237909       2.29183760       0.27747267
H        1.59727754       1.73938971      -1.31760583
17
Frame=3 idx=009031 GeodesicLength=0.2848052913773759 rxn_smarts="[C:1]([C@@:2]1([H:11])[C:3]([H:12])([H:13])[C:4]([H:14])=[C:5]([H:15])[C:6]([H:16])([H:17])[O:7]1)([H:8])([H:9])[H:10]>>[C:1]([C@@:2]1([H:11])[C@:5]([C:4](=[C:3]([H:12])[H:13])[H:14])([H:15])[C:6]([H:16])([H:17])[O:7]1)([H:8])([H:9])[H:10]"
C       -2.23446484       0.14215945       0.05004370
C       -0.84300527       0.61742408       0.28125429
C        0.31134025      -1.87771782       0.11983530
C        1.41194243      -1.14369980      -0.16042780
C        1.61452974       0.21169759       0.25693814
C        1.08185766       1.43333412      -0.41519521
O       -0.25230900       1.12397812      -0.79456470
H       -2.58859762      -0.44967786       0.89399177
H       -2.29406017      -0.44558091      -0.86471012
H       -2.91593775       0.99619538      -0.03910463
H       -0.63048161       1.10671486       1.22975340
H        0.16811618      -2.84852112      -0.34462448
H       -0.29970250      -1.66336296       0.98754533
H        2.18211363      -1.62878128      -0.76419060
H        2.62252847       0.38999710       0.63782581
H        1.06319886       2.30685287       0.25946148
H        1.60293151       1.72898818      -1.33383169
17
Frame=4 idx=009031 GeodesicLength=0.37888698336605475 rxn_smarts="[C:1]([C@@:2]1([H:11])[C:3]([H:12])([H:13])[C:4]([H:14])=[C:5]([H:15])[C:6]([H:16])([H:17])[O:7]1)([H:8])([H:9])[H:10]>>[C:1]([C@@:2]1([H:11])[C@:5]([C:4](=[C:3]([H:12])[H:13])[H:14])([H:15])[C:6]([H:16])([H:17])[O:7]1)([H:8])([H:9])[H:10]"
C       -2.21900996       0.13359703       0.04246649
C       -0.82175088       0.59388292       0.28443846
C        0.29832325      -1.86681877       0.13264747
C        1.40065641      -1.13583639      -0.16596062
C        1.59554404       0.21627328       0.25490592
C        1.08489737       1.44274944      -0.42614758
O       -0.25615396       1.15005357      -0.78989514
H       -2.58462185      -0.46218719       0.87889082
H       -2.27861130      -0.44427937      -0.87880019
H       -2.89555975       0.99171802      -0.04043125
H       -0.63174083       1.08695439       1.23680182
H        0.14439429      -2.83116729      -0.34245438
H       -0.26354921      -1.69134252       1.04175996
H        2.14940219      -1.61224414      -0.80128556
H        2.58561751       0.38928391       0.68112265
H        1.08505627       2.32104547       0.24180221
H        1.60710638       1.71831766      -1.34986106
17
Frame=5 idx=009031 GeodesicLength=0.4727551568993844 rxn_smarts="[C:1]([C@@:2]1([H:11])[C:3]([H:12])([H:13])[C:4]([H:14])=[C:5]([H:15])[C:6]([H:16])([H:17])[O:7]1)([H:8])([H:9])[H:10]>>[C:1]([C@@:2]1([H:11])[C@:5]([C:4](=[C:3]([H:12])[H:13])[H:14])([H:15])[C:6]([H:16])([H:17])[O:7]1)([H:8])([H:9])[H:10]"
C       -2.20377535       0.12543044       0.03437347
C       -0.80114680       0.57147084       0.28707353
C        0.28629068      -1.85599742       0.14739325
C        1.38969214      -1.12807713      -0.17120140
C        1.57730770       0.22084781       0.25272279
C        1.08783941       1.45172731      -0.43663316
O       -0.26008167       1.17613095      -0.78344789
H       -2.58028234      -0.47520562       0.86264008
H       -2.26327822      -0.44146002      -0.89394700
H       -2.87598212       0.98719607      -0.04118919
H       -0.63328390       1.06575299       1.24405329
H        0.12038742      -2.81344266      -0.33827216
H       -0.22528082      -1.71878922       1.09250344
H        2.11576695      -1.59613314      -0.83695179
H        2.54799168       0.38874932       0.72218266
H        1.10801073       2.33444615       0.22440950
H        1.60982453       1.70735333      -1.36570943
17
Frame=6 idx=009031 GeodesicLength=0.566495211728204 rxn_smarts="[C:1]([C@@:2]1([H:11])[C:3]([H:12])([H:13])[C:4]([H:14])=[C:5]([H:15])[C:6]([H:16])([H:17])[O:7]1)([H:8])([H:9])[H:10]>>[C:1]([C@@:2]1([H:11])[C@:5]([C:4](=[C:3]([H:12])[H:13])[H:14])([H:15])[C:6]([H:16])([H:17])[O:7]1)([H:8])([H:9])[H:10]"
C       -2.18874494       0.11763021       0.02573464
C       -0.78117671       0.55010859       0.28927595
C        0.27518484      -1.84522015       0.16386092
C        1.37898674      -1.12040443      -0.17613377
C        1.55974405       0.22541785       0.25051287
C        1.09068483       1.46029036      -0.44665155
O       -0.26406139       1.20231148      -0.77515343
H       -2.57569765      -0.48867401       0.84519999
H       -2.24791176      -0.43721186      -0.91010187
H       -2.85716264       0.98259430      -0.04157115
H       -0.63514795       1.04325818       1.25153063
H        0.09616048      -2.79538306      -0.33208770
H       -0.18493229      -1.74587391       1.14008887
H        2.08107116      -1.58037711      -0.87132292
H        2.50982316       0.38840544       0.76103480
H        1.13211381       2.34706599       0.20718768
H        1.61106627       1.69606211      -1.38140396
17
Frame=7 idx=009031 GeodesicLength=0.660181783826219 rxn_smarts="[C:1]([C@@:2]1([H:11])[C:3]([H:12])([H:13])[C:4]([H:14])=[C:5]([H:15])[C:6]([H:16])([H:17])[O:7]1)([H:8])([H:9])[H:10]>>[C:1]([C@@:2]1([H:11])[C@:5]([C:4](=[C:3]([H:12])[H:13])[H:14])([H:15])[C:6]([H:16])([H:17])[O:7]1)([H:8])([H:9])[H:10]"
C       -2.17389378       0.11016480       0.01653109
C       -0.76182138       0.52972243       0.29116100
C        0.26496671      -1.83444838       0.18191134
C        1.36849890      -1.11280233      -0.18070606
C        1.54278567       0.22999023       0.24839511
C        1.09342413       1.46844603      -0.45621792
O       -0.26806537       1.22865969      -0.76492638
H       -2.57095160      -0.50255493       0.82652896
H       -2.23237236      -0.43160402      -0.92721662
H       -2.83905859       0.97787099      -0.04172775
H       -0.63737412       1.01959525       1.25924980
H        0.07168358      -2.77691901      -0.32400681
H       -0.14253411      -1.77277515       1.18471514
H        2.04522767      -1.56492516      -0.90441108
H        2.47130577       0.38829400       0.79770583
H        1.15740405       2.35890113       0.19000585
H        1.61077485       1.68438441      -1.39699149
17
Frame=8 idx=009031 GeodesicLength=0.7538828721565638 rxn_smarts="[C:1]([C@@:2]1([H:11])[C:3]([H:12])([H:13])[C:4]([H:14])=[C:5]([H:15])[C:6]([H:16])([H:17])[O:7]1)([H:8])([H:9])[H:10]>>[C:1]([C@@:2]1([H:11])[C@:5]([C:4](=[C:3]([H:12])[H:13])[H:14])([H:15])[C:6]([H:16])([H:17])[O:7]1)([H:8])([H:9])[H:10]"
C       -2.15918864       0.10300564       0.00674057
C       -0.74306116       0.51024859       0.29284116
C        0.25560673      -1.82364457       0.20145890
C        1.35819026      -1.10525710      -0.18486688
C        1.52637172       0.23457507       0.24646908
C        1.09603808       1.47620034      -0.46535213
O       -0.27206742       1.25523227      -0.75266159
H       -2.56610239      -0.51683237       0.80656467
H       -2.21651940      -0.42467625      -0.94526149
H       -2.82162804       0.97298395      -0.04178492
H       -0.64000931       0.99486276       1.26722873
H        0.04689105      -2.75795275      -0.31411584
H       -0.09811117      -1.79966593       1.22649886
H        2.00816745      -1.54974619      -0.93617772
H        2.43265251       0.38846384       0.83221341
H        1.18390980       2.36993398       0.17272664
H        1.60885993       1.67226870      -1.41252148
17
Frame=9 idx=009031 GeodesicLength=0.8476732952814805 rxn_smarts="[C:1]([C@@:2]1([H:11])[C:3]([H:12])([H:13])[C:4]([H:14])=[C:5]([H:15])[C:6]([H:16])([H:17])[O:7]1)([H:8])([H:9])[H:10]>>[C:1]([C@@:2]1([H:11])[C@:5]([C:4](=[C:3]([H:12])[H:13])[H:14])([H:15])[C:6]([H:16])([H:17])[O:7]1)([H:8])([H:9])[H:10]"
C       -2.14458102       0.09611633      -0.00365815
C       -0.72486972       0.49162383       0.29443074
C        0.24709780      -1.81276725       0.22247030
C        1.34804676      -1.09776025      -0.18854040
C        1.51045462       0.23918761       0.24482849
C        1.09849869       1.48354879      -0.47408315
O       -0.27603725       1.28205797      -0.73824097
H       -2.56117741      -0.53151262       0.78523255
H       -2.20019834      -0.41645979      -0.96421209
H       -2.80482400       0.96787862      -0.04185284
H       -0.64310290       0.96914304       1.27548555
H        0.02161659      -2.73829295      -0.30253476
H       -0.05168797      -1.82672483       1.26549472
H        1.96983284      -1.53481400      -0.96655150
H        2.39408802       0.38898986       0.86459527
H        1.21163966       2.38013467       0.15518519
H        1.60520366       1.65965098      -1.42804894
17
Frame=10 idx=009031 GeodesicLength=0.9416146219366318 rxn_smarts="[C:1]([C@@:2]1([H:11])[C:3]([H:12])([H:13])[C:4]([H:14])=[C:5]([H:15])[C:6]([H:16])([H:17])[O:7]1)([H:8])([H:9])[H:10]>>[C:1]([C@@:2]1([H:11])[C@:5]([C:4](=[C:3]([H:12])[H:13])[H:14])([H:15])[C:6]([H:16])([H:17])[O:7]1)([H:8])([H:9])[H:10]"
C       -2.13002641       0.08948788      -0.01468877
C       -0.70722875       0.47380133       0.29604368
C        0.23941704      -1.80177444       0.24490241
C        1.33803839      -1.09029772      -0.19167386
C        1.49498133       0.24384379       0.24354505
C        1.10076031       1.49048875      -0.48244340
O       -0.27995117       1.30917211      -0.72152058
H       -2.55619132      -0.54660295       0.76243146
H       -2.18327172      -0.40691996      -0.98406094
H       -2.78860499       0.96252733      -0.04200693
H       -0.64670437       0.94249245       1.28404422
H       -0.00421065      -2.71781476      -0.28928171
H       -0.00331910      -1.85414446       1.30165355
H        1.93022614      -1.52013333      -0.99539093
H        2.35585076       0.38993730       0.89486499
H        1.24059415       2.38945653       0.13721142
H        1.59964036       1.64648017      -1.44362965
17
Frame=11 idx=009031 GeodesicLength=1.0357807404009165 rxn_smarts="[C:1]([C@@:2]1([H:11])[C:3]([H:12])([H:13])[C:4]([H:14])=[C:5]([H:15])[C:6]([H:16])([H:17])[O:7]1)([H:8])([H:9])[H:10]>>[C:1]([C@@:2]1([H:11])[C@:5]([C:4](=[C:3]([H:12])[H:13])[H:14])([H:15])[C:6]([H:16])([H:17])[O:7]1)([H:8])([H:9])[H:10]"
C       -2.11546320       0.08310787      -0.02637561
C       -0.69011253       0.45673501       0.29779670
C        0.23256075      -1.79062306       0.26875183
C        1.32815137      -1.08286027      -0.19419965
C        1.47991206       0.24856269       0.24267924
C        1.10276617       1.49701085      -0.49047416
O       -0.28377675       1.33658459      -0.70234591
H       -2.55112820      -0.56212499       0.73804614
H       -2.16558433      -0.39600977      -1.00480155
H       -2.77291997       0.95689344      -0.04231501
H       -0.65086076       0.91495794       1.29292803
H       -0.03072932      -2.69632748      -0.27438295
H        0.04692971      -1.88212155       1.33487912
H        1.88936274      -1.50571680      -1.02254588
H        2.31817194       0.39138647       0.92307007
H        1.27074837       2.39784033       0.11860931
H        1.59197195       1.63270472      -1.45931973
17
Frame=12 idx=009031 GeodesicLength=1.130254550805953 rxn_smarts="[C:1]([C@@:2]1([H:11])[C:3]([H:12])([H:13])[C:4]([H:14])=[C:5]([H:15])[C:6]([H:16])([H:17])[O:7]1)([H:8])([H:9])[H:10]>>[C:1]([C@@:2]1([H:11])[C@:5]([C:4](=[C:3]([H:12])[H:13])[H:14])([H:15])[C:6]([H:16])([H:17])[O:7]1)([H:8])([H:9])[H:10]"
C       -2.10081663       0.07696999      -0.03874212
C       -0.67349028       0.44038304       0.29981104
C        0.22653404      -1.77927180       0.29403060
C        1.31838127      -1.07544323      -0.19604825
C        1.46521722       0.25336420       0.24228019
C        1.10444483       1.50310322      -0.49822258
O       -0.28747268       1.36428197      -0.68055721
H       -2.54594525      -0.57809993       0.71195240
H       -2.14696834      -0.38366678      -1.02642268
H       -2.75770850       0.95094466      -0.04284083
H       -0.65561495       0.88658447       1.30216150
H       -0.05809011      -2.67361565      -0.25783339
H        0.09896306      -1.91086727       1.36501097
H        1.84728152      -1.49158971      -1.04785511
H        2.28127209       0.39342388       0.94928105
H        1.30204413       2.40521749       0.09916348
H        1.58196859       1.61828144      -1.47516905
17
Frame=13 idx=009031 GeodesicLength=1.2251596143583623 rxn_smarts="[C:1]([C@@:2]1([H:11])[C:3]([H:12])([H:13])[C:4]([H:14])=[C:5]([H:15])[C:6]([H:16])([H:17])[O:7]1)([H:8])([H:9])[H:10]>>[C:1]([C@@:2]1([H:11])[C@:5]([C:4](=[C:3]([H:12])[H:13])[H:14])([H:15])[C:6]([H:16])([H:17])[O:7]1)([H:8])([H:9])[H:10]"
C       -2.08598198       0.07105799      -0.05181920
C       -0.65731841       0.42469843       0.30221136
C        0.22136610      -1.76767167       0.32079290
C        1.30873335      -1.06804560      -0.19715159
C        1.45088414       0.25826387       0.24237782
C        1.10571339       1.50874572      -0.50573483
O       -0.29097923       1.39221612      -0.65599146
H       -2.54055771      -0.59457356       0.68399279
H       -2.12721524      -0.36981224      -1.04891725
H       -2.74288998       0.94462770      -0.04364624
H       -0.66100935       0.85741116       1.31176334
H       -0.08651222      -2.64938686      -0.23957467
H        0.15267875      -1.94057388       1.39185394
H        1.80398243      -1.47777476      -1.07119438
H        2.24534532       0.39613597       0.97359154
H        1.33437705       2.41150022       0.07864841
H        1.56938359       1.60318140      -1.49120247
17
Frame=14 idx=009031 GeodesicLength=1.3206208841713227 rxn_smarts="[C:1]([C@@:2]1([H:11])[C:3]([H:12])([H:13])[C:4]([H:14])=[C:5]([H:15])[C:6]([H:16])([H:17])[O:7]1)([H:8])([H:9])[H:10]>>[C:1]([C@@:2]1([H:11])[C@:5]([C:4](=[C:3]([H:12])[H:13])[H:14])([H:15])[C:6]([H:16])([H:17])[O:7]1)([H:8])([H:9])[H:10]"
C       -2.07085336       0.06537968      -0.06562653
C       -0.64155460       0.40964495       0.30512881
C        0.21707925      -1.75578294       0.34907154
C        1.29921469      -1.06066967      -0.19744590
C        1.43690525       0.26327920       0.24299667
C        1.10646762       1.51392275      -0.51306364
O       -0.29422981       1.42031176      -0.62850346
H       -2.53486142      -0.61155631       0.65402726
H       -2.10612802      -0.35435470      -1.07225079
H       -2.72837688       0.93791953      -0.04479512
H       -0.66707612       0.82749430       1.32175225
H       -0.11613272      -2.62338889      -0.21950163
H        0.20789565      -1.97147885       1.41511226
H        1.75953798      -1.46432167      -1.09239227
H        2.21057916       0.39960674       0.99609870
H        1.36759481       2.41660122       0.05682572
H        1.55393853       1.58739289      -1.50743388
17
Frame=15 idx=009031 GeodesicLength=1.416820089154385 rxn_smarts="[C:1]([C@@:2]1([H:11])[C:3]([H:12])([H:13])[C:4]([H:14])=[C:5]([H:15])[C:6]([H:16])([H:17])[O:7]1)([H:8])([H:9])[H:10]>>[C:1]([C@@:2]1([H:11])[C@:5]([C:4](=[C:3]([H:12])[H:13])[H:14])([H:15])[C:6]([H:16])([H:17])[O:7]1)([H:8])([H:9])[H:10]"
C       -2.05529288       0.05993027      -0.08017919
C       -0.62614099       0.39517905       0.30869799
C        0.21372553      -1.74356274       0.37893053
C        1.28984975      -1.05332436      -0.19686274
C        1.42329203       0.26842393       0.24415027
C        1.10659004       1.51861234      -0.52026001
O       -0.29713543       1.44843490      -0.59798948
H       -2.52869981      -0.62906771       0.62191418
H       -2.08347612      -0.33721765      -1.09636663
H       -2.71405513       0.93077887      -0.04635875
H       -0.67383914       0.79691058       1.33213407
H       -0.14715435      -2.59527224      -0.19747721
H        0.26437876      -2.00382188       1.43444029
H        1.71399296      -1.45127464      -1.11130898
H        2.17713475       0.40392214       1.01691763
H        1.40146837       2.42042612       0.03345698
H        1.53536165       1.57092303      -1.52383894
17
Frame=16 idx=009031 GeodesicLength=1.5140014432610773 rxn_smarts="[C:1]([C@@:2]1([H:11])[C:3]([H:12])([H:13])[C:4]([H:14])=[C:5]([H:15])[C:6]([H:16])([H:17])[O:7]1)([H:8])([H:9])[H:10]>>[C:1]([C@@:2]1([H:11])[C@:5]([C:4](=[C:3]([H:12])[H:13])[H:14])([H:15])[C:6]([H:16])([H:17])[O:7]1)([H:8])([H:9])[H:10]"
C       -2.03914106       0.05469558      -0.09547700
C       -0.61100791       0.38125283       0.31305211
C        0.21137475      -1.73096815       0.41043837
C        1.28067508      -1.04602259      -0.19533981
C        1.41007234       0.27370798       0.24584196
C        1.10595303       1.52279373      -0.52736885
O       -0.29958807       1.47638654      -0.56442501
H       -2.52187041      -0.64711239       0.58754511
H       -2.05901676      -0.31836764      -1.12116300
H       -2.69978759       0.92315635      -0.04842487
H       -0.68130856       0.76577401       1.34289514
H       -0.17978908      -2.56462191      -0.17331353
H        0.32179737      -2.03785967       1.44941254
H        1.66738189      -1.43867207      -1.12782159
H        2.14515779       0.40916161       1.03616398
H        1.43567882       2.42288609       0.00832713
H        1.51341836       1.55380969      -1.54034267
