14
Frame=0 idx=011721 GeodesicLength=0.0 rxn_smarts="[C:1]([c:2]1[c:3]([H:11])[o:4][c:5]([H:12])[c:6]1[N:7]([H:13])[H:14])([H:8])([H:9])[H:10]>>[C:1]([c:2]1[c:3]([H:11])[o:4][c-:5][c:6]1[N+:7]([H:12])([H:13])[H:14])([H:8])([H:9])[H:10]"
C       -1.83000371       0.22746451       0.47449924
C       -0.54417541      -0.40302648       0.05362064
C       -0.32151228      -1.70976214      -0.24725672
O        0.97091742      -1.95773770      -0.60026453
C        1.64787987      -0.77636650      -0.53613828
C        0.75218457       0.15850442      -0.14648566
N        1.51672588       1.38789153      -0.09474653
H       -2.62433744      -0.51694312       0.53737736
H       -2.15061455       0.99484603      -0.23428382
H       -1.74383176       0.70113030       1.45545098
H       -0.98947906      -2.55795533      -0.25038886
H        2.39937889       0.54963166      -0.46192279
H        1.64626695       1.80087341       0.82227394
H        1.27060066       2.10144946      -0.77173496
14
Frame=1 idx=011721 GeodesicLength=0.04855467379371057 rxn_smarts="[C:1]([c:2]1[c:3]([H:11])[o:4][c:5]([H:12])[c:6]1[N:7]([H:13])[H:14])([H:8])([H:9])[H:10]>>[C:1]([c:2]1[c:3]([H:11])[o:4][c-:5][c:6]1[N+:7]([H:12])([H:13])[H:14])([H:8])([H:9])[H:10]"
C       -1.82517739       0.22943075       0.47802685
C       -0.54526063      -0.40276182       0.04264687
C       -0.32022310      -1.71178160      -0.24448730
O        0.97425089      -1.96082587      -0.58663412
C        1.64574937      -0.77446440      -0.55250746
C        0.74366981       0.16460260      -0.18398848
N        1.51233305       1.38780393      -0.09107070
H       -2.61903474      -0.51464184       0.55087892
H       -2.15513277       0.99559084      -0.22790410
H       -1.72794562       0.70378765       1.45764835
H       -0.98954255      -2.55883863      -0.25272818
H        2.41277721       0.53843546      -0.44530521
H        1.59580816       1.79992552       0.83155677
H        1.29772831       2.10373740      -0.77613221
14
Frame=2 idx=011721 GeodesicLength=0.09714091521769919 rxn_smarts="[C:1]([c:2]1[c:3]([H:11])[o:4][c:5]([H:12])[c:6]1[N:7]([H:13])[H:14])([H:8])([H:9])[H:10]>>[C:1]([c:2]1[c:3]([H:11])[o:4][c-:5][c:6]1[N+:7]([H:12])([H:13])[H:14])([H:8])([H:9])[H:10]"
C       -1.81998483       0.23171582       0.48099950
C       -0.54605508      -0.40232910       0.03158957
C       -0.31915694      -1.71319359      -0.24360929
O        0.97799205      -1.96322778      -0.57225750
C        1.64333440      -0.77246986      -0.57004592
C        0.73585728       0.17004956      -0.21932428
N        1.50690628       1.38712870      -0.08674326
H       -2.61383441      -0.51158962       0.56192469
H       -2.15793234       0.99795638      -0.22116659
H       -1.71233532       0.70527693       1.45995058
H       -0.98842698      -2.56022543      -0.25189804
H        2.42465453       0.52691600      -0.43036488
H        1.54599832       1.79853205       0.83903757
H        1.32298305       2.10545994      -0.77809215
14
Frame=3 idx=011721 GeodesicLength=0.14615786594519226 rxn_smarts="[C:1]([c:2]1[c:3]([H:11])[o:4][c:5]([H:12])[c:6]1[N:7]([H:13])[H:14])([H:8])([H:9])[H:10]>>[C:1]([c:2]1[c:3]([H:11])[o:4][c-:5][c:6]1[N+:7]([H:12])([H:13])[H:14])([H:8])([H:9])[H:10]"
C       -1.81381957       0.23373675       0.48589011
C       -0.54638769      -0.40205006       0.02133293
C       -0.31890068      -1.71397073      -0.24635014
O        0.98185555      -1.96569852      -0.55694620
C        1.64298910      -0.77222397      -0.57930288
C        0.72938347       0.17427545      -0.25037229
N        1.49991570       1.38688535      -0.08463901
H       -2.60859404      -0.50809553       0.57152998
H       -2.15803236       1.00304866      -0.20993933
H       -1.69595724       0.70283972       1.46583381
H       -0.98916117      -2.56009947      -0.25936839
H        2.43626264       0.51459532      -0.41191745
H        1.49311399       1.80331283       0.83970410
H        1.34733230       2.10344420      -0.78545524
14
Frame=4 idx=011721 GeodesicLength=0.19482744578433636 rxn_smarts="[C:1]([c:2]1[c:3]([H:11])[o:4][c:5]([H:12])[c:6]1[N:7]([H:13])[H:14])([H:8])([H:9])[H:10]>>[C:1]([c:2]1[c:3]([H:11])[o:4][c-:5][c:6]1[N+:7]([H:12])([H:13])[H:14])([H:8])([H:9])[H:10]"
C       -1.80792090       0.23620805       0.48881500
C       -0.54653120      -0.40170584       0.01134786
C       -0.31809354      -1.71476671      -0.24791585
O        0.98430047      -1.96637070      -0.54832626
C        1.64166402      -0.77090772      -0.59262948
C        0.72348529       0.17816933      -0.27899024
N        1.49280664       1.38582881      -0.08026551
H       -2.60376053      -0.50402178       0.57865158
H       -2.15725259       1.00814845      -0.20164338
H       -1.68111348       0.70154133       1.46946972
H       -0.98722412      -2.56178327      -0.25600846
H        2.44663169       0.50236078      -0.39669906
H        1.44319557       1.80527391       0.84122629
H        1.36981267       2.10202536      -0.78703221
14
Frame=5 idx=011721 GeodesicLength=0.24360637280757882 rxn_smarts="[C:1]([c:2]1[c:3]([H:11])[o:4][c:5]([H:12])[c:6]1[N:7]([H:13])[H:14])([H:8])([H:9])[H:10]>>[C:1]([c:2]1[c:3]([H:11])[o:4][c-:5][c:6]1[N+:7]([H:12])([H:13])[H:14])([H:8])([H:9])[H:10]"
C       -1.80167575       0.23857776       0.49219182
C       -0.54646596      -0.40145998       0.00185425
C       -0.31759914      -1.71534657      -0.25086092
O        0.98660879      -1.96693067      -0.54018846
C        1.64095748      -0.77010093      -0.60331077
C        0.71839470       0.18143898      -0.30472023
N        1.48500973       1.38495612      -0.07633313
H       -2.59906937      -0.49970170       0.58458227
H       -2.15500581       1.01439525      -0.19196969
H       -1.66634391       0.69861976       1.47423307
H       -0.98570013      -2.56313817      -0.25446678
H        2.45653495       0.48981811      -0.38095064
H        1.39292505       1.80964442       0.83934731
H        1.39142937       2.09922763      -0.78940811
14
Frame=6 idx=011721 GeodesicLength=0.2926522001060217 rxn_smarts="[C:1]([c:2]1[c:3]([H:11])[o:4][c:5]([H:12])[c:6]1[N:7]([H:13])[H:14])([H:8])([H:9])[H:10]>>[C:1]([c:2]1[c:3]([H:11])[o:4][c-:5][c:6]1[N+:7]([H:12])([H:13])[H:14])([H:8])([H:9])[H:10]"
C       -1.79522806       0.24087400       0.49580185
C       -0.54625638      -0.40128686      -0.00719683
C       -0.31722404      -1.71582012      -0.25442734
O        0.98871706      -1.96727320      -0.53289796
C        1.64065353      -0.76954424      -0.61245139
C        0.71392220       0.18426466      -0.32812864
N        1.47668724       1.38419532      -0.07250042
H       -2.59449665      -0.49521942       0.58970709
H       -2.15173630       1.02128232      -0.18156991
H       -1.65174247       0.69473300       1.47959552
H       -0.98438863      -2.56429042      -0.25390570
H        2.46608124       0.47696366      -0.36495916
H        1.34261914       1.81569885       0.83470342
H        1.41239212       2.09542244      -0.79177053
14
Frame=7 idx=011721 GeodesicLength=0.3418751320657313 rxn_smarts="[C:1]([c:2]1[c:3]([H:11])[o:4][c:5]([H:12])[c:6]1[N:7]([H:13])[H:14])([H:8])([H:9])[H:10]>>[C:1]([c:2]1[c:3]([H:11])[o:4][c-:5][c:6]1[N+:7]([H:12])([H:13])[H:14])([H:8])([H:9])[H:10]"
C       -1.78868112       0.24312366       0.49941335
C       -0.54600524      -0.40112825      -0.01609541
C       -0.31695723      -1.71620980      -0.25856554
O        0.99061661      -1.96739162      -0.52648111
C        1.64048765      -0.76903866      -0.62097674
C        0.70989261       0.18683178      -0.34980678
N        1.46797014       1.38351226      -0.06847744
H       -2.59005864      -0.49062151       0.59409849
H       -2.14772601       1.02863376      -0.17081974
H       -1.63734043       0.69014943       1.48520773
H       -0.98297843      -2.56550437      -0.25295846
H        2.47526337       0.46383006      -0.34905885
H        1.29252835       1.82274067       0.82787770
H        1.43298837       2.09107260      -0.79335720
14
Frame=8 idx=011721 GeodesicLength=0.39131036264430563 rxn_smarts="[C:1]([c:2]1[c:3]([H:11])[o:4][c:5]([H:12])[c:6]1[N:7]([H:13])[H:14])([H:8])([H:9])[H:10]>>[C:1]([c:2]1[c:3]([H:11])[o:4][c-:5][c:6]1[N+:7]([H:12])([H:13])[H:14])([H:8])([H:9])[H:10]"
C       -1.78172745       0.24508060       0.50387864
C       -0.54577922      -0.40099135      -0.02509822
C       -0.31707961      -1.71639306      -0.26417981
O        0.99235379      -1.96744466      -0.51976159
C        1.64098965      -0.76887599      -0.62651140
C        0.70637342       0.18902757      -0.36987974
N        1.45855073       1.38321857      -0.06525162
H       -2.58561685      -0.48601075       0.59811888
H       -2.14265959       1.03695641      -0.15791380
H       -1.62233228       0.68355146       1.49228595
H       -0.98233478      -2.56619677      -0.25514863
H        2.48423896       0.45029549      -0.33079484
H        1.24098863       1.83266168       0.81661318
H        1.45403460       2.08512079      -0.79635702
14
Frame=9 idx=011721 GeodesicLength=0.4408373876058662 rxn_smarts="[C:1]([c:2]1[c:3]([H:11])[o:4][c:5]([H:12])[c:6]1[N:7]([H:13])[H:14])([H:8])([H:9])[H:10]>>[C:1]([c:2]1[c:3]([H:11])[o:4][c-:5][c:6]1[N+:7]([H:12])([H:13])[H:14])([H:8])([H:9])[H:10]"
C       -1.77490865       0.24710368       0.50780708
C       -0.54550727      -0.40083046      -0.03378199
C       -0.31702381      -1.71653863      -0.26933062
O        0.99388616      -1.96710637      -0.51440336
C        1.64119168      -0.76841251      -0.63320246
C        0.70305299       0.19119311      -0.38878424
N        1.44895747       1.38275452      -0.06113935
H       -2.58124053      -0.48132677       0.60181821
H       -2.13748127       1.04485877      -0.14606777
H       -1.60787335       0.67757303       1.49847723
H       -0.98111003      -2.56710574      -0.25513087
H        2.49281267       0.43653523      -0.31408764
H        1.19080281       1.84189169       0.80457983
H        1.47444113       2.07941046      -0.79675407
14
Frame=10 idx=011721 GeodesicLength=0.49054513572084074 rxn_smarts="[C:1]([c:2]1[c:3]([H:11])[o:4][c:5]([H:12])[c:6]1[N:7]([H:13])[H:14])([H:8])([H:9])[H:10]>>[C:1]([c:2]1[c:3]([H:11])[o:4][c-:5][c:6]1[N+:7]([H:12])([H:13])[H:14])([H:8])([H:9])[H:10]"
C       -1.76804333       0.24903790       0.51179686
C       -0.54523290      -0.40068664      -0.04229525
C       -0.31702173      -1.71667719      -0.27471799
O        0.99522539      -1.96664505      -0.50975029
C        1.64147349      -0.76792799      -0.63944215
C        0.70000126       0.19327008      -0.40656551
N        1.43900761       1.38244882      -0.05679536
H       -2.57689026      -0.47668467       0.60539652
H       -2.13194456       1.05279351      -0.13407556
H       -1.59349742       0.67133278       1.50473436
H       -0.97990589      -2.56802337      -0.25520325
H        2.50114311       0.42246432      -0.29728150
H        1.14087474       1.85193077       0.79033723
H        1.49481049       2.07336673      -0.79613810
14
Frame=11 idx=011721 GeodesicLength=0.5403882137990603 rxn_smarts="[C:1]([c:2]1[c:3]([H:11])[o:4][c:5]([H:12])[c:6]1[N:7]([H:13])[H:14])([H:8])([H:9])[H:10]>>[C:1]([c:2]1[c:3]([H:11])[o:4][c-:5][c:6]1[N+:7]([H:12])([H:13])[H:14])([H:8])([H:9])[H:10]"
C       -1.76103859       0.25078936       0.51610047
C       -0.54495563      -0.40055630      -0.05061535
C       -0.31711006      -1.71672100      -0.28041401
O        0.99638822      -1.96602290      -0.50548306
C        1.64195677      -0.76743486      -0.64458746
C        0.69721022       0.19522510      -0.42327061
N        1.42858205       1.38235300      -0.05249290
H       -2.57246019      -0.47214418       0.60912471
H       -2.12603972       1.06070976      -0.12150096
H       -1.57893684       0.66459887       1.51128089
H       -0.97899793      -2.56866743      -0.25659085
H        2.50923390       0.40806293      -0.27964907
H        1.09082286       1.86319771       0.77309674
H        1.51534494       2.06660995      -0.79499853
14
Frame=12 idx=011721 GeodesicLength=0.590339713257172 rxn_smarts="[C:1]([c:2]1[c:3]([H:11])[o:4][c:5]([H:12])[c:6]1[N:7]([H:13])[H:14])([H:8])([H:9])[H:10]>>[C:1]([c:2]1[c:3]([H:11])[o:4][c-:5][c:6]1[N+:7]([H:12])([H:13])[H:14])([H:8])([H:9])[H:10]"
C       -1.75409960       0.25249608       0.52029266
C       -0.54464225      -0.40043361      -0.05857199
C       -0.31713711      -1.71675559      -0.28590908
O        0.99740366      -1.96522984      -0.50202283
C        1.64237854      -0.76679732      -0.64984154
C        0.69458023       0.19718358      -0.43904227
N        1.41785529       1.38231506      -0.04770157
H       -2.56799463      -0.46770689       0.61302313
H       -2.12011756       1.06822100      -0.10939990
H       -1.56461859       0.65827193       1.51744090
H       -0.97798607      -2.56931721      -0.25770362
H        2.51713490       0.39336623      -0.26259233
H        1.04160481       1.87460033       0.75418123
H        1.53563838       2.05978624      -0.79215280
14
Frame=13 idx=011721 GeodesicLength=0.6403157276068083 rxn_smarts="[C:1]([c:2]1[c:3]([H:11])[o:4][c:5]([H:12])[c:6]1[N:7]([H:13])[H:14])([H:8])([H:9])[H:10]>>[C:1]([c:2]1[c:3]([H:11])[o:4][c-:5][c:6]1[N+:7]([H:12])([H:13])[H:14])([H:8])([H:9])[H:10]"
C       -1.74728130       0.25416355       0.52432604
C       -0.54426902      -0.40032828      -0.06603441
C       -0.31707353      -1.71677300      -0.29103822
O        0.99829344      -1.96423816      -0.49936625
C        1.64270625      -0.76596720      -0.65531474
C        0.69207964       0.19917748      -0.45388848
N        1.40686224       1.38229362      -0.04235126
H       -2.56349020      -0.46341702       0.61716684
H       -2.11430672       1.07517193      -0.09799215
H       -1.55063658       0.65258605       1.52309114
H       -0.97686710      -2.56994512      -0.25854612
H        2.52493747       0.37839439      -0.24642358
H        0.99349455       1.88594251       0.73382787
H        1.55555084       2.05293923      -0.78745668
14
Frame=14 idx=011721 GeodesicLength=0.6903241202085535 rxn_smarts="[C:1]([c:2]1[c:3]([H:11])[o:4][c:5]([H:12])[c:6]1[N:7]([H:13])[H:14])([H:8])([H:9])[H:10]>>[C:1]([c:2]1[c:3]([H:11])[o:4][c-:5][c:6]1[N+:7]([H:12])([H:13])[H:14])([H:8])([H:9])[H:10]"
C       -1.74057799       0.25578053       0.52826134
C       -0.54384713      -0.40023260      -0.07304677
C       -0.31694027      -1.71676362      -0.29588580
O        0.99908196      -1.96307845      -0.49738965
C        1.64297333      -0.76496563      -0.66086784
C        0.68968936       0.20121843      -0.46789244
N        1.39555663       1.38231730      -0.03650029
H       -2.55891862      -0.45930802       0.62165247
H       -2.10866688       1.08157496      -0.08718350
H       -1.53691350       0.64752594       1.52830188
H       -0.97569123      -2.57052617      -0.25935727
H        2.53269912       0.36312250      -0.23099838
H        0.94641806       1.89730598       0.71193154
H        1.57513716       2.04602884      -0.78102529
14
Frame=15 idx=011721 GeodesicLength=0.7403526714288442 rxn_smarts="[C:1]([c:2]1[c:3]([H:11])[o:4][c:5]([H:12])[c:6]1[N:7]([H:13])[H:14])([H:8])([H:9])[H:10]>>[C:1]([c:2]1[c:3]([H:11])[o:4][c-:5][c:6]1[N+:7]([H:12])([H:13])[H:14])([H:8])([H:9])[H:10]"
C       -1.73399234       0.25733899       0.53213842
C       -0.54337879      -0.40014530      -0.07960866
C       -0.31674379      -1.71672432      -0.30046465
O        0.99978679      -1.96177012      -0.49600603
C        1.64319765      -0.76380112      -0.66641163
C        0.68739280       0.20331520      -0.48110515
N        1.38390234       1.38240666      -0.03018396
H       -2.55424980      -0.45541822       0.62658227
H       -2.10326780       1.08740073      -0.07695178
H       -1.52339989       0.64314241       1.53309765
H       -0.97450511      -2.57103766      -0.26036047
H        2.54047108       0.34753815      -0.21625168
H        0.90038744       1.90872545       0.68844519
H        1.59439943       2.03902914      -0.77291951
14
Frame=16 idx=011721 GeodesicLength=0.7903843468146732 rxn_smarts="[C:1]([c:2]1[c:3]([H:11])[o:4][c:5]([H:12])[c:6]1[N:7]([H:13])[H:14])([H:8])([H:9])[H:10]>>[C:1]([c:2]1[c:3]([H:11])[o:4][c-:5][c:6]1[N+:7]([H:12])([H:13])[H:14])([H:8])([H:9])[H:10]"
C       -1.72754079       0.25884424       0.53595003
C       -0.54287328      -0.40005855      -0.08574673
C       -0.31648603      -1.71664993      -0.30478037
O        1.00042727      -1.96031832      -0.49514131
C        1.64337547      -0.76246790      -0.67195938
C        0.68516937       0.20548440      -0.49359161
N        1.37187547       1.38256057      -0.02339903
H       -2.54946939      -0.45177082       0.63201037
H       -2.09818556       1.09262507      -0.06733425
H       -1.51007527       0.63951003       1.53745269
H       -0.97330740      -2.57148373      -0.26156210
H        2.54830936       0.33163751      -0.20225170
H        0.85548059       1.92012184       0.66345267
H        1.61330020       2.03196559      -0.76309929
