17
Frame=0 idx=011647 GeodesicLength=0.0 rxn_smarts="[O:1]([C:2]([C@@:3]1([H:11])[C:4]([H:12])([H:13])[C:5]([H:14])([H:15])[O:6][C:7]1([H:16])[H:17])([H:9])[H:10])[H:8]>>[O:1]=[C:2]([C:3]([C:7]([O:6][C:5]([C:4]([H:8])([H:12])[H:13])([H:14])[H:15])([H:16])[H:17])([H:10])[H:11])[H:9]"
O        2.33230345       0.11089563       0.70387996
C        1.70976493      -0.72075593      -0.10832967
C        0.31926931      -0.90993040       0.27864790
C       -0.03332587       1.42229911       0.42524219
C       -1.39927004       0.97479910      -0.06991727
O       -1.31486385       0.03721356      -1.12879702
C       -0.81786631      -1.19317871      -0.64869646
H        0.96423589       0.80869926       0.73916395
H        1.83084675      -0.57856085      -1.20021879
H        1.97642029      -1.81533702       0.06762322
H        0.18402565      -1.06665256       1.34608055
H       -0.16177093       2.01881137       1.33313424
H        0.43495797       2.04107769      -0.34425493
H       -1.93947659       1.82739087      -0.48288417
H       -2.00669244       0.56056782       0.74767066
H       -0.46486672      -1.76171447      -1.51271157
H       -1.61369145      -1.75562444      -0.14563279
17
Frame=1 idx=011647 GeodesicLength=0.11925496648915235 rxn_smarts="[O:1]([C:2]([C@@:3]1([H:11])[C:4]([H:12])([H:13])[C:5]([H:14])([H:15])[O:6][C:7]1([H:16])[H:17])([H:9])[H:10])[H:8]>>[O:1]=[C:2]([C:3]([C:7]([O:6][C:5]([C:4]([H:8])([H:12])[H:13])([H:14])[H:15])([H:16])[H:17])([H:10])[H:11])[H:9]"
O        2.34434019       0.10284760       0.70216263
C        1.71580816      -0.72213419      -0.11032733
C        0.32271451      -0.90327479       0.27881928
C       -0.03690350       1.42083603       0.42143530
C       -1.40675046       0.97240684      -0.06313910
O       -1.32183703       0.03759361      -1.12450087
C       -0.80937457      -1.19020626      -0.65519085
H        1.00416988       0.83589040       0.75070450
H        1.84098724      -0.58645853      -1.20211341
H        1.92405533      -1.84118784       0.08435520
H        0.18079360      -1.05467273       1.34608439
H       -0.16672954       2.02580533       1.32380171
H        0.42040318       2.03916563      -0.35543795
H       -1.95540742       1.82264205      -0.47016152
H       -2.00674214       0.55438671       0.75777459
H       -0.45103582      -1.74597510      -1.52548638
H       -1.59849161      -1.76766475      -0.15878019
17
Frame=2 idx=011647 GeodesicLength=0.23847661667514433 rxn_smarts="[O:1]([C:2]([C@@:3]1([H:11])[C:4]([H:12])([H:13])[C:5]([H:14])([H:15])[O:6][C:7]1([H:16])[H:17])([H:9])[H:10])[H:8]>>[O:1]=[C:2]([C:3]([C:7]([O:6][C:5]([C:4]([H:8])([H:12])[H:13])([H:14])[H:15])([H:16])[H:17])([H:10])[H:11])[H:9]"
O        2.35559130       0.09465155       0.70116856
C        1.72173717      -0.72423523      -0.11158303
C        0.32583239      -0.89703087       0.27916582
C       -0.04029508       1.41888045       0.41750793
C       -1.41416001       0.96992280      -0.05643770
O       -1.32902907       0.03765319      -1.12010339
C       -0.80116361      -1.18729513      -0.66160179
H        1.04502771       0.86397772       0.76011683
H        1.85083295      -0.59394922      -1.20315589
H        1.87224547      -1.86477285       0.10027495
H        0.17711426      -1.04281744       1.34621944
H       -0.17106457       2.03153821       1.31481693
H        0.40591657       2.03687407      -0.36648812
H       -1.97087827       1.81788040      -0.45758861
H       -2.00679315       0.54840047       0.76779787
H       -0.43747878      -1.73008626      -1.53805572
H       -1.58343527      -1.77959186      -0.17205408
17
Frame=3 idx=011647 GeodesicLength=0.35772386278505963 rxn_smarts="[O:1]([C:2]([C@@:3]1([H:11])[C:4]([H:12])([H:13])[C:5]([H:14])([H:15])[O:6][C:7]1([H:16])[H:17])([H:9])[H:10])[H:8]>>[O:1]=[C:2]([C:3]([C:7]([O:6][C:5]([C:4]([H:8])([H:12])[H:13])([H:14])[H:15])([H:16])[H:17])([H:10])[H:11])[H:9]"
O        2.36603887       0.08642592       0.70084707
C        1.72752520      -0.72697343      -0.11211691
C        0.32861841      -0.89119422       0.27966706
C       -0.04354637       1.41648636       0.41346827
C       -1.42152269       0.96734911      -0.04977972
O       -1.33644182       0.03742601      -1.11560041
C       -0.79322342      -1.18442378      -0.66796959
H        1.08687213       0.89299304       0.76736041
H        1.86045771      -0.60119848      -1.20339240
H        1.82102397      -1.88634050       0.11556276
H        0.17299264      -1.03113784       1.34645200
H       -0.17477773       2.03606724       1.30621931
H        0.39146991       2.03424146      -0.37740052
H       -1.98596061       1.81310388      -0.44510545
H       -2.00685130       0.54257540       0.77777394
H       -0.42416033      -1.71399049      -1.55045916
H       -1.56851457      -1.79140967      -0.18552665
17
Frame=4 idx=011647 GeodesicLength=0.4770224472417651 rxn_smarts="[O:1]([C:2]([C@@:3]1([H:11])[C:4]([H:12])([H:13])[C:5]([H:14])([H:15])[O:6][C:7]1([H:16])[H:17])([H:9])[H:10])[H:8]>>[O:1]=[C:2]([C:3]([C:7]([O:6][C:5]([C:4]([H:8])([H:12])[H:13])([H:14])[H:15])([H:16])[H:17])([H:10])[H:11])[H:9]"
O        2.37565706       0.07828817       0.70116120
C        1.73315061      -0.73027496      -0.11194305
C        0.33106701      -0.88576800       0.28031023
C       -0.04670122       1.41369401       0.40932707
C       -1.42885917       0.96468609      -0.04313968
O       -1.34407523       0.03693764      -1.11098902
C       -0.78554752      -1.18157568      -0.67432804
H        1.12977893       0.92296674       0.77238672
H        1.86991679      -0.60833446      -1.20285421
H        1.77041273      -1.90609297       0.13036314
H        0.16842690      -1.01968842       1.34675821
H       -0.17786113       2.03943478       1.29804095
H        0.37704981       2.03129428      -0.38816022
H       -2.00070943       1.80831149      -0.43266754
H       -2.00692671       0.53688314       0.78772517
H       -0.41105225      -1.69764075      -1.56272581
H       -1.55372720      -1.80312112      -0.19926513
17
Frame=5 idx=011647 GeodesicLength=0.5959124980691929 rxn_smarts="[O:1]([C:2]([C@@:3]1([H:11])[C:4]([H:12])([H:13])[C:5]([H:14])([H:15])[O:6][C:7]1([H:16])[H:17])([H:9])[H:10])[H:8]>>[O:1]=[C:2]([C:3]([C:7]([O:6][C:5]([C:4]([H:8])([H:12])[H:13])([H:14])[H:15])([H:16])[H:17])([H:10])[H:11])[H:9]"
O        2.38432671       0.07044026       0.70210448
C        1.73858567      -0.73407155      -0.11100169
C        0.33315704      -0.88080589       0.28108384
C       -0.04973043       1.41051059       0.40507976
C       -1.43615859       0.96192703      -0.03644338
O       -1.35194225       0.03622661      -1.10623862
C       -0.77811993      -1.17872840      -0.68073533
H        1.17371919       0.95389843       0.77481497
H        1.87928829      -0.61551502      -1.20149322
H        1.72036864      -1.92414232       0.14492973
H        0.16336148      -1.00858085       1.34710561
H       -0.18020138       2.04162784       1.29029556
H        0.36260304       2.02810273      -0.39876761
H       -2.01515519       1.80350479      -0.42013967
H       -2.00697294       0.53127920       0.79773449
H       -0.39806621      -1.68092943      -1.57492445
H       -1.53906315      -1.81474402      -0.21340448
17
Frame=6 idx=011647 GeodesicLength=0.7147827717775388 rxn_smarts="[O:1]([C:2]([C@@:3]1([H:11])[C:4]([H:12])([H:13])[C:5]([H:14])([H:15])[O:6][C:7]1([H:16])[H:17])([H:9])[H:10])[H:8]>>[O:1]=[C:2]([C:3]([C:7]([O:6][C:5]([C:4]([H:8])([H:12])[H:13])([H:14])[H:15])([H:16])[H:17])([H:10])[H:11])[H:9]"
O        2.39205734       0.06298250       0.70361643
C        1.74381791      -0.73829286      -0.10933871
C        0.33489071      -0.87628434       0.28198642
C       -0.05271506       1.40697348       0.40075626
C       -1.44345281       0.95907374      -0.02970569
O       -1.36002522       0.03529975      -1.10136550
C       -0.77093504      -1.17587139      -0.68720160
H        1.21885652       0.98579873       0.77475734
H        1.88858777      -0.62281906      -1.19936916
H        1.67090937      -1.94070919       0.15930482
H        0.15781268      -0.99782885       1.34748862
H       -0.18185831       2.04270179       1.28303462
H        0.34815545       2.02465782      -0.40917246
H       -2.02933862       1.79867954      -0.40755356
H       -2.00703990       0.52575028       0.80776925
H       -0.38520304      -1.66384619      -1.58703941
H       -1.52451975      -1.82626576      -0.22796766
17
Frame=7 idx=011647 GeodesicLength=0.8336288327705411 rxn_smarts="[O:1]([C:2]([C@@:3]1([H:11])[C:4]([H:12])([H:13])[C:5]([H:14])([H:15])[O:6][C:7]1([H:16])[H:17])([H:9])[H:10])[H:8]>>[O:1]=[C:2]([C:3]([C:7]([O:6][C:5]([C:4]([H:8])([H:12])[H:13])([H:14])[H:15])([H:16])[H:17])([H:10])[H:11])[H:9]"
O        2.39880134       0.05606209       0.70565353
C        1.74882875      -0.74286970      -0.10694370
C        0.33625911      -0.87221895       0.28302024
C       -0.05568555       1.40309757       0.39637747
C       -1.45075128       0.95612225      -0.02291002
O       -1.36831406       0.03416965      -1.09636750
C       -0.76397971      -1.17299260      -0.69375075
H        1.26527540       1.01864020       0.77210762
H        1.89784052      -0.63033471      -1.19648001
H        1.62200571      -1.95593366       0.17358989
H        0.15176093      -0.98748739       1.34789818
H       -0.18281880       2.04268063       1.27628937
H        0.33370699       2.02097960      -0.41933740
H       -2.04328195       1.79383442      -0.39488396
H       -2.00713839       0.52027292       0.81783730
H       -0.37242165      -1.64633850      -1.59907783
H       -1.51008734      -1.83768383      -0.24302242
17
Frame=8 idx=011647 GeodesicLength=0.9524383067317977 rxn_smarts="[O:1]([C:2]([C@@:3]1([H:11])[C:4]([H:12])([H:13])[C:5]([H:14])([H:15])[O:6][C:7]1([H:16])[H:17])([H:9])[H:10])[H:8]>>[O:1]=[C:2]([C:3]([C:7]([O:6][C:5]([C:4]([H:8])([H:12])[H:13])([H:14])[H:15])([H:16])[H:17])([H:10])[H:11])[H:9]"
O        2.40451598       0.04984157       0.70816901
C        1.75360761      -0.74774088      -0.10381010
C        0.33725704      -0.86862415       0.28419302
C       -0.05867944       1.39889449       0.39197526
C       -1.45806342       0.95307014      -0.01604957
O       -1.37678948       0.03284584      -1.09124674
C       -0.75724393      -1.17008262      -0.70039604
H        1.31306000       1.05235981       0.76679298
H        1.90706369      -0.63812822      -1.19282682
H        1.57363620      -1.96994337       0.18783892
H        0.14519107      -0.97760137       1.34833625
H       -0.18308393       2.04159214       1.27007970
H        0.31927840       2.01707896      -0.42920819
H       -2.05699936       1.78896968      -0.38212616
H       -2.00729129       0.51482922       0.82793075
H       -0.35969158      -1.62837210      -1.61103194
H       -1.49576756      -1.84898914      -0.25862033
17
Frame=9 idx=011647 GeodesicLength=1.0709081806975294 rxn_smarts="[O:1]([C:2]([C@@:3]1([H:11])[C:4]([H:12])([H:13])[C:5]([H:14])([H:15])[O:6][C:7]1([H:16])[H:17])([H:9])[H:10])[H:8]>>[O:1]=[C:2]([C:3]([C:7]([O:6][C:5]([C:4]([H:8])([H:12])[H:13])([H:14])[H:15])([H:16])[H:17])([H:10])[H:11])[H:9]"
O        2.40914828       0.04447451       0.71110288
C        1.75813293      -0.75282794      -0.09986614
C        0.33787028      -0.86553698       0.28551658
C       -0.06170282       1.39435575       0.38759208
C       -1.46539606       0.94990867      -0.00908294
O       -1.38543736       0.03135191      -1.08598819
C       -0.75069596      -1.16711917      -0.70715771
H        1.36221815       1.08682089       0.75845235
H        1.91628584      -0.64627800      -1.18833492
H        1.52567017      -1.98274304       0.20216801
H        0.13805056      -0.96824106       1.34879042
H       -0.18262100       2.03945272       1.26442832
H        0.30490258       2.01296666      -0.43871087
H       -2.07050109       1.78408273      -0.36922298
H       -2.00750685       0.50938183       0.83807899
H       -0.34689274      -1.60987101      -1.62291962
H       -1.48152491      -1.86017846      -0.27484627
17
Frame=10 idx=011647 GeodesicLength=1.1894073654887978 rxn_smarts="[O:1]([C:2]([C@@:3]1([H:11])[C:4]([H:12])([H:13])[C:5]([H:14])([H:15])[O:6][C:7]1([H:16])[H:17])([H:9])[H:10])[H:8]>>[O:1]=[C:2]([C:3]([C:7]([O:6][C:5]([C:4]([H:8])([H:12])[H:13])([H:14])[H:15])([H:16])[H:17])([H:10])[H:11])[H:9]"
O        2.41268626       0.04015404       0.71434418
C        1.76240608      -0.75808814      -0.09517002
C        0.33810374      -0.86293058       0.28700278
C       -0.06484203       1.38950479       0.38328467
C       -1.47277592       0.94664287      -0.00205586
O       -1.39421706       0.02968213      -1.08062463
C       -0.74433598      -1.16410262      -0.71402574
H        1.41297474       1.12193027       0.74731518
H        1.92548978      -0.65485131      -1.18307497
H        1.47816147      -1.99453471       0.21653439
H        0.13036881      -0.95939383       1.34928095
H       -0.18153456       2.03631223       1.25938291
H        0.29062004       2.00864288      -0.44776418
H       -2.08380017       1.77917889      -0.35626544
H       -2.00785969       0.50393327       0.84820706
H       -0.33406845      -1.59085795      -1.63468137
H       -1.46737708      -1.87122223      -0.29168989
17
Frame=11 idx=011647 GeodesicLength=1.3080326057764606 rxn_smarts="[O:1]([C:2]([C@@:3]1([H:11])[C:4]([H:12])([H:13])[C:5]([H:14])([H:15])[O:6][C:7]1([H:16])[H:17])([H:9])[H:10])[H:8]>>[O:1]=[C:2]([C:3]([C:7]([O:6][C:5]([C:4]([H:8])([H:12])[H:13])([H:14])[H:15])([H:16])[H:17])([H:10])[H:11])[H:9]"
O        2.41514003       0.03701336       0.71779106
C        1.76641958      -0.76344858      -0.08973513
C        0.33796283      -0.86079030       0.28866309
C       -0.06815660       1.38435479       0.37910324
C       -1.48022974       0.94326991       0.00501273
O       -1.40309842       0.02783668      -1.07517368
C       -0.73814436      -1.16102509      -0.72098997
H        1.46549093       1.15752736       0.73342571
H        1.93466245      -0.66388291      -1.17706318
H        1.43104520      -2.00542685       0.23094282
H        0.12215268      -0.95106137       1.34981328
H       -0.17989637       2.03222074       1.25496810
H        0.27646576       2.00411432      -0.45629636
H       -2.09691756       1.77425214      -0.34330050
H       -2.00840583       0.49846804       0.85827535
H       -0.32119105      -1.57132232      -1.64628088
H       -1.45329954      -1.88209992      -0.30915569
17
Frame=12 idx=011647 GeodesicLength=1.4267915772937145 rxn_smarts="[O:1]([C:2]([C@@:3]1([H:11])[C:4]([H:12])([H:13])[C:5]([H:14])([H:15])[O:6][C:7]1([H:16])[H:17])([H:9])[H:10])[H:8]>>[O:1]=[C:2]([C:3]([C:7]([O:6][C:5]([C:4]([H:8])([H:12])[H:13])([H:14])[H:15])([H:16])[H:17])([H:10])[H:11])[H:9]"
O        2.41651771       0.03520845       0.72131976
C        1.77017278      -0.76883701      -0.08357349
C        0.33745673      -0.85910397       0.29050739
C       -0.07170276       1.37891716       0.37510853
C       -1.48778297       0.93978630       0.01210702
O       -1.41204361       0.02582227      -1.06965610
C       -0.73209858      -1.15787697      -0.72804198
H        1.51991322       1.19341963       0.71681648
H        1.94379868      -0.67341562      -1.17031295
H        1.38424065      -2.01550931       0.24540437
H        0.11341377      -0.94324290       1.35039348
H       -0.17778865       2.02723068       1.25120442
H        0.26248224       1.99939179      -0.46422319
H       -2.10987474       1.76929671      -0.33037138
H       -2.00920188       0.49296562       0.86824527
H       -0.30822684      -1.55126508      -1.65768305
H       -1.43927574      -1.89278776      -0.32724458
17
Frame=13 idx=011647 GeodesicLength=1.5456285461847523 rxn_smarts="[O:1]([C:2]([C@@:3]1([H:11])[C:4]([H:12])([H:13])[C:5]([H:14])([H:15])[O:6][C:7]1([H:16])[H:17])([H:9])[H:10])[H:8]>>[O:1]=[C:2]([C:3]([C:7]([O:6][C:5]([C:4]([H:8])([H:12])[H:13])([H:14])[H:15])([H:16])[H:17])([H:10])[H:11])[H:9]"
O        2.41685946       0.03484919       0.72479355
C        1.77366803      -0.77418524      -0.07670457
C        0.33659980      -0.85784362       0.29255146
C       -0.07555040       1.37320913       0.37136780
C       -1.49546758       0.93618893       0.01919706
O       -1.42101070       0.02363926      -1.06409843
C       -0.72617622      -1.15464945      -0.73515737
H        1.57640600       1.22938792       0.69759244
H        1.95288189      -0.68348791      -1.16284620
H        1.33769566      -2.02485164       0.25986561
H        0.10417538      -0.93592029       1.35103526
H       -0.17533062       2.02141522       1.24810413
H        0.24870920       1.99448505      -0.47146005
H       -2.12269896       1.76430406      -0.31754653
H       -2.01031817       0.48740997       0.87806199
H       -0.29515799      -1.53069886      -1.66882353
H       -1.42528478      -1.90325170      -0.34593261
17
Frame=14 idx=011647 GeodesicLength=1.6645003038360162 rxn_smarts="[O:1]([C:2]([C@@:3]1([H:11])[C:4]([H:12])([H:13])[C:5]([H:14])([H:15])[O:6][C:7]1([H:16])[H:17])([H:9])[H:10])[H:8]>>[O:1]=[C:2]([C:3]([C:7]([O:6][C:5]([C:4]([H:8])([H:12])[H:13])([H:14])[H:15])([H:16])[H:17])([H:10])[H:11])[H:9]"
O        2.41619936       0.03607947       0.72805506
C        1.77690717      -0.77942532      -0.06914717
C        0.33540454      -0.85698792       0.29480773
C       -0.07977296       1.36724224       0.36796426
C       -1.50332478       0.93247088       0.02625959
O       -1.42995374       0.02129691      -1.05853327
C       -0.72035493      -1.15133395      -0.74231813
H        1.63519274       1.26518591       0.67579856
H        1.96190036      -0.69414178      -1.15468042
H        1.29133073      -2.03348757       0.27432849
H        0.09445769      -0.92906907       1.35175017
H       -0.17265551       2.01483491       1.24569351
H        0.23519832       1.98940087      -0.47790202
H       -2.13542702       1.75926410      -0.30488562
H       -2.01183699       0.48177048       0.88767308
H       -0.28195361      -1.50963728      -1.67966194
H       -1.41131137      -1.91346288      -0.36520188
17
Frame=15 idx=011647 GeodesicLength=1.7833297633378697 rxn_smarts="[O:1]([C:2]([C@@:3]1([H:11])[C:4]([H:12])([H:13])[C:5]([H:14])([H:15])[O:6][C:7]1([H:16])[H:17])([H:9])[H:10])[H:8]>>[O:1]=[C:2]([C:3]([C:7]([O:6][C:5]([C:4]([H:8])([H:12])[H:13])([H:14])[H:15])([H:16])[H:17])([H:10])[H:11])[H:9]"
O        2.41460259       0.03897853       0.73095026
C        1.77989548      -0.78448748      -0.06092819
C        0.33388942      -0.85649965       0.29728995
C       -0.08445522       1.36103412       0.36498331
C       -1.51140275       0.92862302       0.03326193
O       -1.43882683       0.01880038      -1.05299847
C       -0.71461056      -1.14792120      -0.74949635
H        1.69652646       1.30057261       0.65151891
H        1.97083942      -0.70540959      -1.14583895
H        1.24507552      -2.04144345       0.28875285
H        0.08429179      -0.92264977       1.35255180
H       -0.16992727       2.00756564       1.24399424
H        0.22198415       1.98415362      -0.48344615
H       -2.14810747       1.75416005      -0.29245991
H       -2.01384874       0.47601516       0.89701608
H       -0.26859149      -1.48810641      -1.69013701
H       -1.39733451      -1.92338556      -0.38501429
17
Frame=16 idx=011647 GeodesicLength=1.9020103010376004 rxn_smarts="[O:1]([C:2]([C@@:3]1([H:11])[C:4]([H:12])([H:13])[C:5]([H:14])([H:15])[O:6][C:7]1([H:16])[H:17])([H:9])[H:10])[H:8]>>[O:1]=[C:2]([C:3]([C:7]([O:6][C:5]([C:4]([H:8])([H:12])[H:13])([H:14])[H:15])([H:16])[H:17])([H:10])[H:11])[H:9]"
O        2.41213317       0.04361318       0.73332291
C        1.78263715      -0.78930485      -0.05206817
C        0.33206942      -0.85633522       0.30001434
C       -0.08969121       1.35460378       0.36252222
C       -1.51976105       0.92463385       0.04017299
O       -1.44758199       0.01616185      -1.04753795
C       -0.70891863      -1.14439865      -0.75666435
H        1.76072433       1.33530241       0.62477547
H        1.97968969      -0.71733517      -1.13633444
H        1.19887581      -2.04872156       0.30310453
H        0.07370265      -0.91661658       1.35345541
H       -0.16733712       1.99967158       1.24304872
H        0.20909679       1.97876429      -0.48797516
H       -2.16080252       1.74897274      -0.28034040
H       -2.01645867       0.47010131       0.90602580
H       -0.25504431      -1.46613231      -1.70019000
H       -1.38333350      -1.93298064      -0.40533191
