13
Frame=0 idx=011617 GeodesicLength=0.0 rxn_smarts="[C:1]([O:2][c:3]1[n:4][n:5]([H:11])[c:6]([H:12])[c:7]1[H:13])([H:8])([H:9])[H:10]>>[C:1]([O:2][C:3]1=[C+:7][C:6]([H:12])([H:13])[N:5]([H:11])[N-:4]1)([H:8])([H:9])[H:10]"
C       -2.33334295       0.47821072       0.06022342
O       -1.50961453      -0.67249893       0.04429402
C       -0.19084814      -0.45980059      -0.04330061
N        0.31569937       0.75688476      -0.08422709
N        1.62660261       0.62052270      -0.22680350
C        1.96947656      -0.74471093      -0.13896284
C        0.75425404      -1.53802289      -0.15971905
H       -3.35706891       0.11446167       0.11444155
H       -2.11367769       1.10859933       0.92580204
H       -2.19533846       1.07279902      -0.84677041
H        2.20875613       1.42064769      -0.05426521
H        2.92196559      -1.06554920      -0.54361750
H        1.90313640      -1.09154340       0.95290523
13
Frame=1 idx=011617 GeodesicLength=0.0641259552170186 rxn_smarts="[C:1]([O:2][c:3]1[n:4][n:5]([H:11])[c:6]([H:12])[c:7]1[H:13])([H:8])([H:9])[H:10]>>[C:1]([O:2][C:3]1=[C+:7][C:6]([H:12])([H:13])[N:5]([H:11])[N-:4]1)([H:8])([H:9])[H:10]"
C       -2.33364182       0.47785402       0.05896753
O       -1.50778761      -0.67142206       0.05220491
C       -0.18986885      -0.45688785      -0.04530645
N        0.31557276       0.76069338      -0.09123432
N        1.62772773       0.62382613      -0.21636502
C        1.97193767      -0.74035358      -0.13812216
C        0.75795770      -1.53105349      -0.15166289
H       -3.35649186       0.11266415       0.12001626
H       -2.11254289       1.11704363       0.91770203
H       -2.19959790       1.06391620      -0.85414575
H        2.20929850       1.42598359      -0.05256619
H        2.91862872      -1.05924348      -0.55764657
H        1.89880784      -1.12302064       0.95815863
13
Frame=2 idx=011617 GeodesicLength=0.12825550476923928 rxn_smarts="[C:1]([O:2][c:3]1[n:4][n:5]([H:11])[c:6]([H:12])[c:7]1[H:13])([H:8])([H:9])[H:10]>>[C:1]([O:2][C:3]1=[C+:7][C:6]([H:12])([H:13])[N:5]([H:11])[N-:4]1)([H:8])([H:9])[H:10]"
C       -2.33386847       0.47749642       0.05773162
O       -1.50583682      -0.67023078       0.06044020
C       -0.18881393      -0.45397646      -0.04692889
N        0.31549299       0.76447962      -0.09854775
N        1.62877056       0.62719381      -0.20548778
C        1.97445054      -0.73586840      -0.13678057
C        0.76170508      -1.52394318      -0.14419538
H       -3.35580980       0.11093372       0.12575151
H       -2.11136843       1.12569592       0.90932456
H       -2.20381889       1.05468345      -0.86158952
H        2.20975366       1.43150266      -0.05135455
H        2.91513220      -1.05249544      -0.57130498
H        1.89421131      -1.15547134       0.96294152
13
Frame=3 idx=011617 GeodesicLength=0.19237270153784725 rxn_smarts="[C:1]([O:2][c:3]1[n:4][n:5]([H:11])[c:6]([H:12])[c:7]1[H:13])([H:8])([H:9])[H:10]>>[C:1]([O:2][C:3]1=[C+:7][C:6]([H:12])([H:13])[N:5]([H:11])[N-:4]1)([H:8])([H:9])[H:10]"
C       -2.33401735       0.47713894       0.05653871
O       -1.50377635      -0.66892620       0.06880610
C       -0.18768930      -0.45107199      -0.04826227
N        0.31546337       0.76821381      -0.10618034
N        1.62971256       0.63063659      -0.19422630
C        1.97702366      -0.73124111      -0.13488695
C        0.76551229      -1.51671240      -0.13720571
H       -3.35502273       0.10928953       0.13160452
H       -2.11013579       1.13438892       0.90079357
H       -2.20799135       1.04525435      -0.86896081
H        2.21010938       1.43718391      -0.05083894
H        2.91152275      -1.04530949      -0.58442718
H        1.88928886      -1.18884488       0.96724561
13
Frame=4 idx=011617 GeodesicLength=0.25642617786348104 rxn_smarts="[C:1]([O:2][c:3]1[n:4][n:5]([H:11])[c:6]([H:12])[c:7]1[H:13])([H:8])([H:9])[H:10]>>[C:1]([O:2][C:3]1=[C+:7][C:6]([H:12])([H:13])[N:5]([H:11])[N-:4]1)([H:8])([H:9])[H:10]"
C       -2.33409324       0.47678378       0.05539705
O       -1.50162910      -0.66752999       0.07715534
C       -0.18650250      -0.44819238      -0.04934765
N        0.31548837       0.77188066      -0.11407594
N        1.63053455       0.63420511      -0.18267669
C        1.97966211      -0.72647329      -0.13242357
C        0.76939044      -1.50939417      -0.13054806
H       -3.35414621       0.10773953       0.13749907
H       -2.10886161       1.14299519       0.89222450
H       -2.21208638       1.03577237      -0.87616613
H        2.21037182       1.44301196      -0.05115566
H        2.90783642      -1.03772995      -0.59692058
H        1.88403533      -1.22306882       0.97103832
13
Frame=5 idx=011617 GeodesicLength=0.32067957986681705 rxn_smarts="[C:1]([O:2][c:3]1[n:4][n:5]([H:11])[c:6]([H:12])[c:7]1[H:13])([H:8])([H:9])[H:10]>>[C:1]([O:2][C:3]1=[C+:7][C:6]([H:12])([H:13])[N:5]([H:11])[N-:4]1)([H:8])([H:9])[H:10]"
C       -2.33407222       0.47642904       0.05432842
O       -1.49941016      -0.66607309       0.08516438
C       -0.18525808      -0.44533911      -0.05032821
N        0.31557638       0.77548275      -0.12214224
N        1.63121011       0.63779900      -0.17088150
C        1.98237014      -0.72154470      -0.12932253
C        0.77336047      -1.50199332      -0.12403416
H       -3.35316317       0.10627386       0.14330570
H       -2.10751809       1.15124859       0.88386708
H       -2.21605260       1.02652824      -0.88301155
H        2.21050629       1.44904134      -0.05276269
H        2.90409211      -1.02972878      -0.60860630
H        1.87835882      -1.25812382       0.97442361
13
Frame=6 idx=011617 GeodesicLength=0.384976501047212 rxn_smarts="[C:1]([O:2][c:3]1[n:4][n:5]([H:11])[c:6]([H:12])[c:7]1[H:13])([H:8])([H:9])[H:10]>>[C:1]([O:2][C:3]1=[C+:7][C:6]([H:12])([H:13])[N:5]([H:11])[N-:4]1)([H:8])([H:9])[H:10]"
C       -2.33397516       0.47608212       0.05338321
O       -1.49715170      -0.66462020       0.09257405
C       -0.18396174      -0.44256920      -0.05144356
N        0.31573423       0.77898634      -0.13045417
N        1.63171050       0.64155485      -0.15906367
C        1.98518476      -0.71644171      -0.12552261
C        0.77746863      -1.49457258      -0.11753213
H       -3.35211415       0.10490051       0.14903968
H       -2.10605340       1.15898229       0.87593019
H       -2.21995846       1.01775514      -0.88934369
H        2.21053649       1.45517448      -0.05574926
H        2.90043385      -1.02140474      -0.61922122
H        1.87214615      -1.29382730       0.97740318
13
Frame=7 idx=011617 GeodesicLength=0.44850560444387655 rxn_smarts="[C:1]([O:2][c:3]1[n:4][n:5]([H:11])[c:6]([H:12])[c:7]1[H:13])([H:8])([H:9])[H:10]>>[C:1]([O:2][C:3]1=[C+:7][C:6]([H:12])([H:13])[N:5]([H:11])[N-:4]1)([H:8])([H:9])[H:10]"
C       -2.33370304       0.47571769       0.05270616
O       -1.49483554      -0.66320061       0.09884580
C       -0.18261101      -0.43984130      -0.05313421
N        0.31595791       0.78238972      -0.13918808
N        1.63196353       0.64539746      -0.14760467
C        1.98803998      -0.71110998      -0.12051572
C        0.78168898      -1.48705844      -0.11151798
H       -3.35088042       0.10357062       0.15478540
H       -2.10426717       1.16571378       0.86886804
H       -2.22376453       1.00990107      -0.89476278
H        2.21029625       1.46116537      -0.06077861
H        2.89701846      -1.01272143      -0.62793223
H        1.86509660      -1.32992395       0.98022890
13
Frame=8 idx=011617 GeodesicLength=0.5125728867900492 rxn_smarts="[C:1]([O:2][c:3]1[n:4][n:5]([H:11])[c:6]([H:12])[c:7]1[H:13])([H:8])([H:9])[H:10]>>[C:1]([O:2][C:3]1=[C+:7][C:6]([H:12])([H:13])[N:5]([H:11])[N-:4]1)([H:8])([H:9])[H:10]"
C       -2.33338084       0.47537012       0.05205586
O       -1.49249714      -0.66177318       0.10467988
C       -0.18119566      -0.43713188      -0.05460112
N        0.31625150       0.78573907      -0.14765089
N        1.63205686       0.64933843      -0.13610216
C        1.99098369      -0.70554570      -0.11500074
C        0.78605525      -1.47941052      -0.10518592
H       -3.34962108       0.10231005       0.16015432
H       -2.10257486       1.17199560       0.86216302
H       -2.22734018       1.00248934      -0.89978728
H        2.20988262       1.46710911      -0.06734316
H        2.89362251      -1.00364364      -0.63584244
H        1.85775732      -1.36684681       0.98246065
13
Frame=9 idx=011617 GeodesicLength=0.5766747887551188 rxn_smarts="[C:1]([O:2][c:3]1[n:4][n:5]([H:11])[c:6]([H:12])[c:7]1[H:13])([H:8])([H:9])[H:10]>>[C:1]([O:2][C:3]1=[C+:7][C:6]([H:12])([H:13])[N:5]([H:11])[N-:4]1)([H:8])([H:9])[H:10]"
C       -2.33297156       0.47502693       0.05151249
O       -1.49012102      -0.66037333       0.10994694
C       -0.17971790      -0.43445652      -0.05612302
N        0.31659395       0.78903218      -0.15618709
N        1.63197070       0.65348126      -0.12521052
C        1.99399521      -0.69974041      -0.10886138
C        0.79055468      -1.47167713      -0.09863808
H       -3.34828239       0.10109015       0.16536245
H       -2.10080434       1.17776232       0.85592707
H       -2.23078278       0.99558888      -0.90434214
H        2.20923690       1.47288293      -0.07488602
H        2.89032152      -0.99435309      -0.64266246
H        1.85000702      -1.40426418       0.98416176
13
Frame=10 idx=011617 GeodesicLength=0.6401879719141479 rxn_smarts="[C:1]([O:2][c:3]1[n:4][n:5]([H:11])[c:6]([H:12])[c:7]1[H:13])([H:8])([H:9])[H:10]>>[C:1]([O:2][C:3]1=[C+:7][C:6]([H:12])([H:13])[N:5]([H:11])[N-:4]1)([H:8])([H:9])[H:10]"
C       -2.33245317       0.47468185       0.05114971
O       -1.48769975      -0.65904217       0.11449774
C       -0.17817599      -0.43185463      -0.05794630
N        0.31697083       0.79222464      -0.16506522
N        1.63171341       0.65790055      -0.11541699
C        1.99708030      -0.69367996      -0.10198467
C        0.79519055      -1.46388919      -0.09194849
H       -3.34683418       0.09990591       0.17057358
H       -2.09881797       1.18292993       0.85028518
H       -2.23418300       0.98929161      -0.90832518
H        2.20829767       1.47831098      -0.08302872
H        2.88722351      -0.98499126      -0.64809760
H        1.84168779      -1.44178827       0.98530696
13
Frame=11 idx=011617 GeodesicLength=0.7038753603804541 rxn_smarts="[C:1]([O:2][c:3]1[n:4][n:5]([H:11])[c:6]([H:12])[c:7]1[H:13])([H:8])([H:9])[H:10]>>[C:1]([O:2][C:3]1=[C+:7][C:6]([H:12])([H:13])[N:5]([H:11])[N-:4]1)([H:8])([H:9])[H:10]"
C       -2.33185472       0.47433619       0.05091234
O       -1.48522849      -0.65773355       0.11864654
C       -0.17657994      -0.42928990      -0.05993955
N        0.31734555       0.79534146      -0.17436005
N        1.63128590       0.66248954      -0.10684272
C        2.00021872      -0.68738900      -0.09466478
C        0.79995321      -1.45598860      -0.08484508
H       -3.34529286       0.09875850       0.17587122
H       -2.09665669       1.18777114       0.84495476
H       -2.23759272       0.98329945      -0.91196228
H        2.20716151       1.48373778      -0.09110830
H        2.88427293      -0.97563645      -0.65249377
H        1.83296759      -1.47969657       0.98583167
13
Frame=12 idx=011617 GeodesicLength=0.7676084841399432 rxn_smarts="[C:1]([O:2][c:3]1[n:4][n:5]([H:11])[c:6]([H:12])[c:7]1[H:13])([H:8])([H:9])[H:10]>>[C:1]([O:2][C:3]1=[C+:7][C:6]([H:12])([H:13])[N:5]([H:11])[N-:4]1)([H:8])([H:9])[H:10]"
C       -2.33120732       0.47399152       0.05069285
O       -1.48269738      -0.65639121       0.12286600
C       -0.17491114      -0.42671489      -0.06158666
N        0.31772487       0.79841698      -0.18369449
N        1.63074653       0.66729737      -0.09932884
C        2.00340767      -0.68086215      -0.08703070
C        0.80480933      -1.44794993      -0.07727170
H       -3.34369535       0.09764518       0.18109078
H       -2.09453588       1.19258675       0.83962543
H       -2.24088275       0.97727771      -0.91553034
H        2.20586727       1.48914849      -0.09896553
H        2.88131773      -0.96626075      -0.65626149
H        1.82405644      -1.51818507       0.98539469
13
Frame=13 idx=011617 GeodesicLength=0.831360046356899 rxn_smarts="[C:1]([O:2][c:3]1[n:4][n:5]([H:11])[c:6]([H:12])[c:7]1[H:13])([H:8])([H:9])[H:10]>>[C:1]([O:2][C:3]1=[C+:7][C:6]([H:12])([H:13])[N:5]([H:11])[N-:4]1)([H:8])([H:9])[H:10]"
C       -2.33051907       0.47364724       0.05047419
O       -1.48009553      -0.65498586       0.12733816
C       -0.17316602      -0.42410790      -0.06278869
N        0.31810437       0.80145779      -0.19304985
N        1.63010486       0.67233882      -0.09278362
C        2.00664726      -0.67408146      -0.07907287
C        0.80975642      -1.43975600      -0.06924552
H       -3.34204570       0.09656966       0.18626797
H       -2.09248558       1.19750655       0.83416462
H       -2.24405598       0.97107218      -0.91912444
H        2.20443552       1.49459964      -0.10656969
H        2.87836428      -0.95684334      -0.65941443
H        1.81495517      -1.55741732       0.98380417
13
Frame=14 idx=011617 GeodesicLength=0.8951026945229292 rxn_smarts="[C:1]([O:2][c:3]1[n:4][n:5]([H:11])[c:6]([H:12])[c:7]1[H:13])([H:8])([H:9])[H:10]>>[C:1]([O:2][C:3]1=[C+:7][C:6]([H:12])([H:13])[N:5]([H:11])[N-:4]1)([H:8])([H:9])[H:10]"
C       -2.32981439       0.47330350       0.05019537
O       -1.47740689      -0.65345186       0.13243435
C       -0.17133413      -0.42141476      -0.06323230
N        0.31848989       0.80449812      -0.20223732
N        1.62939733       0.67761772      -0.08703613
C        2.00994025      -0.66703920      -0.07083119
C        0.81478141      -1.43137035      -0.06077058
H       -3.34036646       0.09553509       0.19137184
H       -2.09063290       1.20277904       0.82830619
H       -2.24706519       0.96438786      -0.92294552
H        2.20289978       1.50013709      -0.11386574
H        2.87535606      -0.94733375      -0.66211239
H        1.80575523      -1.59764851       0.98072344
13
Frame=15 idx=011617 GeodesicLength=0.958839705821773 rxn_smarts="[C:1]([O:2][c:3]1[n:4][n:5]([H:11])[c:6]([H:12])[c:7]1[H:13])([H:8])([H:9])[H:10]>>[C:1]([O:2][C:3]1=[C+:7][C:6]([H:12])([H:13])[N:5]([H:11])[N-:4]1)([H:8])([H:9])[H:10]"
C       -2.32909277       0.47295896       0.04987277
O       -1.47461935      -0.65176807       0.13820984
C       -0.16941562      -0.41862299      -0.06296831
N        0.31887898       0.80753415      -0.21132577
N        1.62862714       0.68315347      -0.08194093
C        2.01329401      -0.65970530      -0.06220397
C        0.81989698      -1.42277548      -0.05187110
H       -3.33865035       0.09454791       0.19648848
H       -2.08895193       1.20844938       0.82200019
H       -2.24995239       0.95715324      -0.92700561
H        2.20126413       1.50580755      -0.12102564
H        2.87236641      -0.93768788      -0.66417499
H        1.79635475      -1.63904493       0.97594504
13
Frame=16 idx=011617 GeodesicLength=1.0225648652489647 rxn_smarts="[C:1]([O:2][c:3]1[n:4][n:5]([H:11])[c:6]([H:12])[c:7]1[H:13])([H:8])([H:9])[H:10]>>[C:1]([O:2][C:3]1=[C+:7][C:6]([H:12])([H:13])[N:5]([H:11])[N-:4]1)([H:8])([H:9])[H:10]"
C       -2.32832168       0.47261061       0.04960438
O       -1.47173864      -0.64999626       0.14423565
C       -0.16741947      -0.41578716      -0.06243814
N        0.31924918       0.81050909      -0.22071678
N        1.62776884       0.68894756      -0.07765310
C        2.01671299      -0.65204599      -0.05301902
C        0.82513708      -1.41397558      -0.04244972
H       -3.33685231       0.09360903       0.20179233
H       -2.08723371       1.21425986       0.81551700
H       -2.25284562       0.94964687      -0.93106985
H        2.19947353       1.51166592      -0.12818634
H        2.86956035      -0.92798294      -0.66516476
H        1.78650945      -1.68146101       0.96954834
