16
Frame=0 idx=004117 GeodesicLength=0.0 rxn_smarts="[C:1]([O:2][C@@:3]([C:4]([H:11])([H:12])[H:13])([C:5]([O:6][H:16])([H:14])[H:15])[H:10])([H:7])([H:8])[H:9]>>[C:1]([O:6][C:5]([C@@:3]([O:2][H:16])([C:4]([H:11])([H:12])[H:13])[H:10])([H:14])[H:15])([H:7])([H:8])[H:9]"
C        1.14134553       1.84394777      -0.23632242
O        0.94155036      -0.02908890       0.78020561
C        0.14940021      -0.71784027      -0.10629631
C       -0.33468096      -2.04551658       0.45401386
C       -1.05867551       0.24070940      -0.42320488
O       -0.73904889       1.46137963       0.24468043
H        1.54690180       1.19431286      -0.99774771
H        0.67431024       2.74489972      -0.61503553
H        1.78516861       1.99259128       0.61679130
H        0.68664872      -0.92130146      -1.05263568
H        0.51215518      -2.70175821       0.65702326
H       -1.00465854      -2.55041063      -0.24917932
H       -0.87174094      -1.88282873       1.39180343
H       -1.20241583       0.45202599      -1.48296348
H       -1.99349935      -0.13879314      -0.00144697
H       -0.23276064       1.05767123       1.02031445
16
Frame=1 idx=004117 GeodesicLength=0.08988774832698375 rxn_smarts="[C:1]([O:2][C@@:3]([C:4]([H:11])([H:12])[H:13])([C:5]([O:6][H:16])([H:14])[H:15])[H:10])([H:7])([H:8])[H:9]>>[C:1]([O:6][C:5]([C@@:3]([O:2][H:16])([C:4]([H:11])([H:12])[H:13])[H:10])([H:14])[H:15])([H:7])([H:8])[H:9]"
C        1.14991321       1.83356425      -0.23967109
O        0.92176386      -0.02217514       0.80091491
C        0.13884911      -0.70960356      -0.09968360
C       -0.33182894      -2.04842306       0.44282642
C       -1.07054924       0.24329751      -0.41196281
O       -0.74706850       1.46926409       0.24415891
H        1.59047213       1.17827654      -0.97775722
H        0.69379766       2.71975867      -0.66609541
H        1.78119268       2.02145201       0.61586965
H        0.67791718      -0.89930663      -1.04746886
H        0.52348546      -2.69519719       0.64084942
H       -0.99273453      -2.55118796      -0.27018801
H       -0.87550049      -1.90313083       1.37955773
H       -1.22280870       0.43871705      -1.47354965
H       -1.99954618      -0.13445176       0.02426914
H       -0.23735472       1.05914600       1.03793048
16
Frame=2 idx=004117 GeodesicLength=0.1797685281497815 rxn_smarts="[C:1]([O:2][C@@:3]([C:4]([H:11])([H:12])[H:13])([C:5]([O:6][H:16])([H:14])[H:15])[H:10])([H:7])([H:8])[H:9]>>[C:1]([O:6][C:5]([C@@:3]([O:2][H:16])([C:4]([H:11])([H:12])[H:13])[H:10])([H:14])[H:15])([H:7])([H:8])[H:9]"
C        1.15860895       1.82267742      -0.24282868
O        0.90193170      -0.01530683       0.82108417
C        0.12818148      -0.70120766      -0.09343026
C       -0.32870747      -2.05083222       0.43134233
C       -1.08268722       0.24599903      -0.40066588
O       -0.75525126       1.47723630       0.24339904
H        1.63473732       1.16214658      -0.95513289
H        0.71405472       2.69140296      -0.71721141
H        1.77621973       2.05136971       0.61358903
H        0.66872563      -0.87711541      -1.04267648
H        0.53505512      -2.68787513       0.62444315
H       -0.98064500      -2.55129542      -0.29126965
H       -0.87865033      -1.92299235       1.36685914
H       -1.24390250       0.42540576      -1.46373796
H       -2.00545955      -0.13003983       0.05029006
H       -0.24221132       1.06042709       1.05594630
16
Frame=3 idx=004117 GeodesicLength=0.2696420322378337 rxn_smarts="[C:1]([O:2][C@@:3]([C:4]([H:11])([H:12])[H:13])([C:5]([O:6][H:16])([H:14])[H:15])[H:10])([H:7])([H:8])[H:9]>>[C:1]([O:6][C:5]([C@@:3]([O:2][H:16])([C:4]([H:11])([H:12])[H:13])[H:10])([H:14])[H:15])([H:7])([H:8])[H:9]"
C        1.16745123       1.81129412      -0.24577606
O        0.88206605      -0.00848172       0.84072977
C        0.11741103      -0.69263912      -0.08752949
C       -0.32531946      -2.05272889       0.41955004
C       -1.09507086       0.24881178      -0.38931263
O       -0.76358606       1.48529645       0.24238231
H        1.67945154       1.14604090      -0.92980336
H        0.73514228       2.65967768      -0.76820900
H        1.77029215       2.08229724       0.60969939
H        0.65910504      -0.85469290      -1.03823387
H        0.54684604      -2.67977123       0.60781064
H       -0.96837467      -2.55072371      -0.31245353
H       -0.88121256      -1.94240443       1.35368096
H       -1.26567245       0.41208405      -1.45350946
H       -2.01120335      -0.12555695       0.07660201
H       -0.24732595       1.06149672       1.07437229
16
Frame=4 idx=004117 GeodesicLength=0.3594654823353903 rxn_smarts="[C:1]([O:2][C@@:3]([C:4]([H:11])([H:12])[H:13])([C:5]([O:6][H:16])([H:14])[H:15])[H:10])([H:7])([H:8])[H:9]>>[C:1]([O:6][C:5]([C@@:3]([O:2][H:16])([C:4]([H:11])([H:12])[H:13])[H:10])([H:14])[H:15])([H:7])([H:8])[H:9]"
C        1.17645469       1.79942400      -0.24849377
O        0.86218600      -0.00169865       0.85985943
C        0.10655680      -0.68388960      -0.08197815
C       -0.32166411      -2.05409742       0.40744780
C       -1.10768087       0.25173065      -0.37791467
O       -0.77206017       1.49344121       0.24108527
H        1.72430563       1.13009251      -0.90173939
H        0.75715989       2.62445770      -0.81881387
H        1.76346097       2.11416806       0.60392547
H        0.64909855      -0.83202186      -1.03412675
H        0.55884828      -2.67086757       0.59097109
H       -0.95591481      -2.54946257      -0.33375609
H       -0.88320423      -1.96134642       1.34001178
H       -1.28809016       0.39873789      -1.44286571
H       -2.01675209      -0.12100194       0.10317585
H       -0.25270436       1.06233400       1.09321172
16
Frame=5 idx=004117 GeodesicLength=0.4494142831516172 rxn_smarts="[C:1]([O:2][C@@:3]([C:4]([H:11])([H:12])[H:13])([C:5]([O:6][H:16])([H:14])[H:15])[H:10])([H:7])([H:8])[H:9]>>[C:1]([O:6][C:5]([C@@:3]([O:2][H:16])([C:4]([H:11])([H:12])[H:13])[H:10])([H:14])[H:15])([H:7])([H:8])[H:9]"
C        1.18566427       1.78709740      -0.25097473
O        0.84231250       0.00504148       0.87849850
C        0.09563077      -0.67498731      -0.07675482
C       -0.31777439      -2.05495262       0.39505309
C       -1.12045346       0.25474156      -0.36650567
O       -0.78064958       1.50166307       0.23944263
H        1.76899679       1.11441060      -0.87113343
H        0.77997492       2.58593525      -0.86854967
H        1.75586100       2.14687241       0.59596215
H        0.63876726      -0.80916563      -1.03027463
H        0.57099079      -2.66120766       0.57399473
H       -0.94326562      -2.54753214      -0.35517775
H       -0.88469600      -1.97979642       1.32583463
H       -1.31102706       0.38532468      -1.43181450
H       -2.02204878      -0.11636103       0.12991614
H       -0.25828342       1.06291638       1.11248334
16
Frame=6 idx=004117 GeodesicLength=0.539391179319982 rxn_smarts="[C:1]([O:2][C@@:3]([C:4]([H:11])([H:12])[H:13])([C:5]([O:6][H:16])([H:14])[H:15])[H:10])([H:7])([H:8])[H:9]>>[C:1]([O:6][C:5]([C@@:3]([O:2][H:16])([C:4]([H:11])([H:12])[H:13])[H:10])([H:14])[H:15])([H:7])([H:8])[H:9]"
C        1.19505934       1.77434363      -0.25313343
O        0.82247385       0.01173463       0.89663589
C        0.08465637      -0.66591941      -0.07186341
C       -0.31363727      -2.05527446       0.38237580
C       -1.13338351       0.25784119      -0.35509870
O       -0.78936242       1.50994603       0.23747632
H        1.81321895       1.09917930      -0.83801858
H        0.80374528       2.54402372      -0.91730065
H        1.74757918       2.18024260       0.58564779
H        0.62814249      -0.78610415      -1.02669293
H        0.58328858      -2.65076609       0.55689685
H       -0.93042230      -2.54491767      -0.37671487
H       -0.88567841      -1.99772840       1.31116847
H       -1.33446674       0.37186076      -1.42037251
H       -2.02709787      -0.11164389       0.15678843
H       -0.26411553       1.06318221       1.13220552
16
Frame=7 idx=004117 GeodesicLength=0.629323280507402 rxn_smarts="[C:1]([O:2][C@@:3]([C:4]([H:11])([H:12])[H:13])([C:5]([O:6][H:16])([H:14])[H:15])[H:10])([H:7])([H:8])[H:9]>>[C:1]([O:6][C:5]([C@@:3]([O:2][H:16])([C:4]([H:11])([H:12])[H:13])[H:10])([H:14])[H:15])([H:7])([H:8])[H:9]"
C        1.20463633       1.76121168      -0.25492042
O        0.80269616       0.01837953       0.91428034
C        0.07365942      -0.65668822      -0.06730254
C       -0.30925265      -2.05504984       0.36942843
C       -1.14644005       0.26102520      -0.34372069
O       -0.79818872       1.51827776       0.23516672
H        1.85656616       1.08460022      -0.80250227
H        0.82859839       2.49868329      -0.96466591
H        1.73869638       2.21409922       0.57266219
H        0.61727650      -0.76286602      -1.02336451
H        0.59573059      -2.63953619       0.53971786
H       -0.91737659      -2.54161562      -0.39836712
H       -0.88616826      -2.01510633       1.29601954
H       -1.35834417       0.35833069      -1.40855778
H       -2.03187665      -0.10684136       0.18372637
H       -0.27021282       1.06309600       1.15239977
16
Frame=8 idx=004117 GeodesicLength=0.7192060538073812 rxn_smarts="[C:1]([O:2][C@@:3]([C:4]([H:11])([H:12])[H:13])([C:5]([O:6][H:16])([H:14])[H:15])[H:10])([H:7])([H:8])[H:9]>>[C:1]([O:6][C:5]([C@@:3]([O:2][H:16])([C:4]([H:11])([H:12])[H:13])[H:10])([H:14])[H:15])([H:7])([H:8])[H:9]"
C        1.21435844       1.74776524      -0.25629901
O        0.78300324       0.02498385       0.93141458
C        0.06265694      -0.64730031      -0.06306994
C       -0.30462353      -2.05427551       0.35624291
C       -1.15959618       0.26428002      -0.33240706
O       -0.80713896       1.52663975       0.23249418
H        1.89874376       1.07082405      -0.76479919
H        0.85458180       2.45005388      -1.01025877
H        1.72938508       2.24821673       0.55680872
H        0.60620393      -0.73948362      -1.02027903
H        0.60830064      -2.62752312       0.52251659
H       -0.90412808      -2.53763569      -0.42010232
H       -0.88618335      -2.03189782       1.28041371
H       -1.38259140       0.34472044      -1.39640060
H       -2.03637359      -0.10196543       0.21064715
H       -0.27659875       1.06259754       1.17307808
16
Frame=9 idx=004117 GeodesicLength=0.809295585948664 rxn_smarts="[C:1]([O:2][C@@:3]([C:4]([H:11])([H:12])[H:13])([C:5]([O:6][H:16])([H:14])[H:15])[H:10])([H:7])([H:8])[H:9]>>[C:1]([O:6][C:5]([C@@:3]([O:2][H:16])([C:4]([H:11])([H:12])[H:13])[H:10])([H:14])[H:15])([H:7])([H:8])[H:9]"
C        1.22425521       1.73406935      -0.25726223
O        0.76342593       0.03156104       0.94806678
C        0.05165845      -0.63779019      -0.05913569
C       -0.29978968      -2.05297460       0.34286034
C       -1.17278094       0.26758751      -0.32120715
O       -0.81622005       1.53501173       0.22939151
H        1.93962105       1.05795927      -0.72530109
H        0.88140073       2.39854745      -1.05361250
H        1.71984761       2.28233255       0.53791445
H        0.59496400      -0.71605950      -1.01735056
H        0.62091601      -2.61478651       0.50537849
H       -0.89068271      -2.53301135      -0.44188955
H       -0.88580711      -2.04807821       1.26435558
H       -1.40703661       0.33099636      -1.38392791
H       -2.04055205      -0.09700893       0.23741811
H       -0.28321983       1.06164403       1.19430142
16
Frame=10 idx=004117 GeodesicLength=0.8993411392291366 rxn_smarts="[C:1]([O:2][C@@:3]([C:4]([H:11])([H:12])[H:13])([C:5]([O:6][H:16])([H:14])[H:15])[H:10])([H:7])([H:8])[H:9]>>[C:1]([O:6][C:5]([C@@:3]([O:2][H:16])([C:4]([H:11])([H:12])[H:13])[H:10])([H:14])[H:15])([H:7])([H:8])[H:9]"
C        1.23424083       1.72019254      -0.25773976
O        0.74398940       0.03810351       0.96419651
C        0.04068554      -0.62814789      -0.05551903
C       -0.29472826      -2.05112804       0.32930544
C       -1.18601126       0.27093927      -0.31013279
O       -0.82543947       1.54337223       0.22589596
H        1.97885956       1.04621341      -0.68411158
H        0.90940109       2.34420786      -1.09451259
H        1.71016114       2.31617233       0.51581128
H        0.58357456      -0.69259189      -1.01464769
H        0.63361879      -2.60129950       0.48832082
H       -0.87704920      -2.52773556      -0.46369455
H       -0.88499247      -2.06361401       1.24790864
H       -1.43170328       0.31716036      -1.37116949
H       -2.04444464      -0.09198772       0.26401807
H       -0.29016232       1.06014309       1.21607077
16
Frame=11 idx=004117 GeodesicLength=0.9893831033820865 rxn_smarts="[C:1]([O:2][C@@:3]([C:4]([H:11])([H:12])[H:13])([C:5]([O:6][H:16])([H:14])[H:15])[H:10])([H:7])([H:8])[H:9]>>[C:1]([O:6][C:5]([C@@:3]([O:2][H:16])([C:4]([H:11])([H:12])[H:13])[H:10])([H:14])[H:15])([H:7])([H:8])[H:9]"
C        1.24427911       1.70620682      -0.25772655
O        0.72471726       0.04462282       0.97979335
C        0.02974516      -0.61838336      -0.05221349
C       -0.28944819      -2.04874208       0.31561107
C       -1.19926499       0.27432142      -0.29920899
O       -0.83481696       1.55170428       0.22198733
H        2.01633621       1.03570712      -0.64149470
H        0.93855470       2.28732814      -1.13268135
H        1.70047249       2.34943630       0.49041993
H        0.57204441      -0.66912681      -1.01215981
H        0.64638662      -2.58708336       0.47138633
H       -0.86323504      -2.52182777      -0.48547925
H       -0.88375618      -2.07848532       1.23110582
H       -1.45652530       0.30319593      -1.35814007
H       -2.04804832      -0.08690976       0.29037788
H       -0.29744097       1.05803562       1.23842250
16
Frame=12 idx=004117 GeodesicLength=1.0795141918371856 rxn_smarts="[C:1]([O:2][C@@:3]([C:4]([H:11])([H:12])[H:13])([C:5]([O:6][H:16])([H:14])[H:15])[H:10])([H:7])([H:8])[H:9]>>[C:1]([O:6][C:5]([C@@:3]([O:2][H:16])([C:4]([H:11])([H:12])[H:13])[H:10])([H:14])[H:15])([H:7])([H:8])[H:9]"
C        1.25433113       1.69216966      -0.25722651
O        0.70562819       0.05113466       0.99485947
C        0.01883759      -0.60849730      -0.04920240
C       -0.28396130      -2.04582139       0.30181129
C       -1.21253037       0.27771822      -0.28845217
O       -0.84438556       1.56000518       0.21765307
H        2.05205584       1.02646735      -0.59775296
H        0.96879554       2.22830518      -1.16798148
H        1.69091138       2.38182252       0.46178727
H        0.56036977      -0.64568210      -1.00986695
H        0.65920214      -2.57214817       0.45461882
H       -0.84924510      -2.51530838      -0.50720722
H       -0.88211479      -2.09267872       1.21398098
H       -1.48144741       0.28908083      -1.34485320
H       -2.05137118      -0.08179212       0.31644747
H       -0.30507586       1.05522457       1.26138453
16
Frame=13 idx=004117 GeodesicLength=1.16987816818777 rxn_smarts="[C:1]([O:2][C@@:3]([C:4]([H:11])([H:12])[H:13])([C:5]([O:6][H:16])([H:14])[H:15])[H:10])([H:7])([H:8])[H:9]>>[C:1]([O:6][C:5]([C@@:3]([O:2][H:16])([C:4]([H:11])([H:12])[H:13])[H:10])([H:14])[H:15])([H:7])([H:8])[H:9]"
C        1.26439615       1.67814001      -0.25626666
O        0.68673547       0.05765830       1.00941203
C        0.00796311      -0.59850586      -0.04646893
C       -0.27828687      -2.04238184       0.28792751
C       -1.22577870       0.28112359      -0.27788313
O       -0.85416267       1.56826535       0.21285001
H        2.08603504       1.01856918      -0.55310024
H        0.99992169       2.16748897      -1.20019292
H        1.68162149       2.41304195       0.42982858
H        0.54855794      -0.62231039      -1.00773251
H        0.67202645      -2.55653175       0.43805591
H       -0.83507553      -2.50819918      -0.52886345
H       -0.88011244      -2.10619145       1.19654260
H       -1.50638170       0.27480197      -1.33131321
H       -2.05441033      -0.07662316       0.34216188
H       -0.31304910       1.05165431       1.28504253
16
Frame=14 idx=004117 GeodesicLength=1.2603025369639362 rxn_smarts="[C:1]([O:2][C@@:3]([C:4]([H:11])([H:12])[H:13])([C:5]([O:6][H:16])([H:14])[H:15])[H:10])([H:7])([H:8])[H:9]>>[C:1]([O:6][C:5]([C@@:3]([O:2][H:16])([C:4]([H:11])([H:12])[H:13])[H:10])([H:14])[H:15])([H:7])([H:8])[H:9]"
C        1.27439048       1.66417289      -0.25486923
O        0.66806121       0.06420445       1.02341679
C       -0.00287291      -0.58839726      -0.04402349
C       -0.27240998      -2.03841299       0.27399058
C       -1.23903492       0.28452258      -0.26750238
O       -0.86416772       1.57647734       0.20757521
H        2.11813522       1.01213938      -0.50773738
H        1.03220071       2.10513637      -1.22920414
H        1.67266500       2.44274558       0.39461316
H        0.53659500      -0.59900612      -1.00581491
H        0.68488677      -2.54021663       0.42169819
H       -0.82075430      -2.50050669      -0.55039760
H       -0.87769913      -2.11900124       1.17886543
H       -1.53137422       0.26032656      -1.31752500
H       -2.05719594      -0.07141481       0.36753270
H       -0.32142526       1.04723059       1.30938207
16
Frame=15 idx=004117 GeodesicLength=1.3508057731121252 rxn_smarts="[C:1]([O:2][C@@:3]([C:4]([H:11])([H:12])[H:13])([C:5]([O:6][H:16])([H:14])[H:15])[H:10])([H:7])([H:8])[H:9]>>[C:1]([O:6][C:5]([C@@:3]([O:2][H:16])([C:4]([H:11])([H:12])[H:13])[H:10])([H:14])[H:15])([H:7])([H:8])[H:9]"
C        1.28428334       1.65031682      -0.25309713
O        0.64962167       0.07079854       1.03686562
C       -0.01367347      -0.57816909      -0.04186092
C       -0.26633532      -2.03391721       0.26002152
C       -1.25229738       0.28790936      -0.25731510
O       -0.87442499       1.58463994       0.20179555
H        2.14838973       1.00723654      -0.46185495
H        1.06559691       2.04155066      -1.25494384
H        1.66411415       2.47060950       0.35623897
H        0.52446494      -0.57578242      -1.00411623
H        0.69777658      -2.52321190       0.40555266
H       -0.80629508      -2.49224410      -0.57177982
H       -0.87487065      -2.13109950       1.16098437
H       -1.55640214       0.24563557      -1.30347894
H       -2.05973434      -0.06616021       0.39254216
H       -0.33021396       1.04188750       1.33444608
16
Frame=16 idx=004117 GeodesicLength=1.4413843551757721 rxn_smarts="[C:1]([O:2][C@@:3]([C:4]([H:11])([H:12])[H:13])([C:5]([O:6][H:16])([H:14])[H:15])[H:10])([H:7])([H:8])[H:9]>>[C:1]([O:6][C:5]([C@@:3]([O:2][H:16])([C:4]([H:11])([H:12])[H:13])[H:10])([H:14])[H:15])([H:7])([H:8])[H:9]"
C        1.29404858       1.63660434      -0.25101437
O        0.63142904       0.07745876       1.04974999
C       -0.02444391      -0.56782078      -0.03997917
C       -0.26006924      -2.02889778       0.24603472
C       -1.26556860       0.29127747      -0.24732010
O       -0.88494699       1.59275121       0.19546901
H        2.17681591       1.00393052      -0.41559793
H        1.10014378       1.97702154      -1.27734080
H        1.65600795       2.49635207       0.31476848
H        0.51214896      -0.55264708      -1.00264696
H        0.71068803      -2.50552844       0.38960658
H       -0.79172435      -2.48342128      -0.59298184
H       -0.87161559      -2.14248380       1.14293572
H       -1.58146080       0.23070275      -1.28915689
H       -2.06202978      -0.06084854       0.41719469
H       -0.33942298       1.03554906       1.36027887
