16
Frame=0 idx=008577 GeodesicLength=0.0 rxn_smarts="[C:1]([c:2]1[c:3]([H:11])[c:4]([C:5]([H:12])([H:13])[H:14])[c:6]([H:15])[n:7]1[H:16])([H:8])([H:9])[H:10]>>[C:1]([C:2]1=[C:3]([H:11])[C@@:4]([C:5]([H:12])([H:13])[H:14])([H:15])[C:6][N:7]1[H:16])([H:8])([H:9])[H:10]"
C        2.54415657      -0.35108337      -0.07595082
C        1.09764631       0.00459871      -0.04860552
C       -0.00224801      -0.78054881       0.05115560
C       -1.14417675       0.10781575       0.04382957
C       -2.57672163      -0.31608885      -0.09612423
C       -0.69381393       1.47547659      -0.11451203
N        0.67253067       1.31045285      -0.10341611
H        3.07139951       0.07909872       0.77857973
H        2.67062662      -1.43180804      -0.04380958
H        3.01909698       0.02257977      -0.98571252
H       -0.01484845      -1.85754001       0.12229248
H       -3.23797002       0.53721198       0.05370314
H       -2.84079666      -1.10398256       0.61135875
H       -2.74773753      -0.69838593      -1.10377807
H       -1.11734361       0.90768795       1.03091113
H        1.30019997       2.09451521      -0.11992159
16
Frame=1 idx=008577 GeodesicLength=0.04313591901264611 rxn_smarts="[C:1]([c:2]1[c:3]([H:11])[c:4]([C:5]([H:12])([H:13])[H:14])[c:6]([H:15])[n:7]1[H:16])([H:8])([H:9])[H:10]>>[C:1]([C:2]1=[C:3]([H:11])[C@@:4]([C:5]([H:12])([H:13])[H:14])([H:15])[C:6][N:7]1[H:16])([H:8])([H:9])[H:10]"
C        2.54376715      -0.35300328      -0.08559827
C        1.09786120       0.00305977      -0.04164083
C       -0.00182301      -0.77952261       0.07419320
C       -1.14500945       0.10852810       0.06363104
C       -2.57393954      -0.31800842      -0.10453050
C       -0.69177548       1.47248442      -0.10765730
N        0.67283478       1.31048431      -0.09758610
H        3.08098714       0.07661120       0.76304753
H        2.66979758      -1.43385177      -0.05536721
H        3.00927073       0.02019905      -1.00048309
H       -0.01440155      -1.85676406       0.14242147
H       -3.24052865       0.53275881       0.03582990
H       -2.84792994      -1.10764071       0.59731521
H       -2.72697260      -0.69947086      -1.11544175
H       -1.13291346       0.92980023       1.04809344
H        1.30077510       2.09433579      -0.11622674
16
Frame=2 idx=008577 GeodesicLength=0.08628189287459219 rxn_smarts="[C:1]([c:2]1[c:3]([H:11])[c:4]([C:5]([H:12])([H:13])[H:14])[c:6]([H:15])[n:7]1[H:16])([H:8])([H:9])[H:10]>>[C:1]([C:2]1=[C:3]([H:11])[C@@:4]([C:5]([H:12])([H:13])[H:14])([H:15])[C:6][N:7]1[H:16])([H:8])([H:9])[H:10]"
C        2.54303998      -0.35506276      -0.09542991
C        1.09796764       0.00152839      -0.03486226
C       -0.00139674      -0.77829183       0.09719227
C       -1.14593029       0.10939757       0.08349387
C       -2.57064995      -0.32003911      -0.11295572
C       -0.68976645       1.46955849      -0.10051309
N        0.67310485       1.31056467      -0.09162918
H        3.09019526       0.07373753       0.74732398
H        2.66846646      -1.43605626      -0.06732616
H        2.99911515       0.01782997      -1.01524682
H       -0.01395627      -1.85574491       0.16321853
H       -3.24262327       0.52804410       0.01774113
H       -2.85440444      -1.11142180       0.58311055
H       -2.70552028      -0.70068428      -1.12681083
H       -1.14899441       0.95246182       1.06473055
H        1.30135276       2.09417840      -0.11203692
16
Frame=3 idx=008577 GeodesicLength=0.12941831620826202 rxn_smarts="[C:1]([c:2]1[c:3]([H:11])[c:4]([C:5]([H:12])([H:13])[H:14])[c:6]([H:15])[n:7]1[H:16])([H:8])([H:9])[H:10]>>[C:1]([C:2]1=[C:3]([H:11])[C@@:4]([C:5]([H:12])([H:13])[H:14])([H:15])[C:6][N:7]1[H:16])([H:8])([H:9])[H:10]"
C        2.54201111      -0.35722796      -0.10518887
C        1.09795360      -0.00001998      -0.02866048
C       -0.00098101      -0.77690231       0.11958619
C       -1.14694048       0.11040247       0.10326624
C       -2.56691829      -0.32215144      -0.12117027
C       -0.68780502       1.46669644      -0.09316081
N        0.67332186       1.31066628      -0.08598090
H        3.09869286       0.07053162       0.73190061
H        2.66669211      -1.43838217      -0.07936899
H        2.98904689       0.01552455      -1.02955911
H       -0.01351720      -1.85454460       0.18394326
H       -3.24425952       0.52309886      -0.00006370
H       -2.86009793      -1.11535507       0.56898925
H       -2.68375780      -0.70189234      -1.13765158
H       -1.16535397       0.97553214       1.08075499
H        1.30191279       2.09402351      -0.10763583
16
Frame=4 idx=008577 GeodesicLength=0.17252720729333548 rxn_smarts="[C:1]([c:2]1[c:3]([H:11])[c:4]([C:5]([H:12])([H:13])[H:14])[c:6]([H:15])[n:7]1[H:16])([H:8])([H:9])[H:10]>>[C:1]([C:2]1=[C:3]([H:11])[C@@:4]([C:5]([H:12])([H:13])[H:14])([H:15])[C:6][N:7]1[H:16])([H:8])([H:9])[H:10]"
C        2.54075039      -0.35945441      -0.11459893
C        1.09780683      -0.00161721      -0.02342588
C       -0.00058791      -0.77542392       0.14079232
C       -1.14803422       0.11150371       0.12279377
C       -2.56284389      -0.32430457      -0.12893707
C       -0.68591223       1.46388552      -0.08568456
N        0.67346039       1.31074922      -0.08109867
H        3.10617831       0.06708071       0.71730173
H        2.66458739      -1.44077666      -0.09113922
H        2.97953003       0.01333256      -1.04297217
H       -0.01309612      -1.85324518       0.20379125
H       -3.24547886       0.51797239      -0.01704989
H       -2.86492804      -1.11946127       0.55520539
H       -2.66211859      -0.70293366      -1.14774687
H       -1.18173924       0.99885189       1.09612876
H        1.30242575       2.09384087      -0.10335998
16
Frame=5 idx=008577 GeodesicLength=0.21548782198089111 rxn_smarts="[C:1]([c:2]1[c:3]([H:11])[c:4]([C:5]([H:12])([H:13])[H:14])[c:6]([H:15])[n:7]1[H:16])([H:8])([H:9])[H:10]>>[C:1]([C:2]1=[C:3]([H:11])[C@@:4]([C:5]([H:12])([H:13])[H:14])([H:15])[C:6][N:7]1[H:16])([H:8])([H:9])[H:10]"
C        2.53941122      -0.36165744      -0.12312053
C        1.09750600      -0.00332605      -0.01990268
C       -0.00023782      -0.77401073       0.15974318
C       -1.14917681       0.11260791       0.14184895
C       -2.55862965      -0.32641569      -0.13580744
C       -0.68414603       1.46108794      -0.07823914
N        0.67345353       1.31073738      -0.07784298
H        3.11208959       0.06357075       0.70454807
H        2.66241084      -1.44314410      -0.10193027
H        2.97147017       0.01133470      -1.05463270
H       -0.01275057      -1.85197785       0.22117005
H       -3.24639183       0.51276323      -0.03218379
H       -2.86877767      -1.12379316       0.54221626
H       -2.64141644      -0.70346796      -1.15672683
H       -1.19762252       1.02211730       1.11083097
H        1.30280799       2.09357376      -0.09997114
16
Frame=6 idx=008577 GeodesicLength=0.2584413925001691 rxn_smarts="[C:1]([c:2]1[c:3]([H:11])[c:4]([C:5]([H:12])([H:13])[H:14])[c:6]([H:15])[n:7]1[H:16])([H:8])([H:9])[H:10]>>[C:1]([C:2]1=[C:3]([H:11])[C@@:4]([C:5]([H:12])([H:13])[H:14])([H:15])[C:6][N:7]1[H:16])([H:8])([H:9])[H:10]"
C        2.53789954      -0.36391324      -0.13149069
C        1.09707873      -0.00509647      -0.01703977
C        0.00009101      -0.77253311       0.17785034
C       -1.15040101       0.11380330       0.16066826
C       -2.55411795      -0.32855599      -0.14239329
C       -0.68241564       1.45832016      -0.07062391
N        0.67338570       1.31068431      -0.07504088
H        3.11734737       0.05982255       0.69228358
H        2.65997903      -1.44556166      -0.11270316
H        2.96375085       0.00947101      -1.06576491
H       -0.01238901      -1.85065186       0.23828252
H       -3.24695166       0.50742057      -0.04687436
H       -2.87196040      -1.12818974       0.52947765
H       -2.62074020      -0.70394620      -1.16514522
H       -1.21371984       1.04566505       1.12488688
H        1.30316348       2.09326132      -0.09637303
16
Frame=7 idx=008577 GeodesicLength=0.30138131599362633 rxn_smarts="[C:1]([c:2]1[c:3]([H:11])[c:4]([C:5]([H:12])([H:13])[H:14])[c:6]([H:15])[n:7]1[H:16])([H:8])([H:9])[H:10]>>[C:1]([C:2]1=[C:3]([H:11])[C@@:4]([C:5]([H:12])([H:13])[H:14])([H:15])[C:6][N:7]1[H:16])([H:8])([H:9])[H:10]"
C        2.53629260      -0.36619684      -0.13952172
C        1.09652349      -0.00695068      -0.01504298
C        0.00040698      -0.77106895       0.19480070
C       -1.15167716       0.11503002       0.17919126
C       -2.54939872      -0.33068927      -0.14854681
C       -0.68075259       1.45558188      -0.06287726
N        0.67321993       1.31057696      -0.07296205
H        3.12181095       0.05592174       0.68085047
H        2.65742509      -1.44801105      -0.12318960
H        2.95667528       0.00774495      -1.07611741
H       -0.01202085      -1.84932669       0.25454642
H       -3.24722999       0.50199453      -0.06074939
H       -2.87446290      -1.13268305       0.51713114
H       -2.60038772      -0.70420964      -1.17292575
H       -1.22987336       1.06939421       1.13829990
H        1.30344897       2.09289186      -0.09288692
16
Frame=8 idx=008577 GeodesicLength=0.3442708263857282 rxn_smarts="[C:1]([c:2]1[c:3]([H:11])[c:4]([C:5]([H:12])([H:13])[H:14])[c:6]([H:15])[n:7]1[H:16])([H:8])([H:9])[H:10]>>[C:1]([C:2]1=[C:3]([H:11])[C@@:4]([C:5]([H:12])([H:13])[H:14])([H:15])[C:6][N:7]1[H:16])([H:8])([H:9])[H:10]"
C        2.53461957      -0.36848744      -0.14717882
C        1.09583407      -0.00888317      -0.01389312
C        0.00070776      -0.76963948       0.21058748
C       -1.15298652       0.11624607       0.19740499
C       -2.54450828      -0.33280443      -0.15424357
C       -0.67914314       1.45286809      -0.05500044
N        0.67295390       1.31040627      -0.07162687
H        3.12551294       0.05192145       0.67028141
H        2.65479496      -1.45045971      -0.13331706
H        2.95028281       0.00614197      -1.08567535
H       -0.01165836      -1.84802796       0.26980526
H       -3.24725266       0.49649887      -0.07374582
H       -2.87632730      -1.13726124       0.50519778
H       -2.58043654      -0.70421658      -1.18006593
H       -1.24606915       1.09326466       1.15106029
H        1.30367593       2.09243262      -0.08959023
16
Frame=9 idx=008577 GeodesicLength=0.38704991672141015 rxn_smarts="[C:1]([c:2]1[c:3]([H:11])[c:4]([C:5]([H:12])([H:13])[H:14])[c:6]([H:15])[n:7]1[H:16])([H:8])([H:9])[H:10]>>[C:1]([C:2]1=[C:3]([H:11])[C@@:4]([C:5]([H:12])([H:13])[H:14])([H:15])[C:6][N:7]1[H:16])([H:8])([H:9])[H:10]"
C        2.53310247      -0.37065828      -0.15374728
C        1.09500984      -0.01100147      -0.01449596
C        0.00096301      -0.76846498       0.22388478
C       -1.15428358       0.11735975       0.21506109
C       -2.53973868      -0.33477209      -0.15893112
C       -0.67764165       1.45008228      -0.04712525
N        0.67250335       1.31003477      -0.07210123
H        3.12776767       0.04814308       0.66186291
H        2.65249142      -1.45276144      -0.14209889
H        2.94571573       0.00474489      -1.09334730
H       -0.01137767      -1.84700722       0.28186406
H       -3.24720445       0.49110813      -0.08457947
H       -2.87747536      -1.14195659       0.49424869
H       -2.56193055      -0.70354699      -1.18613535
H       -1.26159944       1.11689646       1.16330108
H        1.30369788       2.09179970      -0.08766076
16
Frame=10 idx=008577 GeodesicLength=0.4298034676751301 rxn_smarts="[C:1]([c:2]1[c:3]([H:11])[c:4]([C:5]([H:12])([H:13])[H:14])[c:6]([H:15])[n:7]1[H:16])([H:8])([H:9])[H:10]>>[C:1]([C:2]1=[C:3]([H:11])[C@@:4]([C:5]([H:12])([H:13])[H:14])([H:15])[C:6][N:7]1[H:16])([H:8])([H:9])[H:10]"
C        2.53164354      -0.37278432      -0.15978481
C        1.09406496      -0.01324255      -0.01608774
C        0.00120278      -0.76743093       0.23578951
C       -1.15558064       0.11839892       0.23235731
C       -2.53494262      -0.33666375      -0.16305609
C       -0.67618472       1.44727784      -0.03912707
N        0.67192093       1.30954401      -0.07352591
H        3.12922173       0.04440833       0.65458588
H        2.65033440      -1.45500369      -0.15028320
H        2.94211972       0.00349278      -1.10004040
H       -0.01111278      -1.84614408       0.29239866
H       -3.24702437       0.48575094      -0.09426926
H       -2.87809891      -1.14669139       0.48385285
H       -2.54414710      -0.70251092      -1.19154393
H       -1.27702427       1.14056067       1.17498082
H        1.30360734       2.09103815      -0.08624663
16
Frame=11 idx=008577 GeodesicLength=0.4725520341164498 rxn_smarts="[C:1]([c:2]1[c:3]([H:11])[c:4]([C:5]([H:12])([H:13])[H:14])[c:6]([H:15])[n:7]1[H:16])([H:8])([H:9])[H:10]>>[C:1]([C:2]1=[C:3]([H:11])[C@@:4]([C:5]([H:12])([H:13])[H:14])([H:15])[C:6][N:7]1[H:16])([H:8])([H:9])[H:10]"
C        2.53013737      -0.37492648      -0.16570862
C        1.09301712      -0.01556099      -0.01804934
C        0.00145198      -0.76644305       0.24714612
C       -1.15687594       0.11940990       0.24946641
C       -2.52997823      -0.33853364      -0.16696488
C       -0.67472794       1.44447933      -0.03084263
N        0.67125203       1.30899269      -0.07519737
H        3.13035131       0.04059407       0.64764530
H        2.64814388      -1.45725652      -0.15839840
H        2.93877991       0.00231769      -1.10644551
H       -0.01082119      -1.84531603       0.30263806
H       -3.24663164       0.48036599      -0.10359590
H       -2.87831175      -1.15143269       0.47365064
H       -2.52648777      -0.70132725      -1.19660845
H       -1.29276395       1.16445268       1.18606421
H        1.30346480       2.09018430      -0.08479966
16
Frame=12 idx=008577 GeodesicLength=0.5153119406566604 rxn_smarts="[C:1]([c:2]1[c:3]([H:11])[c:4]([C:5]([H:12])([H:13])[H:14])[c:6]([H:15])[n:7]1[H:16])([H:8])([H:9])[H:10]>>[C:1]([C:2]1=[C:3]([H:11])[C@@:4]([C:5]([H:12])([H:13])[H:14])([H:15])[C:6][N:7]1[H:16])([H:8])([H:9])[H:10]"
C        2.52844939      -0.37716094      -0.17196325
C        1.09188129      -0.01789869      -0.01974443
C        0.00173506      -0.76537341       0.25885736
C       -1.15819675       0.12045763       0.26656589
C       -2.52466730      -0.34045304      -0.17100743
C       -0.67322796       1.44173297      -0.02211272
N        0.67055514       1.30845661      -0.07639104
H        3.13162908       0.03653503       0.64019219
H        2.64567818      -1.45960760      -0.16702260
H        2.93493337       0.00114281      -1.11327896
H       -0.01045534      -1.84437461       0.31384778
H       -3.24590768       0.47486304      -0.11338853
H       -2.87818467      -1.15615640       0.46327856
H       -2.50828296      -0.70025241      -1.20161306
H       -1.30928891       1.18879788       1.19645227
H        1.30335006       2.08929115      -0.08267205
16
Frame=13 idx=008577 GeodesicLength=0.5580566938835138 rxn_smarts="[C:1]([c:2]1[c:3]([H:11])[c:4]([C:5]([H:12])([H:13])[H:14])[c:6]([H:15])[n:7]1[H:16])([H:8])([H:9])[H:10]>>[C:1]([C:2]1=[C:3]([H:11])[C@@:4]([C:5]([H:12])([H:13])[H:14])([H:15])[C:6][N:7]1[H:16])([H:8])([H:9])[H:10]"
C        2.52680553      -0.37935737      -0.17783015
C        1.09063355      -0.02035375      -0.02220084
C        0.00202593      -0.76443906       0.26954940
C       -1.15948681       0.12141145       0.28338560
C       -2.51931557      -0.34230300      -0.17460134
C       -0.67173243       1.43895862      -0.01315984
N        0.66973257       1.30780816      -0.07828887
H        3.13229179       0.03248373       0.63361818
H        2.64333899      -1.46190633      -0.17526354
H        2.93183518       0.00013048      -1.11936574
H       -0.01008440      -1.84357666       0.32389477
H       -3.24504770       0.46940742      -0.12231750
H       -2.87764289      -1.16087847       0.45336106
H       -2.49062555      -0.69888599      -1.20609202
H       -1.32586717       1.21324156       1.20624059
H        1.30313897       2.08825921      -0.08092975
16
Frame=14 idx=008577 GeodesicLength=0.6008058651272637 rxn_smarts="[C:1]([c:2]1[c:3]([H:11])[c:4]([C:5]([H:12])([H:13])[H:14])[c:6]([H:15])[n:7]1[H:16])([H:8])([H:9])[H:10]>>[C:1]([C:2]1=[C:3]([H:11])[C@@:4]([C:5]([H:12])([H:13])[H:14])([H:15])[C:6][N:7]1[H:16])([H:8])([H:9])[H:10]"
C        2.52510500      -0.38157273      -0.18365838
C        1.08928542      -0.02288368      -0.02491874
C        0.00234460      -0.76354799       0.27992365
C       -1.16076353       0.12231437       0.30007264
C       -2.51378865      -0.34413425      -0.17802432
C       -0.67020467       1.43618896      -0.00384448
N        0.66882668       1.30710322      -0.08031870
H        3.13271390       0.02832151       0.62725612
H        2.64094974      -1.46421749      -0.18356901
H        2.92888869      -0.00077818      -1.12527137
H       -0.00966860      -1.84281436       0.33379017
H       -3.24396291       0.46393727      -0.13102614
H       -2.87675313      -1.16558170       0.44359993
H       -2.47299633      -0.69741254      -1.21028080
H       -1.34286592       1.23795583       1.21535780
H        1.30288972       2.08712176      -0.07908836
16
Frame=15 idx=008577 GeodesicLength=0.6436048671677478 rxn_smarts="[C:1]([c:2]1[c:3]([H:11])[c:4]([C:5]([H:12])([H:13])[H:14])[c:6]([H:15])[n:7]1[H:16])([H:8])([H:9])[H:10]>>[C:1]([C:2]1=[C:3]([H:11])[C@@:4]([C:5]([H:12])([H:13])[H:14])([H:15])[C:6][N:7]1[H:16])([H:8])([H:9])[H:10]"
C        2.52322139      -0.38387669      -0.18981110
C        1.08783884      -0.02543885      -0.02739320
C        0.00271711      -0.76258903       0.29071545
C       -1.16205839       0.12322324       0.31678560
C       -2.50792304      -0.34600315      -0.18156599
C       -0.66861901       1.43347516       0.00601566
N        0.66787992       1.30641141      -0.08189112
H        3.13326326       0.02391897       0.62040386
H        2.63829007      -1.46662236      -0.19238700
H        2.92545699      -0.00167217      -1.13158708
H       -0.00915339      -1.84196431       0.34458086
H       -3.24253617       0.45837682      -0.14017751
H       -2.87554625      -1.17027214       0.43366343
H       -2.45481663      -0.69600820      -1.21441670
H       -1.36068155       1.26311358       1.22372757
H        1.30266684       2.08592772      -0.07666272
16
Frame=16 idx=008577 GeodesicLength=0.686462665236309 rxn_smarts="[C:1]([c:2]1[c:3]([H:11])[c:4]([C:5]([H:12])([H:13])[H:14])[c:6]([H:15])[n:7]1[H:16])([H:8])([H:9])[H:10]>>[C:1]([C:2]1=[C:3]([H:11])[C@@:4]([C:5]([H:12])([H:13])[H:14])([H:15])[C:6][N:7]1[H:16])([H:8])([H:9])[H:10]"
C        2.52098410      -0.38635631      -0.19672006
C        1.08629166      -0.02794927      -0.02904085
C        0.00316917      -0.76140556       0.30276160
C       -1.16342165       0.12421617       0.33369021
C       -2.50150579      -0.34798551      -0.18555671
C       -0.66694925       1.43087756       0.01661329
N        0.66695242       1.30581613      -0.08234056
H        3.13434731       0.01909061       0.61223049
H        2.63504861      -1.46921409      -0.20226878
H        2.92078312      -0.00264862      -1.13898960
H       -0.00847100      -1.84083789       0.35755272
H       -3.24060690       0.45260322      -0.15052613
H       -2.87400877      -1.17497721       0.42315230
H       -2.43539861      -0.69486380      -1.21874629
H       -1.37977807       1.28891056       1.23118784
H        1.30256365       2.08472400      -0.07299948
