16
Frame=0 idx=006154 GeodesicLength=0.0 rxn_smarts="[O:1]([C:2]([C:3]1([H:10])[C:4]([H:11])([H:12])[C:5]([H:13])([H:14])[C:6]1([H:15])[H:16])([H:8])[H:9])[H:7]>>[C:2](=[C:3]1[C:4]([H:11])([H:12])[C:5]([H:13])([H:14])[C:6]1([H:15])[H:16])([H:8])[H:9].[O:1]([H:7])[H:10]"
O        2.47002216      -0.37714502      -0.67197999
C        1.33605879      -0.49192236       0.85642205
C        0.18751729      -0.11580526       0.14713949
C       -1.02854649      -0.94931702      -0.25823457
C       -1.79428415       0.38272253      -0.45393888
C       -0.66217619       1.14972277       0.27280988
H        3.08862329       0.36317455      -0.67486349
H        1.55864447      -1.53464774       1.04750787
H        1.85228589       0.21656760       1.49551001
H        1.23652982      -0.06461904      -0.75928728
H       -1.43644050      -1.54967133       0.55975620
H       -0.93349841      -1.58608162      -1.13896365
H       -1.86767648       0.66111886      -1.50535756
H       -2.78586448       0.44339798      -0.00656387
H       -0.92157971       1.39672820       1.30622237
H       -0.29961523       2.05577685      -0.21617855
16
Frame=1 idx=006154 GeodesicLength=0.048644315854577104 rxn_smarts="[O:1]([C:2]([C:3]1([H:10])[C:4]([H:11])([H:12])[C:5]([H:13])([H:14])[C:6]1([H:15])[H:16])([H:8])[H:9])[H:7]>>[C:2](=[C:3]1[C:4]([H:11])([H:12])[C:5]([H:13])([H:14])[C:6]1([H:15])[H:16])([H:8])[H:9].[O:1]([H:7])[H:10]"
O        2.47457620      -0.35837325      -0.68391021
C        1.33931472      -0.49985548       0.85467701
C        0.18756679      -0.12353132       0.14977729
C       -1.03351185      -0.95151896      -0.24854805
C       -1.78857709       0.38437862      -0.45881260
C       -0.65600687       1.14621253       0.27264059
H        3.07345968       0.39741562      -0.67377687
H        1.56048919      -1.54436130       1.03900337
H        1.83811205       0.20412048       1.51263646
H        1.22647830      -0.07210344      -0.77855186
H       -1.44467116      -1.53934393       0.57678232
H       -0.94122891      -1.59907100      -1.12158726
H       -1.84856403       0.65707506      -1.51262837
H       -2.78358770       0.45540568      -0.02078289
H       -0.91695164       1.39213110       1.30586425
H       -0.28689767       2.05141960      -0.21278318
16
Frame=2 idx=006154 GeodesicLength=0.0974361804095244 rxn_smarts="[O:1]([C:2]([C:3]1([H:10])[C:4]([H:11])([H:12])[C:5]([H:13])([H:14])[C:6]1([H:15])[H:16])([H:8])[H:9])[H:7]>>[C:2](=[C:3]1[C:4]([H:11])([H:12])[C:5]([H:13])([H:14])[C:6]1([H:15])[H:16])([H:8])[H:9].[O:1]([H:7])[H:10]"
O        2.47874862      -0.33887543      -0.69579769
C        1.34262034      -0.50779018       0.85305392
C        0.18782407      -0.13122581       0.15225105
C       -1.03834852      -0.95361123      -0.23886736
C       -1.78269738       0.38593905      -0.46363167
C       -0.64958631       1.14275845       0.27225215
H        3.05725392       0.43184414      -0.67237876
H        1.56226364      -1.55410932       1.03038054
H        1.82352722       0.19077579       1.53015797
H        1.21639218      -0.07981128      -0.79798082
H       -1.45260344      -1.52878332       0.59373107
H       -0.94901891      -1.61188798      -1.10410572
H       -1.82953942       0.65266252      -1.51970977
H       -2.78090204       0.46731193      -0.03481986
H       -0.91198893       1.38782275       1.30527522
H       -0.27394504       2.04697992      -0.20981030
16
Frame=3 idx=006154 GeodesicLength=0.1462964625663367 rxn_smarts="[O:1]([C:2]([C:3]1([H:10])[C:4]([H:11])([H:12])[C:5]([H:13])([H:14])[C:6]1([H:15])[H:16])([H:8])[H:9])[H:7]>>[C:2](=[C:3]1[C:4]([H:11])([H:12])[C:5]([H:13])([H:14])[C:6]1([H:15])[H:16])([H:8])[H:9].[O:1]([H:7])[H:10]"
O        2.48242241      -0.31859629      -0.70764412
C        1.34597628      -0.51575278       0.85153304
C        0.18828197      -0.13891531       0.15456162
C       -1.04300632      -0.95553721      -0.22914737
C       -1.77659231       0.38742019      -0.46841362
C       -0.64290480       1.13929125       0.27160694
H        3.03986328       0.46647024      -0.67060035
H        1.56400072      -1.56388923       1.02160118
H        1.80846758       0.17646327       1.54803713
H        1.20616762      -0.08772406      -0.81751440
H       -1.46013052      -1.51789309       0.61063240
H       -0.95684083      -1.62444827      -1.08639812
H       -1.81056896       0.64791383      -1.52658274
H       -2.77771145       0.47914907      -0.04875021
H       -0.90662919       1.38370046       1.30436474
H       -0.26079549       2.04234793      -0.20728613
16
Frame=4 idx=006154 GeodesicLength=0.19534437143433672 rxn_smarts="[O:1]([C:2]([C:3]1([H:10])[C:4]([H:11])([H:12])[C:5]([H:13])([H:14])[C:6]1([H:15])[H:16])([H:8])[H:9])[H:7]>>[C:2](=[C:3]1[C:4]([H:11])([H:12])[C:5]([H:13])([H:14])[C:6]1([H:15])[H:16])([H:8])[H:9].[O:1]([H:7])[H:10]"
O        2.48562380      -0.29764694      -0.71950560
C        1.34940312      -0.52366787       0.85015330
C        0.18894630      -0.14655973       0.15672652
C       -1.04751054      -0.95734005      -0.21943268
C       -1.77031036       0.38880465      -0.47316278
C       -0.63600001       1.13586870       0.27078110
H        3.02146205       0.50108294      -0.66856316
H        1.56567879      -1.57364581       1.01276527
H        1.79299268       0.16128479       1.56622496
H        1.19591693      -0.09574225      -0.83716358
H       -1.46733027      -1.50675749       0.62744508
H       -0.96466535      -1.63681633      -1.06856987
H       -1.79165065       0.64281954      -1.53328837
H       -2.77413484       0.49086360      -0.06256769
H       -0.90097772       1.37981059       1.30326117
H       -0.24744393       2.03764166      -0.20510369
16
Frame=5 idx=006154 GeodesicLength=0.24455786252814718 rxn_smarts="[O:1]([C:2]([C:3]1([H:10])[C:4]([H:11])([H:12])[C:5]([H:13])([H:14])[C:6]1([H:15])[H:16])([H:8])[H:9])[H:7]>>[C:2](=[C:3]1[C:4]([H:11])([H:12])[C:5]([H:13])([H:14])[C:6]1([H:15])[H:16])([H:8])[H:9].[O:1]([H:7])[H:10]"
O        2.48829270      -0.27615201      -0.73139175
C        1.35290258      -0.53147919       0.84892571
C        0.18981417      -0.15413126       0.15875152
C       -1.05181662      -0.95899915      -0.20974648
C       -1.76384867       0.39009094      -0.47787656
C       -0.62890690       1.13248277       0.26980418
H        3.00210862       0.53545656      -0.66631774
H        1.56727304      -1.58330003       1.00396975
H        1.77709577       0.14530889       1.58462210
H        1.18562455      -0.10375216      -0.85690350
H       -1.47413110      -1.49539596       0.64412260
H       -0.97241515      -1.64892979      -1.05065299
H       -1.77279333       0.63742012      -1.53981578
H       -2.77016645       0.50240917      -0.07628280
H       -0.89507324       1.37609459       1.30199332
H       -0.23395997       2.03287651      -0.20320159
16
Frame=6 idx=006154 GeodesicLength=0.29400028731667094 rxn_smarts="[O:1]([C:2]([C:3]1([H:10])[C:4]([H:11])([H:12])[C:5]([H:13])([H:14])[C:6]1([H:15])[H:16])([H:8])[H:9])[H:7]>>[C:2](=[C:3]1[C:4]([H:11])([H:12])[C:5]([H:13])([H:14])[C:6]1([H:15])[H:16])([H:8])[H:9].[O:1]([H:7])[H:10]"
O        2.49044444      -0.25421928      -0.74336663
C        1.35648684      -0.53912955       0.84786545
C        0.19088133      -0.16160464       0.16064084
C       -1.05592104      -0.96051884      -0.20011909
C       -1.75724105       0.39127101      -0.48255052
C       -0.62166375       1.12914502       0.26871353
H        2.98198716       0.56940208      -0.66390678
H        1.56875723      -1.59280271       0.99529415
H        1.76080171       0.12863071       1.60318727
H        1.17530989      -0.11165660      -0.87672098
H       -1.48053362      -1.48384619       0.66062212
H       -0.98005586      -1.66077956      -1.03270139
H       -1.75402713       0.63173674      -1.54616317
H       -2.76586443       0.51374122      -0.08989029
H       -0.88897112       1.37253885       1.30061221
H       -0.22039060       2.02809176      -0.20151672
16
Frame=7 idx=006154 GeodesicLength=0.3433167677656942 rxn_smarts="[O:1]([C:2]([C:3]1([H:10])[C:4]([H:11])([H:12])[C:5]([H:13])([H:14])[C:6]1([H:15])[H:16])([H:8])[H:9])[H:7]>>[C:2](=[C:3]1[C:4]([H:11])([H:12])[C:5]([H:13])([H:14])[C:6]1([H:15])[H:16])([H:8])[H:9].[O:1]([H:7])[H:10]"
O        2.49187251      -0.23195745      -0.75532753
C        1.36016469      -0.54656323       0.84697515
C        0.19216252      -0.16894322       0.16239975
C       -1.05972930      -0.96185232      -0.19056857
C       -1.75044685       0.39235729      -0.48718424
C       -0.61429454       1.12583548       0.26751219
H        2.96091284       0.60264449      -0.66134283
H        1.57017988      -1.60202549       0.98683317
H        1.74409450       0.11120746       1.62175291
H        1.16495337      -0.11933922      -0.89658112
H       -1.48638804      -1.47210160       0.67688855
H       -0.98746582      -1.67225839      -1.01472368
H       -1.73534352       0.62582592      -1.55230464
H       -2.76115823       0.52483109      -0.10340551
H       -0.88268901       1.36906064       1.29908999
H       -0.20682498       2.02327855      -0.20001360
16
Frame=8 idx=006154 GeodesicLength=0.392921605729517 rxn_smarts="[O:1]([C:2]([C:3]1([H:10])[C:4]([H:11])([H:12])[C:5]([H:13])([H:14])[C:6]1([H:15])[H:16])([H:8])[H:9])[H:7]>>[C:2](=[C:3]1[C:4]([H:11])([H:12])[C:5]([H:13])([H:14])[C:6]1([H:15])[H:16])([H:8])[H:9].[O:1]([H:7])[H:10]"
O        2.49279428      -0.20934504      -0.76741797
C        1.36393166      -0.55379980       0.84627355
C        0.19363250      -0.17617969       0.16403903
C       -1.06332813      -0.96305003      -0.18108088
C       -1.74351827       0.39334046      -0.49178096
C       -0.60680392       1.12257080       0.26622685
H        2.93921677       0.63536229      -0.65868632
H        1.57148221      -1.61106659       0.97855456
H        1.72695449       0.09312359       1.64042121
H        1.15455576      -0.12683322      -0.91650122
H       -1.49184421      -1.46019259       0.69296438
H       -0.99472444      -1.68347006      -0.99671837
H       -1.71674395       0.61966970      -1.55826863
H       -2.75614987       0.53569797      -0.11683598
H       -0.87624722       1.36571272       1.29748423
H       -0.19320764       2.01845950      -0.19867346
16
Frame=9 idx=006154 GeodesicLength=0.44266633445709563 rxn_smarts="[O:1]([C:2]([C:3]1([H:10])[C:4]([H:11])([H:12])[C:5]([H:13])([H:14])[C:6]1([H:15])[H:16])([H:8])[H:9])[H:7]>>[C:2](=[C:3]1[C:4]([H:11])([H:12])[C:5]([H:13])([H:14])[C:6]1([H:15])[H:16])([H:8])[H:9].[O:1]([H:7])[H:10]"
O        2.49315126      -0.18658085      -0.77962194
C        1.36778598      -0.56074632       0.84578216
C        0.19529668      -0.18325756       0.16555540
C       -1.06665177      -0.96408561      -0.17171657
C       -1.73647514       0.39421726      -0.49631490
C       -0.59923963       1.11935575       0.26488423
H        2.91700566       0.66721107      -0.65598565
H        1.57264109      -1.61980039       0.97061356
H        1.70937990       0.07446921       1.65907215
H        1.14411544      -0.13399089      -0.93646239
H       -1.49679303      -1.44817717       0.70875027
H       -1.00172373      -1.69431434      -0.97879018
H       -1.69830383       0.61332666      -1.56402094
H       -2.75085009       0.54625596      -0.13012330
H       -0.86969343       1.36244768       1.29582204
H       -0.17964536       2.01366954      -0.19744396
16
Frame=10 idx=006154 GeodesicLength=0.49247048120122355 rxn_smarts="[O:1]([C:2]([C:3]1([H:10])[C:4]([H:11])([H:12])[C:5]([H:13])([H:14])[C:6]1([H:15])[H:16])([H:8])[H:9])[H:7]>>[C:2](=[C:3]1[C:4]([H:11])([H:12])[C:5]([H:13])([H:14])[C:6]1([H:15])[H:16])([H:8])[H:9].[O:1]([H:7])[H:10]"
O        2.49296050      -0.16389328      -0.79196665
C        1.37172381      -0.56730895       0.84553117
C        0.19715195      -0.19012245       0.16694580
C       -1.06966397      -0.96495915      -0.16254770
C       -1.72936965       0.39498259      -0.50075178
C       -0.59166535       1.11621130       0.26352479
H        2.89454617       0.69786661      -0.65330770
H        1.57361374      -1.62812489       0.96317837
H        1.69139993       0.05540554       1.67760634
H        1.13364732      -0.14067198      -0.95645797
H       -1.50118312      -1.43615631       0.72413954
H       -1.00837052      -1.70472929      -0.96107931
H       -1.68011559       0.60686509      -1.56952305
H       -2.74532098       0.55641872      -0.14318634
H       -0.86310533       1.35924456       1.29415498
H       -0.16624891       2.00897189      -0.19626050
16
Frame=11 idx=006154 GeodesicLength=0.5424247632037327 rxn_smarts="[O:1]([C:2]([C:3]1([H:10])[C:4]([H:11])([H:12])[C:5]([H:13])([H:14])[C:6]1([H:15])[H:16])([H:8])[H:9])[H:7]>>[C:2](=[C:3]1[C:4]([H:11])([H:12])[C:5]([H:13])([H:14])[C:6]1([H:15])[H:16])([H:8])[H:9].[O:1]([H:7])[H:10]"
O        2.49226293      -0.14114504      -0.80444530
C        1.37574073      -0.57354996       0.84551306
C        0.19919001      -0.19682519       0.16821673
C       -1.07239626      -0.96568318      -0.15351082
C       -1.72217661       0.39564862      -0.50511499
C       -0.58404644       1.11311868       0.26212191
H        2.87177154       0.72759457      -0.65061628
H        1.57442831      -1.63611954       0.95612939
H        1.67296482       0.03581555       1.69605957
H        1.12309567      -0.14696354      -0.97650103
H       -1.50507000      -1.42407262       0.73922660
H       -1.01472224      -1.71478488      -0.94346459
H       -1.66211508       0.60026808      -1.57480619
H       -2.73954420       0.56626686      -0.15609019
H       -0.85643632       1.35610763       1.29244519
H       -0.15294686       2.00432397      -0.19516305
16
Frame=12 idx=006154 GeodesicLength=0.5923992341911896 rxn_smarts="[O:1]([C:2]([C:3]1([H:10])[C:4]([H:11])([H:12])[C:5]([H:13])([H:14])[C:6]1([H:15])[H:16])([H:8])[H:9])[H:7]>>[C:2](=[C:3]1[C:4]([H:11])([H:12])[C:5]([H:13])([H:14])[C:6]1([H:15])[H:16])([H:8])[H:9].[O:1]([H:7])[H:10]"
O        2.49106738      -0.11855473      -0.81703889
C        1.37982909      -0.57938156       0.84576915
C        0.20141260      -0.20331317       0.16936906
C       -1.07481075      -0.96625510      -0.14467832
C       -1.71494019       0.39621626      -0.50936807
C       -0.57643565       1.11009877       0.26071369
H        2.84887430       0.75609748      -0.64798802
H        1.57507534      -1.64367198       0.94962296
H        1.65408407       0.01583472       1.71431125
H        1.11248076      -0.15275605      -0.99658862
H       -1.50840316      -1.41202126       0.75390634
H       -1.02068703      -1.72441582      -0.92609520
H       -1.64438952       0.59359709      -1.57983574
H       -2.73357397       0.57572368      -0.16874580
H       -0.84975267       1.35302432       1.29073888
H       -0.13983059       1.99977734      -0.19409268
16
Frame=13 idx=006154 GeodesicLength=0.6425261893334729 rxn_smarts="[O:1]([C:2]([C:3]1([H:10])[C:4]([H:11])([H:12])[C:5]([H:13])([H:14])[C:6]1([H:15])[H:16])([H:8])[H:9])[H:7]>>[C:2](=[C:3]1[C:4]([H:11])([H:12])[C:5]([H:13])([H:14])[C:6]1([H:15])[H:16])([H:8])[H:9].[O:1]([H:7])[H:10]"
O        2.48942774      -0.09597549      -0.82975841
C        1.38398178      -0.58486164       0.84631351
C        0.20381405      -0.20963010       0.17041196
C       -1.07695204      -0.96669264      -0.13599422
C       -1.70764596       0.39668936      -0.51353749
C       -0.56879182       1.10714247       0.25928058
H        2.82581389       0.78363803      -0.64540678
H        1.57558194      -1.65086735       0.94355408
H        1.63470952      -0.00465118       1.73241450
H        1.10177008      -0.15813235      -1.01673885
H       -1.51125421      -1.39995714       0.76827357
H       -1.02634079      -1.73369828      -0.90887337
H       -1.62688997       0.58682310      -1.58466284
H       -2.72740852       0.58485108      -0.18120892
H       -0.84300230       1.35001576       1.28902247
H       -0.12681339       1.99530635      -0.19308979
16
Frame=14 idx=006154 GeodesicLength=0.6928030112050466 rxn_smarts="[O:1]([C:2]([C:3]1([H:10])[C:4]([H:11])([H:12])[C:5]([H:13])([H:14])[C:6]1([H:15])[H:16])([H:8])[H:9])[H:7]>>[C:2](=[C:3]1[C:4]([H:11])([H:12])[C:5]([H:13])([H:14])[C:6]1([H:15])[H:16])([H:8])[H:9].[O:1]([H:7])[H:10]"
O        2.48734436      -0.07328805      -0.84255121
C        1.38820416      -0.59003930       0.84712843
C        0.20639509      -0.21582192       0.17134343
C       -1.07884201      -0.96699467      -0.12740738
C       -1.70026385       0.39708204      -0.51763720
C       -0.56108218       1.10422600       0.25778826
H        2.80243099       0.81042292      -0.64279652
H        1.57602294      -1.65773931       0.93779202
H        1.61480324      -0.02576544       1.75037021
H        1.09094145      -0.16318956      -1.03695456
H       -1.51366443      -1.38780449       0.78239600
H       -1.03173501      -1.74268250      -0.89169064
H       -1.60955332       0.57991992      -1.58928843
H       -2.72101831       0.59373831      -0.19352842
H       -0.83614527       1.34708936       1.28723387
H       -0.11383784       1.99084671      -0.19219785
16
Frame=15 idx=006154 GeodesicLength=0.7432085079680586 rxn_smarts="[O:1]([C:2]([C:3]1([H:10])[C:4]([H:11])([H:12])[C:5]([H:13])([H:14])[C:6]1([H:15])[H:16])([H:8])[H:9])[H:7]>>[C:2](=[C:3]1[C:4]([H:11])([H:12])[C:5]([H:13])([H:14])[C:6]1([H:15])[H:16])([H:8])[H:9].[O:1]([H:7])[H:10]"
O        2.48485319      -0.05065489      -0.85543413
C        1.39246967      -0.59485425       0.84827354
C        0.20915180      -0.22184585       0.17216550
C       -1.08045451      -0.96716909      -0.11897447
C       -1.69283789       0.39738983      -0.52164221
C       -0.55334496       1.10137248       0.25626826
H        2.77895700       0.83623528      -0.64023107
H        1.57635117      -1.66423180       0.93247966
H        1.59437930      -0.04737990       1.76808870
H        1.07999090      -0.16782785      -1.05723735
H       -1.51559264      -1.37566450       0.79620047
H       -1.03680145      -1.75132289      -0.87467017
H       -1.59247146       0.57294918      -1.59370789
H       -2.71445342       0.60230433      -0.20562623
H       -0.82922192       1.34423625       1.28542856
H       -0.10097478       1.98646367      -0.19138117
16
Frame=16 idx=006154 GeodesicLength=0.7936881854962289 rxn_smarts="[O:1]([C:2]([C:3]1([H:10])[C:4]([H:11])([H:12])[C:5]([H:13])([H:14])[C:6]1([H:15])[H:16])([H:8])[H:9])[H:7]>>[C:2](=[C:3]1[C:4]([H:11])([H:12])[C:5]([H:13])([H:14])[C:6]1([H:15])[H:16])([H:8])[H:9].[O:1]([H:7])[H:10]"
O        2.48200057      -0.02821332      -0.86841105
C        1.39675457      -0.59926460       0.84978154
C        0.21207756      -0.22767753       0.17287429
C       -1.08177471      -0.96721991      -0.11073821
C       -1.68540741       0.39761485      -0.52552569
C       -0.54561826       1.09858833       0.25473715
H        2.75558519       0.86093032      -0.63772467
H        1.57654820      -1.67029849       0.92769763
H        1.57347873      -0.06936978       1.78548874
H        1.06890719      -0.17199622      -1.07758506
H       -1.51702166      -1.36360311       0.80962449
H       -1.04149041      -1.75958759      -0.85789994
H       -1.57571188       0.56596214      -1.59789329
H       -2.70776150       0.61050916      -0.21743656
H       -0.82227656       1.34144460       1.28362386
H       -0.08828961       1.98218117      -0.19061325
