16
Frame=0 idx=010005 GeodesicLength=0.0 rxn_smarts="[C:1]([O:2][C:3]([C:4]([N:5]([C:6](=[O:7])[H:16])[H:15])([H:13])[H:14])([H:11])[H:12])([H:8])([H:9])[H:10]>>[C:1]([O:2][C@@:6]1([H:16])[N:5]([H:15])[C:4]([H:13])([H:14])[C:3]([H:11])([H:12])[O:7]1)([H:8])([H:9])[H:10]"
C       -1.48108414       0.64809042       1.33961197
O       -0.60885252      -0.27695608       0.71438916
C       -0.27922797       0.12351291      -1.30973842
C        0.96643802      -0.70362873      -1.39243539
N        1.45569446      -0.94462579      -0.02217310
C        0.86509256       0.11991055       0.75193883
O        0.93207437       1.26645977       0.17223181
H       -1.19564704       1.67101430       1.08783797
H       -2.49482048       0.44176301       0.99493881
H       -1.44699764       0.50949027       2.42355776
H       -0.26826105       1.12990009      -1.69869545
H       -1.23724970      -0.37822572      -1.35724042
H        1.72205512      -0.15620861      -1.95443486
H        0.76838849      -1.65995552      -1.87982376
H        1.13620967      -1.84238921       0.32083340
H        1.16618791       0.05184831       1.80920163
16
Frame=1 idx=010005 GeodesicLength=0.09989139784239491 rxn_smarts="[C:1]([O:2][C:3]([C:4]([N:5]([C:6](=[O:7])[H:16])[H:15])([H:13])[H:14])([H:11])[H:12])([H:8])([H:9])[H:10]>>[C:1]([O:2][C@@:6]1([H:16])[N:5]([H:15])[C:4]([H:13])([H:14])[C:3]([H:11])([H:12])[O:7]1)([H:8])([H:9])[H:10]"
C       -1.49428713       0.64349064       1.34039708
O       -0.61401453      -0.27198622       0.71365791
C       -0.27662914       0.13097167      -1.30104969
C        0.96278519      -0.70691264      -1.39164778
N        1.45531781      -0.94785611      -0.02315606
C        0.89003048       0.12444029       0.75459477
O        0.95989442       1.26657796       0.16328669
H       -1.21781236       1.67014114       1.09254037
H       -2.50681054       0.43122480       0.99513236
H       -1.46037189       0.50163301       2.42391654
H       -0.26629352       1.13349597      -1.70165778
H       -1.23530548      -0.36871547      -1.36946909
H        1.72077710      -0.16508663      -1.95600944
H        0.75676132      -1.66233586      -1.87721674
H        1.12955039      -1.84047250       0.32659564
H        1.19640789       0.06138996       1.81008522
16
Frame=2 idx=010005 GeodesicLength=0.19970132086549253 rxn_smarts="[C:1]([O:2][C:3]([C:4]([N:5]([C:6](=[O:7])[H:16])[H:15])([H:13])[H:14])([H:11])[H:12])([H:8])([H:9])[H:10]>>[C:1]([O:2][C@@:6]1([H:16])[N:5]([H:15])[C:4]([H:13])([H:14])[C:3]([H:11])([H:12])[O:7]1)([H:8])([H:9])[H:10]"
C       -1.50797109       0.63855381       1.34123980
O       -0.61945221      -0.26679551       0.71277879
C       -0.27374473       0.13886833      -1.29230201
C        0.95894415      -0.71030403      -1.39068758
N        1.45478587      -0.95107065      -0.02396658
C        0.91565745       0.12909941       0.75700881
O        0.98845865       1.26651472       0.15380044
H       -1.24122602       1.66903503       1.09717851
H       -2.51926652       0.41974365       0.99571029
H       -1.47368666       0.49351009       2.42432702
H       -0.26365565       1.13733564      -1.70472264
H       -1.23301970      -0.35802207      -1.38197318
H        1.71944828      -0.17459706      -1.95766536
H        0.74450743      -1.66482341      -1.87413532
H        1.12261036      -1.83825948       0.33281039
H        1.22761039       0.07121153       1.81059862
16
Frame=3 idx=010005 GeodesicLength=0.2994547543540362 rxn_smarts="[C:1]([O:2][C:3]([C:4]([N:5]([C:6](=[O:7])[H:16])[H:15])([H:13])[H:14])([H:11])[H:12])([H:8])([H:9])[H:10]>>[C:1]([O:2][C@@:6]1([H:16])[N:5]([H:15])[C:4]([H:13])([H:14])[C:3]([H:11])([H:12])[O:7]1)([H:8])([H:9])[H:10]"
C       -1.52216184       0.63327060       1.34211986
O       -0.62518713      -0.26137433       0.71174975
C       -0.27056146       0.14722686      -1.28348052
C        0.95489395      -0.71379277      -1.38953972
N        1.45408774      -0.95426612      -0.02459450
C        0.94202646       0.13387227       0.75916194
O        1.01781396       1.26624189       0.14375965
H       -1.26597699       1.66765701       1.10170592
H       -2.53218628       0.40725857       0.99666737
H       -1.48694205       0.48515936       2.42477400
H       -0.26031389       1.14143904      -1.70786348
H       -1.23035061      -0.34611022      -1.39471988
H        1.71803871      -0.18475658      -1.95939841
H        0.73158223      -1.66739162      -1.87055145
H        1.11537529      -1.83572388       0.33949849
H        1.25986193       0.08128991       1.81071097
16
Frame=4 idx=010005 GeodesicLength=0.3991615552849609 rxn_smarts="[C:1]([O:2][C:3]([C:4]([N:5]([C:6](=[O:7])[H:16])[H:15])([H:13])[H:14])([H:11])[H:12])([H:8])([H:9])[H:10]>>[C:1]([O:2][C@@:6]1([H:16])[N:5]([H:15])[C:4]([H:13])([H:14])[C:3]([H:11])([H:12])[O:7]1)([H:8])([H:9])[H:10]"
C       -1.53688904       0.62763039       1.34301380
O       -0.63123786      -0.25570912       0.71057430
C       -0.26706248       0.15606927      -1.27456666
C        0.95061147      -0.71736512      -1.38818699
N        1.45320842      -0.95743808      -0.02502726
C        0.96919351       0.13873756       0.76103368
O        1.04801067       1.26572834       0.13315137
H       -1.29216051       1.66596105       1.10606010
H       -2.54555759       0.39369836       0.99799703
H       -1.50014388       0.47663511       2.42523856
H       -0.25623461       1.14582615      -1.71104738
H       -1.22725375      -0.33294609      -1.40766972
H        1.71650955      -0.19557869      -1.96120093
H        0.71793636      -1.67000251      -1.86643543
H        1.10783280      -1.83283574       0.34668001
H        1.29323694       0.09158913       1.81038553
16
Frame=5 idx=010005 GeodesicLength=0.4988328717134501 rxn_smarts="[C:1]([O:2][C:3]([C:4]([N:5]([C:6](=[O:7])[H:16])[H:15])([H:13])[H:14])([H:11])[H:12])([H:8])([H:9])[H:10]>>[C:1]([O:2][C@@:6]1([H:16])[N:5]([H:15])[C:4]([H:13])([H:14])[C:3]([H:11])([H:12])[O:7]1)([H:8])([H:9])[H:10]"
C       -1.55218137       0.62162364       1.34389927
O       -0.63762685      -0.24979189       0.70925236
C       -0.26323586       0.16541979      -1.26554092
C        0.94607582      -0.72101140      -1.38661354
N        1.45213970      -0.96057971      -0.02525452
C        0.99721762       0.14367532       0.76260318
O        1.07908984       1.26494232       0.12195963
H       -1.31985984       1.66391590       1.11019030
H       -2.55938459       0.37900004       0.99969286
H       -1.51329595       0.46798042       2.42570214
H       -0.25138744       1.15052171      -1.71424093
H       -1.22369098      -0.31850018      -1.42078423
H        1.71482774      -0.20707697      -1.96306860
H        0.70353437      -1.67263012      -1.86176234
H        1.09997054      -1.82956878       0.35437596
H        1.32780725       0.10207990       1.80958936
16
Frame=6 idx=010005 GeodesicLength=0.5985014292473148 rxn_smarts="[C:1]([O:2][C:3]([C:4]([N:5]([C:6](=[O:7])[H:16])[H:15])([H:13])[H:14])([H:11])[H:12])([H:8])([H:9])[H:10]>>[C:1]([O:2][C@@:6]1([H:16])[N:5]([H:15])[C:4]([H:13])([H:14])[C:3]([H:11])([H:12])[O:7]1)([H:8])([H:9])[H:10]"
C       -1.56807967       0.61524086       1.34474179
O       -0.64437752      -0.24360748       0.70778743
C       -0.25906263       0.17530554      -1.25637567
C        0.94125841      -0.72470844      -1.38479808
N        1.45087056      -0.96368565      -0.02526563
C        1.02617221       0.14865309       0.76384767
O        1.11111749       1.26383995       0.11016642
H       -1.34920071       1.66146180       1.11400344
H       -2.57365321       0.36307165       1.00175402
H       -1.52640575       0.45927317       2.42614169
H       -0.24573489       1.15555073      -1.71740025
H       -1.21960719      -0.30273376      -1.43400915
H        1.71294378      -0.21926085      -1.96499436
H        0.68831294      -1.67522451      -1.85649238
H        1.09177724      -1.82588272       0.36261307
H        1.36366892       0.11270664       1.80827999
16
Frame=7 idx=010005 GeodesicLength=0.6981724925338836 rxn_smarts="[C:1]([O:2][C:3]([C:4]([N:5]([C:6](=[O:7])[H:16])[H:15])([H:13])[H:14])([H:11])[H:12])([H:8])([H:9])[H:10]>>[C:1]([O:2][C@@:6]1([H:16])[N:5]([H:15])[C:4]([H:13])([H:14])[C:3]([H:11])([H:12])[O:7]1)([H:8])([H:9])[H:10]"
C       -1.58461391       0.60847120       1.34551655
O       -0.65150975      -0.23714163       0.70618834
C       -0.25452655       0.18575713      -1.24704376
C        0.93613517      -0.72843708      -1.38272029
N        1.44939044      -0.96674640      -0.02504791
C        1.05613322       0.15363631       0.76473797
O        1.14414125       1.26237968       0.09775363
H       -1.38028681       1.65855452       1.11741472
H       -2.58836360       0.34582840       1.00417166
H       -1.53948555       0.45058455       2.42653805
H       -0.23924382       1.16093871      -1.72048271
H       -1.21496795      -0.28561590      -1.44729358
H        1.71081566      -0.23214023      -1.96697237
H        0.67222720      -1.67774340      -1.85059234
H        1.08324800      -1.82174333       0.37141393
H        1.40090702       0.12341748       1.80641811
16
Frame=8 idx=010005 GeodesicLength=0.7978691982879056 rxn_smarts="[C:1]([O:2][C:3]([C:4]([N:5]([C:6](=[O:7])[H:16])[H:15])([H:13])[H:14])([H:11])[H:12])([H:8])([H:9])[H:10]>>[C:1]([O:2][C@@:6]1([H:16])[N:5]([H:15])[C:4]([H:13])([H:14])[C:3]([H:11])([H:12])[O:7]1)([H:8])([H:9])[H:10]"
C       -1.60183322       0.60130256       1.34618433
O       -0.65904939      -0.23037841       0.70446212
C       -0.24960847       0.19680649      -1.23750677
C        0.93067530      -0.73217405      -1.38035592
N        1.44768928      -0.96975025      -0.02458820
C        1.08718255       0.15858239       0.76524877
O        1.17822344       1.26050966       0.08469860
H       -1.41324892       1.65513109       1.12031237
H       -2.60350191       0.32716821       1.00694312
H       -1.55255662       0.44201055       2.42686105
H       -0.23187923       1.16671792      -1.72343107
H       -1.20971997      -0.26710979      -1.46056904
H        1.70838516      -0.24572058      -1.96899638
H        0.65522126      -1.68013099      -1.84402140
H        1.07437556      -1.81710420       0.38081027
H        1.43964520       0.13413941       1.80394816
16
Frame=9 idx=010005 GeodesicLength=0.897867857464815 rxn_smarts="[C:1]([O:2][C:3]([C:4]([N:5]([C:6](=[O:7])[H:16])[H:15])([H:13])[H:14])([H:11])[H:12])([H:8])([H:9])[H:10]>>[C:1]([O:2][C@@:6]1([H:16])[N:5]([H:15])[C:4]([H:13])([H:14])[C:3]([H:11])([H:12])[O:7]1)([H:8])([H:9])[H:10]"
C       -1.61985400       0.59368308       1.34668938
O       -0.66700458      -0.22323954       0.70264149
C       -0.24425875       0.20857618      -1.22767292
C        0.92483979      -0.73587878      -1.37766177
N        1.44576756      -0.97271250      -0.02387418
C        1.11953024       0.16342194       0.76533739
O        1.21357601       1.25812263       0.07093955
H       -1.44846402       1.65097702       1.12239500
H       -2.61904847       0.30675603       1.01018907
H       -1.56565938       0.43387460       2.42703158
H       -0.22353705       1.17300522      -1.72614850
H       -1.20385552      -0.24707165      -1.47375882
H        1.70557524      -0.26003680      -1.97105642
H        0.63716943      -1.68230886      -1.83670901
H        1.06510530      -1.81189260       0.39086765
H        1.48011820       0.14472403       1.80079051
16
Frame=10 idx=010005 GeodesicLength=0.99789533497878 rxn_smarts="[C:1]([O:2][C:3]([C:4]([N:5]([C:6](=[O:7])[H:16])[H:15])([H:13])[H:14])([H:11])[H:12])([H:8])([H:9])[H:10]>>[C:1]([O:2][C@@:6]1([H:16])[N:5]([H:15])[C:4]([H:13])([H:14])[C:3]([H:11])([H:12])[O:7]1)([H:8])([H:9])[H:10]"
C       -1.63865900       0.58562994       1.34700360
O       -0.67540773      -0.21575788       0.70072250
C       -0.23847246       0.22103104      -1.21754384
C        0.91860403      -0.73953099      -1.37462259
N        1.44360621      -0.97559324      -0.02288683
C        1.15316488       0.16810949       0.76496590
O        1.25011302       1.25520067       0.05648580
H       -1.48587550       1.64612506       1.12366027
H       -2.63496954       0.28464427       1.01382786
H       -1.57879838       0.42613497       2.42705954
H       -0.21422609       1.17976980      -1.72860068
H       -1.19728681      -0.22553848      -1.48679963
H        1.70233080      -0.27506509      -1.97314086
H        0.61805928      -1.68422487      -1.82862207
H        1.05548509      -1.80607806       0.40158751
H        1.52233220       0.15514337       1.79690351
16
Frame=11 idx=010005 GeodesicLength=1.0979229582713799 rxn_smarts="[C:1]([O:2][C:3]([C:4]([N:5]([C:6](=[O:7])[H:16])[H:15])([H:13])[H:14])([H:11])[H:12])([H:8])([H:9])[H:10]>>[C:1]([O:2][C@@:6]1([H:16])[N:5]([H:15])[C:4]([H:13])([H:14])[C:3]([H:11])([H:12])[O:7]1)([H:8])([H:9])[H:10]"
C       -1.65829582       0.57711736       1.34708645
O       -0.68427108      -0.20790725       0.69872341
C       -0.23222090       0.23421977      -1.20707069
C        0.91193502      -0.74310307      -1.37120910
N        1.44120164      -0.97838311      -0.02161392
C        1.18818621       0.17259289       0.76409520
O        1.28789160       1.25168373       0.04130717
H       -1.52564285       1.64047888       1.12394383
H       -2.65123858       0.26067658       1.01787494
H       -1.59200500       0.41893699       2.42691314
H       -0.20389366       1.18706983      -1.73071448
H       -1.18997639      -0.20244957      -1.49961449
H        1.69859130      -0.29081706      -1.97524298
H        0.59781532      -1.68582204      -1.81970751
H        1.04550975      -1.79961299       0.41300315
H        1.56641346       0.16531907       1.79222590
16
Frame=12 idx=010005 GeodesicLength=1.1979415923240884 rxn_smarts="[C:1]([O:2][C:3]([C:4]([N:5]([C:6](=[O:7])[H:16])[H:15])([H:13])[H:14])([H:11])[H:12])([H:8])([H:9])[H:10]>>[C:1]([O:2][C@@:6]1([H:16])[N:5]([H:15])[C:4]([H:13])([H:14])[C:3]([H:11])([H:12])[O:7]1)([H:8])([H:9])[H:10]"
C       -1.67882707       0.56812054       1.34688354
O       -0.69361274      -0.19965760       0.69666193
C       -0.22546795       0.24820003      -1.19619509
C        0.90479457      -0.74655717      -1.36738643
N        1.43854653      -0.98107207      -0.02004032
C        1.22470579       0.17680308       0.76268091
O        1.32698808       1.24749429       0.02536351
H       -1.56797432       1.63390704       1.12303526
H       -2.66780272       0.23466031       1.02238115
H       -1.60530972       0.41247747       2.42654953
H       -0.19247770       1.19496582      -1.73240601
H       -1.18187107      -0.17773081      -1.51211567
H        1.69428092      -0.30729825      -1.97735100
H        0.57634673      -1.68701814      -1.80989912
H        1.03517811      -1.79243902       0.42515156
H        1.61250255       0.17514448       1.78668625
16
Frame=13 idx=010005 GeodesicLength=1.2979339975955102 rxn_smarts="[C:1]([O:2][C:3]([C:4]([N:5]([C:6](=[O:7])[H:16])[H:15])([H:13])[H:14])([H:11])[H:12])([H:8])([H:9])[H:10]>>[C:1]([O:2][C@@:6]1([H:16])[N:5]([H:15])[C:4]([H:13])([H:14])[C:3]([H:11])([H:12])[O:7]1)([H:8])([H:9])[H:10]"
C       -1.70030955       0.55861436       1.34634278
O       -0.70345624      -0.19098077       0.69455001
C       -0.21817924       0.26302975      -1.18485374
C        0.89714722      -0.74986024      -1.36311828
N        1.43563945      -0.98363966      -0.01814854
C        1.26284088       0.18067044       0.76067079
O        1.36745437       1.24255964       0.00861527
H       -1.61305444       1.62630683       1.12074088
H       -2.68463254       0.20641242       1.02737342
H       -1.61874775       0.40692120       2.42593377
H       -0.17991976       1.20352330      -1.73358591
H       -1.17293070      -0.15131035      -1.52421340
H        1.68932856      -0.32451881      -1.97945876
H        0.55357604      -1.68775175      -1.79913073
H        1.02449183      -1.78449137       0.43807941
H        1.66075186       0.18451503       1.78020305
16
Frame=14 idx=010005 GeodesicLength=1.397900090798497 rxn_smarts="[C:1]([O:2][C:3]([C:4]([N:5]([C:6](=[O:7])[H:16])[H:15])([H:13])[H:14])([H:11])[H:12])([H:8])([H:9])[H:10]>>[C:1]([O:2][C@@:6]1([H:16])[N:5]([H:15])[C:4]([H:13])([H:14])[C:3]([H:11])([H:12])[O:7]1)([H:8])([H:9])[H:10]"
C       -1.72281496       0.54856131       1.34539697
O       -0.71381359      -0.18182850       0.69242263
C       -0.21030274       0.27878621      -1.17296139
C        0.88894185      -0.75295487      -1.35835695
N        1.43247439      -0.98606901      -0.01591970
C        1.30273846       0.18408336       0.75800146
O        1.40938553       1.23677219      -0.00898059
H       -1.66117352       1.61746702       1.11673017
H       -2.70163122       0.17565399       1.03294408
H       -1.63237030       0.40258534       2.42500521
H       -0.16613959       1.21282601      -1.73413809
H       -1.16309753      -0.12308119      -1.53579357
H        1.68361902      -0.34247713      -1.98155101
H        0.52938698      -1.68790264      -1.78731543
H        1.01345588      -1.77568873       0.45183548
H        1.71134135       0.19326665       1.77268073
16
Frame=15 idx=010005 GeodesicLength=1.497823331097174 rxn_smarts="[C:1]([O:2][C:3]([C:4]([N:5]([C:6](=[O:7])[H:16])[H:15])([H:13])[H:14])([H:11])[H:12])([H:8])([H:9])[H:10]>>[C:1]([O:2][C@@:6]1([H:16])[N:5]([H:15])[C:4]([H:13])([H:14])[C:3]([H:11])([H:12])[O:7]1)([H:8])([H:9])[H:10]"
C       -1.74641877       0.53792034       1.34397776
O       -0.72470254      -0.17215338       0.69031087
C       -0.20178941       0.29555114      -1.16042747
C        0.88013142      -0.75578824      -1.35305344
N        1.42904572      -0.98833751      -0.01333185
C        1.34454338       0.18692649       0.75460094
O        1.45285545       1.23002219      -0.02747485
H       -1.71260942       1.60717457       1.11067561
H       -2.71870839       0.14211353       1.03918657
H       -1.64623316       0.39978313       2.42370576
H       -0.15105927       1.22296546      -1.73393824
H       -1.15232046      -0.09293227      -1.54673784
H        1.67705207      -0.36116777      -1.98361447
H        0.50367306      -1.68736593      -1.77436466
H        1.00208069      -1.76594326       0.46647662
H        1.76445964       0.20123149       1.76400869
16
Frame=16 idx=010005 GeodesicLength=1.5976976349633334 rxn_smarts="[C:1]([O:2][C:3]([C:4]([N:5]([C:6](=[O:7])[H:16])[H:15])([H:13])[H:14])([H:11])[H:12])([H:8])([H:9])[H:10]>>[C:1]([O:2][C@@:6]1([H:16])[N:5]([H:15])[C:4]([H:13])([H:14])[C:3]([H:11])([H:12])[O:7]1)([H:8])([H:9])[H:10]"
C       -1.77120135       0.52664220       1.34200580
O       -0.73613908      -0.16189550       0.68825661
C       -0.19257484       0.31342298      -1.14714520
C        0.87065663      -0.75828812      -1.34714582
N        1.42534924      -0.99041914      -0.01035839
C        1.38841650       0.18905406       0.75038524
O        1.49795987       1.22217398      -0.04692834
H       -1.76771672       1.59513948       1.10214900
H       -2.73572096       0.10543629       1.04625635
H       -1.66040838       0.39893563       2.42195479
H       -0.13457967       1.23405704      -1.73284142
H       -1.14053857      -0.06071713      -1.55691745
H        1.66949944      -0.38058026      -1.98562635
H        0.47629975      -1.68600183      -1.76016685
H        0.99037581      -1.75515338       0.48206752
H        1.82032232       0.20819370       1.75405451
