14
Frame=0 idx=000656 GeodesicLength=0.0 rxn_smarts="[O:1]([C@@:2]1([H:8])[C:3]([H:9])([H:10])[C@@:4]2([H:11])[C:5]([H:12])([H:13])[C@@:6]12[H:14])[H:7]>>[H:7][H:14].[O:1]=[C:2]([C:6]12[C:3]([H:9])([H:10])[C:4]1([H:11])[C:5]2([H:12])[H:13])[H:8]"
O       -0.87705119       1.89727906       0.16918076
C       -0.87610457       0.66601412       0.55278487
C       -1.05089253      -0.78747198      -0.37945005
C        0.32550755      -1.28943270      -0.07649090
C        1.20436855      -0.25369565      -0.73046679
C        0.46389573       0.09291646       0.49677818
H        0.44739850       2.06324458       0.74072902
H       -1.44498148       0.40198676       1.45526107
H       -1.21302133      -0.48955250      -1.41196577
H       -1.87775904      -1.33220420       0.06256158
H        0.60638376      -2.26687381       0.28316006
H        0.93803943       0.15588996      -1.70063813
H        2.26676182      -0.36369693      -0.54508684
H        1.08745479       1.50559682       1.08364292
14
Frame=1 idx=000656 GeodesicLength=0.07590073354665886 rxn_smarts="[O:1]([C@@:2]1([H:8])[C:3]([H:9])([H:10])[C@@:4]2([H:11])[C:5]([H:12])([H:13])[C@@:6]12[H:14])[H:7]>>[H:7][H:14].[O:1]=[C:2]([C:6]12[C:3]([H:9])([H:10])[C:4]1([H:11])[C:5]2([H:12])[H:13])[H:8]"
O       -0.87325342       1.91024125       0.18616384
C       -0.88281905       0.67269873       0.55278156
C       -1.05086381      -0.79289766      -0.38476156
C        0.32619141      -1.29327946      -0.08202902
C        1.20275940      -0.25672339      -0.73504235
C        0.45242389       0.08973685       0.48679018
H        0.45429909       2.07672388       0.75113234
H       -1.45407833       0.40720989       1.45328122
H       -1.21900836      -0.50495863      -1.41944896
H       -1.87509577      -1.34035212       0.05934330
H        0.61103724      -2.26217109       0.29685898
H        0.93953920       0.15128720      -1.70674605
H        2.26509885      -0.35331432      -0.54267771
H        1.10376964       1.49579887       1.08435423
14
Frame=2 idx=000656 GeodesicLength=0.15166452001674108 rxn_smarts="[O:1]([C@@:2]1([H:8])[C:3]([H:9])([H:10])[C@@:4]2([H:11])[C:5]([H:12])([H:13])[C@@:6]12[H:14])[H:7]>>[H:7][H:14].[O:1]=[C:2]([C:6]12[C:3]([H:9])([H:10])[C:4]1([H:11])[C:5]2([H:12])[H:13])[H:8]"
O       -0.86916516       1.92322314       0.20359926
C       -0.88958979       0.67955337       0.55252210
C       -1.05084738      -0.79847330      -0.39017624
C        0.32692807      -1.29702956      -0.08740119
C        1.20111202      -0.25972223      -0.73970637
C        0.44080160       0.08679969       0.47648482
H        0.46139900       2.09040217       0.76201464
H       -1.46326257       0.41258281       1.45101986
H       -1.22494945      -0.52104469      -1.42705038
H       -1.87239084      -1.34852772       0.05623383
H        0.61566478      -2.25698388       0.31062945
H        0.94101138       0.14643209      -1.71305018
H        2.26320686      -0.34274500      -0.54040940
H        1.12008148       1.48553312       1.08528980
14
Frame=3 idx=000656 GeodesicLength=0.22734791932376136 rxn_smarts="[O:1]([C@@:2]1([H:8])[C:3]([H:9])([H:10])[C@@:4]2([H:11])[C:5]([H:12])([H:13])[C@@:6]12[H:14])[H:7]>>[H:7][H:14].[O:1]=[C:2]([C:6]12[C:3]([H:9])([H:10])[C:4]1([H:11])[C:5]2([H:12])[H:13])[H:8]"
O       -0.86478325       1.93621016       0.22149731
C       -0.89641796       0.68659234       0.55199362
C       -1.05084310      -0.80420195      -0.39569367
C        0.32771898      -1.30066985      -0.09259626
C        1.19942365      -0.26268608      -0.74446409
C        0.42902577       0.08411777       0.46584847
H        0.46870215       2.10429732       0.77336471
H       -1.47253759       0.41811421       1.44846070
H       -1.23083738      -0.53783621      -1.43476257
H       -1.86964086      -1.35672908       0.05324312
H        0.62026794      -2.25129426       0.32446926
H        0.94245248       0.14131789      -1.71955846
H        2.26107958      -0.33198245      -0.53830170
H        1.13638959       1.47475018       1.08649957
14
Frame=4 idx=000656 GeodesicLength=0.30302956091078714 rxn_smarts="[O:1]([C@@:2]1([H:8])[C:3]([H:9])([H:10])[C@@:4]2([H:11])[C:5]([H:12])([H:13])[C@@:6]12[H:14])[H:7]>>[H:7][H:14].[O:1]=[C:2]([C:6]12[C:3]([H:9])([H:10])[C:4]1([H:11])[C:5]2([H:12])[H:13])[H:8]"
O       -0.86010505       1.94918777       0.23986606
C       -0.90330460       0.69383150       0.55118271
C       -1.05085032      -0.81008632      -0.40131274
C        0.32856634      -1.30418479      -0.09760303
C        1.19769074      -0.26560683      -0.74932231
C        0.41709293       0.08170577       0.45486572
H        0.47621252       2.11843304       0.78516266
H       -1.48190790       0.42381507       1.44558707
H       -1.23666479      -0.55536335      -1.44257558
H       -1.86684148      -1.36495330       0.05038303
H        0.62484976      -2.24507592       0.33837793
H        0.94385791       0.13593845      -1.72628018
H        2.25871184      -0.32101521      -0.53637684
H        1.15269210       1.46337410       1.08804552
14
Frame=5 idx=000656 GeodesicLength=0.3787730332431887 rxn_smarts="[O:1]([C@@:2]1([H:8])[C:3]([H:9])([H:10])[C@@:4]2([H:11])[C:5]([H:12])([H:13])[C@@:6]12[H:14])[H:7]>>[H:7][H:14].[O:1]=[C:2]([C:6]12[C:3]([H:9])([H:10])[C:4]1([H:11])[C:5]2([H:12])[H:13])[H:8]"
O       -0.85513177       1.96213622       0.25871005
C       -0.91024823       0.70128545       0.55007862
C       -1.05086914      -0.81612723      -0.40703319
C        0.32947156      -1.30755856      -0.10241456
C        1.19591042      -0.26847565      -0.75428879
C        0.40500038       0.07957512       0.44352115
H        0.48392781       2.13283618       0.79738703
H       -1.49137414       0.42969156       1.44238264
H       -1.24242506      -0.57364771      -1.45047756
H       -1.86398964      -1.37319597       0.04766320
H        0.62941266      -2.23831521       0.35236230
H        0.94522328       0.13029125      -1.73322450
H        2.25609900      -0.30983565      -0.53465727
H        1.16899287       1.45134020       1.08999088
14
Frame=6 idx=000656 GeodesicLength=0.45458510112555767 rxn_smarts="[O:1]([C@@:2]1([H:8])[C:3]([H:9])([H:10])[C@@:4]2([H:11])[C:5]([H:12])([H:13])[C@@:6]12[H:14])[H:7]>>[H:7][H:14].[O:1]=[C:2]([C:6]12[C:3]([H:9])([H:10])[C:4]1([H:11])[C:5]2([H:12])[H:13])[H:8]"
O       -0.84985584       1.97503750       0.27804533
C       -0.91725028       0.70897001       0.54866798
C       -1.05089809      -0.82232747      -0.41285460
C        0.33043685      -1.31077419      -0.10702031
C        1.19407919      -0.27128466      -0.75937129
C        0.39274440       0.07774010       0.43179753
H        0.49185749       2.14752830       0.81002501
H       -1.50094251       0.43575240       1.43882954
H       -1.24810893      -0.59271764      -1.45845687
H       -1.86107998      -1.38145371       0.04509345
H        0.63395867      -2.23097804       0.36642933
H        0.94654496       0.12436803      -1.74040156
H        2.25323541      -0.29842943      -0.53316825
H        1.18527865       1.43856879       1.09238469
14
Frame=7 idx=000656 GeodesicLength=0.5304913410569048 rxn_smarts="[O:1]([C@@:2]1([H:8])[C:3]([H:9])([H:10])[C@@:4]2([H:11])[C:5]([H:12])([H:13])[C@@:6]12[H:14])[H:7]>>[H:7][H:14].[O:1]=[C:2]([C:6]12[C:3]([H:9])([H:10])[C:4]1([H:11])[C:5]2([H:12])[H:13])[H:8]"
O       -0.84427642       1.98786727       0.29788047
C       -0.92430735       0.71690005       0.54694208
C       -1.05093655      -0.82868674      -0.41877711
C        0.33146305      -1.31381361      -0.11141535
C        1.19219374      -0.27402364      -0.76457881
C        0.38032189       0.07621229       0.41967781
H        0.50000210       2.16253876       0.82305286
H       -1.51061447       0.44200146       1.43491245
H       -1.25370747      -0.61259525      -1.46649834
H       -1.85810845      -1.38972015       0.04268251
H        0.63848963      -2.22303969       0.38059109
H        0.94781886       0.11816738      -1.74782093
H        2.25011764      -0.28678683      -0.53193205
H        1.20154380       1.42497869       1.09528332
14
Frame=8 idx=000656 GeodesicLength=0.6064888096507445 rxn_smarts="[O:1]([C@@:2]1([H:8])[C:3]([H:9])([H:10])[C@@:4]2([H:11])[C:5]([H:12])([H:13])[C@@:6]12[H:14])[H:7]>>[H:7][H:14].[O:1]=[C:2]([C:6]12[C:3]([H:9])([H:10])[C:4]1([H:11])[C:5]2([H:12])[H:13])[H:8]"
O       -0.83838977       2.00059719       0.31823529
C       -0.93141851       0.72509246       0.54489244
C       -1.05098210      -0.83520525      -0.42479940
C        0.33255255      -1.31665835      -0.11559026
C        1.19025221      -0.27668341      -0.76991826
C        0.36773099       0.07500266       0.40714615
H        0.50837125       2.17789989       0.83643890
H       -1.52039489       0.44844459       1.43061458
H       -1.25920790      -0.63330523      -1.47458558
H       -1.85507033      -1.39798841       0.04043940
H        0.64300424      -2.21446800       0.39485211
H        0.94904284       0.11168439      -1.75549011
H        2.24674114      -0.27489324      -0.53097560
H        1.21776827       1.41048071       1.09874035
14
Frame=9 idx=000656 GeodesicLength=0.6825579590782063 rxn_smarts="[O:1]([C@@:2]1([H:8])[C:3]([H:9])([H:10])[C@@:4]2([H:11])[C:5]([H:12])([H:13])[C@@:6]12[H:14])[H:7]>>[H:7][H:14].[O:1]=[C:2]([C:6]12[C:3]([H:9])([H:10])[C:4]1([H:11])[C:5]2([H:12])[H:13])[H:8]"
O       -0.83218473       2.01320996       0.33910130
C       -0.93857664       0.73355638       0.54251605
C       -1.05103242      -0.84188251      -0.43092072
C        0.33370755      -1.31928526      -0.11953777
C        1.18825067      -0.27925203      -0.77539985
C        0.35496464       0.07412483       0.39418116
H        0.51696428       2.19363616       0.85017399
H       -1.53028069       0.45507878       1.42592375
H       -1.26460369      -0.65486138      -1.48269996
H       -1.85195984      -1.40625272       0.03837068
H        0.64750721      -2.20522613       0.40923436
H        0.95021077       0.10491452      -1.76342071
H        2.24310218      -0.26273279      -0.53032235
H        1.23393071       1.39497221       1.10280009
14
Frame=10 idx=000656 GeodesicLength=0.7587066489440496 rxn_smarts="[O:1]([C@@:2]1([H:8])[C:3]([H:9])([H:10])[C@@:4]2([H:11])[C:5]([H:12])([H:13])[C@@:6]12[H:14])[H:7]>>[H:7][H:14].[O:1]=[C:2]([C:6]12[C:3]([H:9])([H:10])[C:4]1([H:11])[C:5]2([H:12])[H:13])[H:8]"
O       -0.82566936       2.02565657       0.36052149
C       -0.94577880       0.74231207       0.53980913
C       -1.05108554      -0.84871537      -0.43713994
C        0.33492862      -1.32167746      -0.12325425
C        1.18618905      -0.28172016      -0.78102785
C        0.34202547       0.07358343       0.38077229
H        0.52579503       2.20980261       0.86418193
H       -1.54028167       0.46191170       1.42082433
H       -1.26987542      -0.67728732      -1.49081892
H       -1.84877204      -1.41450160       0.03648482
H        0.65199134      -2.19529353       0.42373016
H        0.95132534       0.09785982      -1.77161414
H        2.23919814      -0.25029175      -0.52999556
H        1.25000985       1.37836100       1.10752652
14
Frame=11 idx=000656 GeodesicLength=0.8349462239003077 rxn_smarts="[O:1]([C@@:2]1([H:8])[C:3]([H:9])([H:10])[C@@:4]2([H:11])[C:5]([H:12])([H:13])[C@@:6]12[H:14])[H:7]>>[H:7][H:14].[O:1]=[C:2]([C:6]12[C:3]([H:9])([H:10])[C:4]1([H:11])[C:5]2([H:12])[H:13])[H:8]"
O       -0.81884829       2.03789525       0.38251070
C       -0.95301322       0.75137245       0.53677519
C       -1.05113919      -0.85569895      -0.44345682
C        0.33621526      -1.32381539      -0.12673783
C        1.18406618      -0.28407603      -0.78680752
C        0.32891127       0.07338318       0.36690608
H        0.53486142       2.22645463       0.87839662
H       -1.55039764       0.46894201       1.41530516
H       -1.27500881      -0.70059723      -1.49891395
H       -1.84550248      -1.42272270       0.03478659
H        0.65645410      -2.18464032       0.43834267
H        0.95238739       0.09052474      -1.78007271
H        2.23502582      -0.23755741      -0.53001751
H        1.26598820       1.36053578       1.11298333
14
Frame=12 idx=000656 GeodesicLength=0.9112339604272194 rxn_smarts="[O:1]([C@@:2]1([H:8])[C:3]([H:9])([H:10])[C@@:4]2([H:11])[C:5]([H:12])([H:13])[C@@:6]12[H:14])[H:7]>>[H:7][H:14].[O:1]=[C:2]([C:6]12[C:3]([H:9])([H:10])[C:4]1([H:11])[C:5]2([H:12])[H:13])[H:8]"
O       -0.81171604       2.04988117       0.40509519
C       -0.96027215       0.76074808       0.53342354
C       -1.05118926      -0.86282957      -0.44986977
C        0.33756846      -1.32567894      -0.12998524
C        1.18188116      -0.28630893      -0.79274184
C        0.31562105       0.07352677       0.35257216
H        0.54417714       2.24364872       0.89274393
H       -1.56063326       0.47616491       1.40935965
H       -1.27998619      -0.72479877      -1.50696078
H       -1.84214685      -1.43090579       0.03327846
H        0.66088966      -2.17323890       0.45307299
H        0.95339843       0.08291300      -1.78879567
H        2.23058262      -0.22451004      -0.53040553
H        1.28182522       1.34138828       1.11921292
14
Frame=13 idx=000656 GeodesicLength=0.9875030119194903 rxn_smarts="[O:1]([C@@:2]1([H:8])[C:3]([H:9])([H:10])[C@@:4]2([H:11])[C:5]([H:12])([H:13])[C@@:6]12[H:14])[H:7]>>[H:7][H:14].[O:1]=[C:2]([C:6]12[C:3]([H:9])([H:10])[C:4]1([H:11])[C:5]2([H:12])[H:13])[H:8]"
O       -0.80427349       2.06155953       0.42830109
C       -0.96753985       0.77044698       0.52976626
C       -1.05123316      -0.87010125      -0.45637979
C        0.33898554      -1.32725129      -0.13299721
C        1.17963443      -0.28840931      -0.79883203
C        0.30215387       0.07401146       0.33776208
H        0.55374170       2.26143725       0.90715562
H       -1.57099038       0.48357237       1.40298075
H       -1.28478950      -0.74989294      -1.51493008
H       -1.83870360      -1.43903751       0.03195848
H        0.66528771      -2.16107237       0.46791904
H        0.95436298       0.07503065      -1.79777921
H        2.22586583      -0.21114197      -0.53117350
H        1.29749790       1.32084839       1.12624852
14
Frame=14 idx=000656 GeodesicLength=1.0637393186452675 rxn_smarts="[O:1]([C@@:2]1([H:8])[C:3]([H:9])([H:10])[C@@:4]2([H:11])[C:5]([H:12])([H:13])[C@@:6]12[H:14])[H:7]>>[H:7][H:14].[O:1]=[C:2]([C:6]12[C:3]([H:9])([H:10])[C:4]1([H:11])[C:5]2([H:12])[H:13])[H:8]"
O       -0.79651877       2.07287201       0.45216627
C       -0.97480244       0.78047452       0.52582778
C       -1.05126661      -0.87750655      -0.46298633
C        0.34046585      -1.32851389      -0.13577337
C        1.17732759      -0.29036565      -0.80507397
C        0.28851018       0.07483149       0.32247408
H        0.56356808       2.27991052       0.92149974
H       -1.58147361       0.49115509       1.39617066
H       -1.28939546      -0.77588133      -1.52278987
H       -1.83516931      -1.44710420       0.03082302
H        0.66963596      -2.14812170       0.48286289
H        0.95528780       0.06689061      -1.80701174
H        2.22087185      -0.19743156      -0.53233098
H        1.31295890       1.29879062       1.13414182
14
Frame=15 idx=000656 GeodesicLength=1.1398894515400833 rxn_smarts="[O:1]([C@@:2]1([H:8])[C:3]([H:9])([H:10])[C@@:4]2([H:11])[C:5]([H:12])([H:13])[C@@:6]12[H:14])[H:7]>>[H:7][H:14].[O:1]=[C:2]([C:6]12[C:3]([H:9])([H:10])[C:4]1([H:11])[C:5]2([H:12])[H:13])[H:8]"
O       -0.78844924       2.08374909       0.47673320
C       -0.98204258       0.79083170       0.52163915
C       -1.05128612      -0.88503689      -0.46969100
C        0.34200542      -1.32945204      -0.13831748
C        1.17496304      -0.29216778      -0.81146056
C        0.27469045       0.07597557       0.30671033
H        0.57366310       2.29915770       0.93564242
H       -1.59208511       0.49889651       1.38893541
H       -1.29378024      -0.80275147      -1.53050943
H       -1.83154422      -1.45509196       0.02986155
H        0.67391770      -2.13438054       0.49788820
H        0.95618208       0.05850968      -1.81647734
H        2.21559777      -0.18336651      -0.53387947
H        1.32816795       1.27512694       1.14292502
14
Frame=16 idx=000656 GeodesicLength=1.2159108204302047 rxn_smarts="[O:1]([C@@:2]1([H:8])[C:3]([H:9])([H:10])[C@@:4]2([H:11])[C:5]([H:12])([H:13])[C@@:6]12[H:14])[H:7]>>[H:7][H:14].[O:1]=[C:2]([C:6]12[C:3]([H:9])([H:10])[C:4]1([H:11])[C:5]2([H:12])[H:13])[H:8]"
O       -0.78005945       2.09411541       0.50205797
C       -0.98924023       0.80151476       0.51723970
C       -1.05128856      -0.89268274      -0.47649733
C        0.34359859      -1.33005377      -0.14063641
C        1.17254376      -0.29380581      -0.81798046
C        0.26069553       0.07742643       0.29047885
H        0.58403409       2.31928797       0.94941678
H       -1.60282864       0.50677796       1.38128614
H       -1.29791708      -0.83048721      -1.53805721
H       -1.82783029      -1.46298689       0.02905828
H        0.67811359      -2.11984795       0.51297099
H        0.95705817       0.04991051      -1.82615384
H        2.21003982      -0.16893337      -0.53581352
H        1.34308071       1.24976469       1.15263007
