10
Frame=0 idx=010284 GeodesicLength=0.0 rxn_smarts="[N:1](=[C:2]=[C:7]([C:6](=[O:5])[H:9])[H:10])[H:8].[N:3]#[N:4]>>[N:1](=[C:2]1\[O:5][C:6]([H:9])=[C:7]1[H:10])\[H:8].[N:3]#[N:4]"
N        1.72401263      -0.15978157       0.20319284
C        0.65514132      -0.69997233       0.17514162
N        0.78381097       2.93383769      -0.36702367
N        0.00133009       3.66899627      -0.53976114
O       -0.96212990       0.23665500      -0.14942124
C       -1.35118139      -0.97726018       0.00105454
C       -0.25938695      -1.76921115       0.24661420
H        1.88636552       0.82505826       0.06788647
H       -2.40534250      -1.24656287      -0.07188235
H       -0.07261980      -2.81175911       0.43419874
10
Frame=1 idx=010284 GeodesicLength=0.027710015007452567 rxn_smarts="[N:1](=[C:2]=[C:7]([C:6](=[O:5])[H:9])[H:10])[H:8].[N:3]#[N:4]>>[N:1](=[C:2]1\[O:5][C:6]([H:9])=[C:7]1[H:10])\[H:8].[N:3]#[N:4]"
N        1.72978807      -0.16292073       0.22425177
C        0.65668989      -0.69471563       0.16441084
N        0.78472652       2.94952992      -0.31943841
N       -0.02506856       3.64940857      -0.51187023
O       -0.95603767       0.22897224      -0.22278152
C       -1.35236724      -0.97504698      -0.01657868
C       -0.26286498      -1.75490480       0.28099063
H        1.91340064       0.80145707      -0.00245732
H       -2.40764982      -1.24440656      -0.07003837
H       -0.08061683      -2.79737310       0.47351129
10
Frame=2 idx=010284 GeodesicLength=0.05626613849560781 rxn_smarts="[N:1](=[C:2]=[C:7]([C:6](=[O:5])[H:9])[H:10])[H:8].[N:3]#[N:4]>>[N:1](=[C:2]1\[O:5][C:6]([H:9])=[C:7]1[H:10])\[H:8].[N:3]#[N:4]"
N        1.73409021      -0.16295122       0.24164357
C        0.65826552      -0.68848360       0.15558703
N        0.78569653       2.96028875      -0.28794131
N       -0.05025072       3.62847714      -0.48135579
O       -0.95127374       0.22218633      -0.28083551
C       -1.35346242      -0.97258569      -0.03249924
C       -0.26491561      -1.74089222       0.30328795
H        1.93917653       0.77708439      -0.05869334
H       -2.40944600      -1.24173827      -0.07004144
H       -0.08788030      -2.78138561       0.51084810
10
Frame=3 idx=010284 GeodesicLength=0.08628273949440415 rxn_smarts="[N:1](=[C:2]=[C:7]([C:6](=[O:5])[H:9])[H:10])[H:8].[N:3]#[N:4]>>[N:1](=[C:2]1\[O:5][C:6]([H:9])=[C:7]1[H:10])\[H:8].[N:3]#[N:4]"
N        1.73990107      -0.16281653       0.24567340
C        0.65927066      -0.68008032       0.15173306
N        0.78570034       2.96962782      -0.25039267
N       -0.07436441       3.60488748      -0.44911152
O       -0.94679878       0.21513172      -0.33438624
C       -1.35471437      -0.96919026      -0.04535117
C       -0.26751281      -1.72383335       0.32983838
H        1.96389644       0.74997187      -0.11977397
H       -2.40956885      -1.24235168      -0.08434316
H       -0.09580928      -2.76134675       0.55611390
10
Frame=4 idx=010284 GeodesicLength=0.11618961834617522 rxn_smarts="[N:1](=[C:2]=[C:7]([C:6](=[O:5])[H:9])[H:10])[H:8].[N:3]#[N:4]>>[N:1](=[C:2]1\[O:5][C:6]([H:9])=[C:7]1[H:10])\[H:8].[N:3]#[N:4]"
N        1.74326202      -0.15974537       0.26076075
C        0.65932711      -0.67043074       0.15287120
N        0.78930170       2.97720143      -0.24415733
N       -0.09841318       3.58189650      -0.41516465
O       -0.94444719       0.21056751      -0.37228862
C       -1.35646051      -0.96591273      -0.05549138
C       -0.26907357      -1.70921040       0.34662608
H        1.98776519       0.72367944      -0.16076404
H       -2.41078032      -1.24166532      -0.08938530
H       -0.10048126      -2.74638032       0.57699330
10
Frame=5 idx=010284 GeodesicLength=0.146516961685667 rxn_smarts="[N:1](=[C:2]=[C:7]([C:6](=[O:5])[H:9])[H:10])[H:8].[N:3]#[N:4]>>[N:1](=[C:2]1\[O:5][C:6]([H:9])=[C:7]1[H:10])\[H:8].[N:3]#[N:4]"
N        1.74610368      -0.15550903       0.27570503
C        0.65844336      -0.65917841       0.15785942
N        0.79183054       2.98615511      -0.23147089
N       -0.11872138       3.55741861      -0.39714280
O       -0.94384068       0.20746441      -0.40127688
C       -1.35892538      -0.96214608      -0.06128100
C       -0.27000620      -1.69560215       0.35977284
H        2.01023076       0.69692800      -0.19603408
H       -2.41239137      -1.24142173      -0.09142373
H       -0.10272333      -2.73410873       0.58529210
10
Frame=6 idx=010284 GeodesicLength=0.1768985790683209 rxn_smarts="[N:1](=[C:2]=[C:7]([C:6](=[O:5])[H:9])[H:10])[H:8].[N:3]#[N:4]>>[N:1](=[C:2]1\[O:5][C:6]([H:9])=[C:7]1[H:10])\[H:8].[N:3]#[N:4]"
N        1.74789155      -0.14985324       0.29220007
C        0.65680180      -0.64687955       0.16448523
N        0.79547826       2.99510711      -0.23036732
N       -0.13812766       3.53394816      -0.37477337
O       -0.94466745       0.20554380      -0.42436190
C       -1.36150622      -0.95923077      -0.06784442
C       -0.27064375      -1.68265707       0.37044286
H        2.03253186       0.66879828      -0.22626142
H       -2.41407994      -1.24217963      -0.09333014
H       -0.10367847      -2.72259710       0.58981041
10
Frame=7 idx=010284 GeodesicLength=0.2074415144641094 rxn_smarts="[N:1](=[C:2]=[C:7]([C:6](=[O:5])[H:9])[H:10])[H:8].[N:3]#[N:4]>>[N:1](=[C:2]1\[O:5][C:6]([H:9])=[C:7]1[H:10])\[H:8].[N:3]#[N:4]"
N        1.74964304      -0.14400859       0.30639906
C        0.65492563      -0.63415491       0.17056735
N        0.79698127       3.00507919      -0.21722628
N       -0.15457947       3.51026665      -0.36623229
O       -0.94657459       0.20436015      -0.44369048
C       -1.36424630      -0.95663966      -0.07371908
C       -0.27072749      -1.67034948       0.37874984
H        2.05402186       0.63998130      -0.25379390
H       -2.41609319      -1.24272857      -0.09186978
H       -0.10335075      -2.71180609       0.59081556
10
Frame=8 idx=010284 GeodesicLength=0.23838930887307078 rxn_smarts="[N:1](=[C:2]=[C:7]([C:6](=[O:5])[H:9])[H:10])[H:8].[N:3]#[N:4]>>[N:1](=[C:2]1\[O:5][C:6]([H:9])=[C:7]1[H:10])\[H:8].[N:3]#[N:4]"
N        1.75163394      -0.13785487       0.31808076
C        0.65280539      -0.62052487       0.17663186
N        0.79939044       3.01467259      -0.21525083
N       -0.17208701       3.48656995      -0.34369688
O       -0.94836722       0.20291719      -0.46418984
C       -1.36675427      -0.95429805      -0.08112396
C       -0.27117474      -1.65669549       0.38867739
H        2.07556655       0.60889285      -0.28161542
H       -2.41734904      -1.24502931      -0.09602157
H       -0.10366404      -2.69864999       0.59850849
10
Frame=9 idx=010284 GeodesicLength=0.26963896335780924 rxn_smarts="[N:1](=[C:2]=[C:7]([C:6](=[O:5])[H:9])[H:10])[H:8].[N:3]#[N:4]>>[N:1](=[C:2]1\[O:5][C:6]([H:9])=[C:7]1[H:10])\[H:8].[N:3]#[N:4]"
N        1.75474074      -0.13287619       0.32450905
C        0.65175436      -0.60787430       0.17768944
N        0.79832251       3.02453757      -0.19709198
N       -0.18864253       3.46163259      -0.33111304
O       -0.94938243       0.20057064      -0.48758201
C       -1.36880005      -0.95198912      -0.08968976
C       -0.27146075      -1.64218662       0.39850443
H        2.09692902       0.57757300      -0.30910714
H       -2.41863316      -1.24565402      -0.09747971
H       -0.10482771      -2.68373353       0.61136071
10
Frame=10 idx=010284 GeodesicLength=0.30173042598124583 rxn_smarts="[N:1](=[C:2]=[C:7]([C:6](=[O:5])[H:9])[H:10])[H:8].[N:3]#[N:4]>>[N:1](=[C:2]1\[O:5][C:6]([H:9])=[C:7]1[H:10])\[H:8].[N:3]#[N:4]"
N        1.75877424      -0.12809582       0.32734870
C        0.65110558      -0.59462691       0.17710930
N        0.79688429       3.03348558      -0.18720366
N       -0.20731141       3.43505840      -0.30285902
O       -0.94893736       0.19675390      -0.51631060
C       -1.37015141      -0.94969156      -0.10092178
C       -0.27240793      -1.62507813       0.41110368
H        2.11885385       0.54379170      -0.33846788
H       -2.41902743      -1.24677235      -0.10418768
H       -0.10778242      -2.66482481       0.63438893
10
Frame=11 idx=010284 GeodesicLength=0.3345352918470243 rxn_smarts="[N:1](=[C:2]=[C:7]([C:6](=[O:5])[H:9])[H:10])[H:8].[N:3]#[N:4]>>[N:1](=[C:2]1\[O:5][C:6]([H:9])=[C:7]1[H:10])\[H:8].[N:3]#[N:4]"
N        1.76474984      -0.12502815       0.32380806
C        0.65168603      -0.58190930       0.17232347
N        0.79181009       3.04162006      -0.16113158
N       -0.22576785       3.40654376      -0.28179994
O       -0.94719124       0.19163053      -0.54882834
C       -1.37108264      -0.94654613      -0.11197267
C       -0.27349402      -1.60568973       0.42530985
H        2.14052627       0.50912971      -0.37055828
H       -2.41887707      -1.24735380      -0.11211828
H       -0.11235940      -2.64239694       0.66496770
10
Frame=12 idx=010284 GeodesicLength=0.36907189038362676 rxn_smarts="[N:1](=[C:2]=[C:7]([C:6](=[O:5])[H:9])[H:10])[H:8].[N:3]#[N:4]>>[N:1](=[C:2]1\[O:5][C:6]([H:9])=[C:7]1[H:10])\[H:8].[N:3]#[N:4]"
N        1.77258095      -0.12295721       0.31464030
C        0.65309395      -0.56841360       0.16494210
N        0.78561252       3.04781366      -0.14110610
N       -0.24699494       3.37440359      -0.24247533
O       -0.94334884       0.18455624      -0.58800957
C       -1.37097648      -0.94309104      -0.12631285
C       -0.27569857      -1.58147535       0.44391721
H        2.16287162       0.47124621      -0.40730596
H       -2.41713005      -1.24946863      -0.12831815
H       -0.12001016      -2.61261388       0.71002835
10
Frame=13 idx=010284 GeodesicLength=0.4057112980007856 rxn_smarts="[N:1](=[C:2]=[C:7]([C:6](=[O:5])[H:9])[H:10])[H:8].[N:3]#[N:4]>>[N:1](=[C:2]1\[O:5][C:6]([H:9])=[C:7]1[H:10])\[H:8].[N:3]#[N:4]"
N        1.78349861      -0.12378862       0.29620927
C        0.65594134      -0.55476761       0.15308692
N        0.77522535       3.05088227      -0.10161242
N       -0.26845462       3.33843118      -0.20746776
O       -0.93785023       0.17570445      -0.63218956
C       -1.37007505      -0.93856928      -0.14145261
C       -0.27865201      -1.55164864       0.46662357
H        2.18458419       0.43133597      -0.45123645
H       -2.41364163      -1.25342129      -0.15024040
H       -0.13057595      -2.57415843       0.76827944
10
Frame=14 idx=010284 GeodesicLength=0.4455125416819664 rxn_smarts="[N:1](=[C:2]=[C:7]([C:6](=[O:5])[H:9])[H:10])[H:8].[N:3]#[N:4]>>[N:1](=[C:2]1\[O:5][C:6]([H:9])=[C:7]1[H:10])\[H:8].[N:3]#[N:4]"
N        1.79653829      -0.12647434       0.27211239
C        0.65935295      -0.53934485       0.13973501
N        0.76337343       3.05043876      -0.06397241
N       -0.29179673       3.29710631      -0.15873792
O       -0.93085272       0.16533331      -0.68077832
C       -1.36839925      -0.93292423      -0.15806014
C       -0.28282770      -1.51492909       0.49320899
H        2.20619615       0.38743409      -0.50046537
H       -2.40746547      -1.26148193      -0.18093897
H       -0.14411896      -2.52515804       0.83789674
10
Frame=15 idx=010284 GeodesicLength=0.4903747848191992 rxn_smarts="[N:1](=[C:2]=[C:7]([C:6](=[O:5])[H:9])[H:10])[H:8].[N:3]#[N:4]>>[N:1](=[C:2]1\[O:5][C:6]([H:9])=[C:7]1[H:10])\[H:8].[N:3]#[N:4]"
N        1.81247799      -0.13259773       0.23928767
C        0.66387507      -0.52231353       0.12264444
N        0.74800087       3.04403402      -0.01261835
N       -0.31626153       3.24855375      -0.10624235
O       -0.92213004       0.15266444      -0.73535765
C       -1.36558388      -0.92622509      -0.17693741
C       -0.28830131      -1.46880112       0.52379426
H        2.22700074       0.33960001      -0.55763693
H       -2.39774085      -1.27397118      -0.21862667
H       -0.16133705      -2.46094357       0.92169298
10
Frame=16 idx=010284 GeodesicLength=0.5411132647664978 rxn_smarts="[N:1](=[C:2]=[C:7]([C:6](=[O:5])[H:9])[H:10])[H:8].[N:3]#[N:4]>>[N:1](=[C:2]1\[O:5][C:6]([H:9])=[C:7]1[H:10])\[H:8].[N:3]#[N:4]"
N        1.83002908      -0.14114032       0.20264127
C        0.66941997      -0.50367627       0.10280722
N        0.72920260       3.03123121       0.04355145
N       -0.34271480       3.19220539      -0.04799706
O       -0.91161971       0.13774601      -0.79454253
C       -1.36174914      -0.91810273      -0.19727481
C       -0.29446147      -1.41434170       0.55458848
H        2.24810126       0.28743369      -0.61742361
H       -2.38493143      -1.28871231      -0.25760886
H       -0.18127635      -2.38264295       1.01125843
