13
Frame=0 idx=003552 GeodesicLength=0.0 rxn_smarts="[C:1]([C@@:2]([O:3][H:11])([C:4]([C:5]#[N:6])([H:12])[H:13])[H:10])([H:7])([H:8])[H:9]>>[C:1]([O:3][H:11])([H:7])([H:8])[H:9].[C:2]([C:4]([C:5]#[N:6])([H:12])[H:13])[H:10]"
C       -1.80939615      -0.82950548       0.16507627
C        0.07815734      -0.06504255      -0.28293824
O       -1.07050419       0.75603289       0.32097348
C        1.34616335       0.46241898       0.35666381
C        2.52158676      -0.05153548      -0.33964382
N        3.43403744      -0.45452415      -0.90632213
H       -2.80334302      -0.40178041       0.33486580
H       -1.75222945      -1.36343587      -0.77324832
H       -1.46274668      -1.41673567       1.00053206
H        0.08170084       0.15879090      -1.35296301
H       -1.37376858       1.47048665      -0.26059391
H        1.41821548       0.17100388       1.40776465
H        1.39212688       1.56382629       0.32983341
13
Frame=1 idx=003552 GeodesicLength=0.045879638312450136 rxn_smarts="[C:1]([C@@:2]([O:3][H:11])([C:4]([C:5]#[N:6])([H:12])[H:13])[H:10])([H:7])([H:8])[H:9]>>[C:1]([O:3][H:11])([H:7])([H:8])[H:9].[C:2]([C:4]([C:5]#[N:6])([H:12])[H:13])[H:10]"
C       -1.78609860      -0.82492684       0.17256281
C        0.06878078      -0.04009112      -0.30899548
O       -1.07274834       0.77740794       0.31276909
C        1.33690476       0.45119643       0.35812354
C        2.51038587      -0.06630138      -0.33876289
N        3.42549247      -0.46399760      -0.90490852
H       -2.79104220      -0.41803209       0.32717735
H       -1.72830125      -1.38987213      -0.74815949
H       -1.43754897      -1.38786765       1.02463964
H        0.08196705       0.20735969      -1.37331447
H       -1.40162439       1.46932126      -0.28085923
H        1.39512802       0.13415505       1.40261907
H        1.39870480       1.55164844       0.35710859
13
Frame=2 idx=003552 GeodesicLength=0.09218392697790048 rxn_smarts="[C:1]([C@@:2]([O:3][H:11])([C:4]([C:5]#[N:6])([H:12])[H:13])[H:10])([H:7])([H:8])[H:9]>>[C:1]([O:3][H:11])([H:7])([H:8])[H:9].[C:2]([C:4]([C:5]#[N:6])([H:12])[H:13])[H:10]"
C       -1.76245464      -0.82000855       0.17930774
C        0.05953089      -0.01490016      -0.33369392
O       -1.07524227       0.79870056       0.30508689
C        1.32723105       0.44014004       0.35918211
C        2.49839295      -0.08161586      -0.33835306
N        3.41600861      -0.47481813      -0.90358695
H       -2.77801990      -0.43490390       0.31846827
H       -1.70165899      -1.41528597      -0.72270693
H       -1.41313600      -1.35848933       1.04757519
H        0.08260917       0.25595736      -1.39175513
H       -1.42971458       1.46737041      -0.29925622
H        1.37179592       0.09901479       1.39670994
H        1.40465778       1.53883876       0.38302206
13
Frame=3 idx=003552 GeodesicLength=0.13896390900470756 rxn_smarts="[C:1]([C@@:2]([O:3][H:11])([C:4]([C:5]#[N:6])([H:12])[H:13])[H:10])([H:7])([H:8])[H:9]>>[C:1]([O:3][H:11])([H:7])([H:8])[H:9].[C:2]([C:4]([C:5]#[N:6])([H:12])[H:13])[H:10]"
C       -1.73856742      -0.81477231       0.18535997
C        0.05040691       0.01048479      -0.35711187
O       -1.07804758       0.81989277       0.29790807
C        1.31721761       0.42923555       0.35987228
C        2.48571262      -0.09736719      -0.33853231
N        3.40571830      -0.48692732      -0.90249992
H       -2.76439391      -0.45238982       0.30845413
H       -1.67221312      -1.43983860      -0.69673769
H       -1.38979829      -1.32845413       1.06962184
H        0.08358432       0.30464803      -1.40837603
H       -1.45801511       1.46465037      -0.31585790
H        1.34836110       0.06538943       1.39015688
H        1.41003457       1.52544843       0.40774255
13
Frame=4 idx=003552 GeodesicLength=0.18640913005144152 rxn_smarts="[C:1]([C@@:2]([O:3][H:11])([C:4]([C:5]#[N:6])([H:12])[H:13])[H:10])([H:7])([H:8])[H:9]>>[C:1]([O:3][H:11])([H:7])([H:8])[H:9].[C:2]([C:4]([C:5]#[N:6])([H:12])[H:13])[H:10]"
C       -1.71441555      -0.80926088       0.19076247
C        0.04142279       0.03595117      -0.37920076
O       -1.08102600       0.84093454       0.29117571
C        1.30682649       0.41852176       0.36023589
C        2.47218858      -0.11349516      -0.33917694
N        3.39422193      -0.50018282      -0.90179456
H       -2.74993777      -0.47045580       0.29712936
H       -1.64003999      -1.46333551      -0.67023740
H       -1.36766802      -1.29789841       1.09069792
H        0.08494421       0.35327374      -1.42303093
H       -1.48615253       1.46103212      -0.33083623
H        1.32477381       0.03335238       1.38300835
H        1.41486204       1.51156289       0.43126714
13
Frame=5 idx=003552 GeodesicLength=0.23443978460230547 rxn_smarts="[C:1]([C@@:2]([O:3][H:11])([C:4]([C:5]#[N:6])([H:12])[H:13])[H:10])([H:7])([H:8])[H:9]>>[C:1]([O:3][H:11])([H:7])([H:8])[H:9].[C:2]([C:4]([C:5]#[N:6])([H:12])[H:13])[H:10]"
C       -1.69011057      -0.80351950       0.19549010
C        0.03259112       0.06136493      -0.39999160
O       -1.08422170       0.86173538       0.28493988
C        1.29611604       0.40809219       0.36023150
C        2.45791973      -0.12989967      -0.34037248
N        3.38178488      -0.51475964      -0.90119483
H       -2.73470404      -0.48912477       0.28469490
H       -1.60544513      -1.48559658      -0.64339987
H       -1.34677588      -1.26708309       1.11067587
H        0.08658181       0.40168846      -1.43578992
H       -1.51403809       1.45664914      -0.34407362
H        1.30121804       0.00308104       1.37538927
H        1.41908378       1.49737212       0.45340079
13
Frame=6 idx=003552 GeodesicLength=0.2830322072755337 rxn_smarts="[C:1]([C@@:2]([O:3][H:11])([C:4]([C:5]#[N:6])([H:12])[H:13])[H:10])([H:7])([H:8])[H:9]>>[C:1]([O:3][H:11])([H:7])([H:8])[H:9].[C:2]([C:4]([C:5]#[N:6])([H:12])[H:13])[H:10]"
C       -1.66577386      -0.79758256       0.19962174
C        0.02391727       0.08669000      -0.41956179
O       -1.08770060       0.88228981       0.27916154
C        1.28517868       0.39792808       0.35993191
C        2.44306899      -0.14651144      -0.34212401
N        3.36851425      -0.53051539      -0.90097309
H       -2.71881024      -0.50838034       0.27098324
H       -1.56844463      -1.50666494      -0.61609645
H       -1.32739495      -1.23595327       1.12979423
H        0.08852091       0.44990111      -1.44677149
H       -1.54166975       1.45148122      -0.35575810
H        1.27778829      -0.02559795       1.36746951
H        1.42280566       1.48291569       0.47432275
13
Frame=7 idx=003552 GeodesicLength=0.33233536986684914 rxn_smarts="[C:1]([C@@:2]([O:3][H:11])([C:4]([C:5]#[N:6])([H:12])[H:13])[H:10])([H:7])([H:8])[H:9]>>[C:1]([O:3][H:11])([H:7])([H:8])[H:9].[C:2]([C:4]([C:5]#[N:6])([H:12])[H:13])[H:10]"
C       -1.64140511      -0.79147847       0.20320681
C        0.01539350       0.11189070      -0.43795737
O       -1.09141042       0.90257009       0.27379105
C        1.27402187       0.38806780       0.35936330
C        2.42757677      -0.16325388      -0.34438779
N        3.35422402      -0.54743615      -0.90115048
H       -2.70214399      -0.52827503       0.25599059
H       -1.52919381      -1.52644867      -0.58829130
H       -1.30954485      -1.20455295       1.14801426
H        0.09075666       0.49787792      -1.45593509
H       -1.56886439       1.44546189      -0.36601696
H        1.25448844      -0.05268727       1.35927341
H        1.42610132       1.46826402       0.49409958
13
Frame=8 idx=003552 GeodesicLength=0.3825519903684099 rxn_smarts="[C:1]([C@@:2]([O:3][H:11])([C:4]([C:5]#[N:6])([H:12])[H:13])[H:10])([H:7])([H:8])[H:9]>>[C:1]([O:3][H:11])([H:7])([H:8])[H:9].[C:2]([C:4]([C:5]#[N:6])([H:12])[H:13])[H:10]"
C       -1.61693149      -0.78524609       0.20625111
C        0.00700358       0.13704368      -0.45525869
O       -1.09540504       0.92256455       0.26883059
C        1.26262868       0.37854762       0.35853765
C        2.41141268      -0.18002519      -0.34720841
N        3.33871648      -0.56589291      -0.90173666
H       -2.68456227      -0.54888956       0.23951990
H       -1.48737509      -1.54493581      -0.55982447
H       -1.29327542      -1.17286051       1.16543015
H        0.09321301       0.54579109      -1.46336120
H       -1.59567970       1.43868437      -0.37484489
H        1.23134660      -0.07828548       1.35087945
H        1.42890797       1.45350424       0.51278546
13
Frame=9 idx=003552 GeodesicLength=0.4336674251209116 rxn_smarts="[C:1]([C@@:2]([O:3][H:11])([C:4]([C:5]#[N:6])([H:12])[H:13])[H:10])([H:7])([H:8])[H:9]>>[C:1]([O:3][H:11])([H:7])([H:8])[H:9].[C:2]([C:4]([C:5]#[N:6])([H:12])[H:13])[H:10]"
C       -1.59246596      -0.77885130       0.20881348
C       -0.00123827       0.16191156      -0.47146886
O       -1.09965134       0.94222774       0.26418873
C        1.25102809       0.36929011       0.35747762
C        2.39464921      -0.19689977      -0.35049223
N        3.32228509      -0.58531088      -0.90270036
H       -2.66605865      -0.57006599       0.22188273
H       -1.44356914      -1.56186541      -0.53080512
H       -1.27855851      -1.14105896       1.18190484
H        0.09587685       0.59327161      -1.46903743
H       -1.62192068       1.43117315      -0.38242898
H        1.20843368      -0.10243946       1.34235673
H        1.43118963       1.43861759       0.53030884
13
Frame=10 idx=003552 GeodesicLength=0.4855967809435615 rxn_smarts="[C:1]([C@@:2]([O:3][H:11])([C:4]([C:5]#[N:6])([H:12])[H:13])[H:10])([H:7])([H:8])[H:9]>>[C:1]([O:3][H:11])([H:7])([H:8])[H:9].[C:2]([C:4]([C:5]#[N:6])([H:12])[H:13])[H:10]"
C       -1.56812502      -0.77239373       0.21095233
C       -0.00929744       0.18648710      -0.48665686
O       -1.10410449       0.96155776       0.25983121
C        1.23928712       0.36038954       0.35623732
C        2.37736237      -0.21371570      -0.35420305
N        3.30482697      -0.60572344      -0.90417993
H       -2.64666207      -0.59187458       0.20322371
H       -1.39806654      -1.57721200      -0.50127467
H       -1.26552945      -1.10931331       1.19744186
H        0.09889410       0.64028382      -1.47305505
H       -1.64743479       1.42287322      -0.38893108
H        1.18572429      -0.12513020       1.33380771
H        1.43312494       1.42377153       0.54680650
13
Frame=11 idx=003552 GeodesicLength=0.538672501125081 rxn_smarts="[C:1]([C@@:2]([O:3][H:11])([C:4]([C:5]#[N:6])([H:12])[H:13])[H:10])([H:7])([H:8])[H:9]>>[C:1]([O:3][H:11])([H:7])([H:8])[H:9].[C:2]([C:4]([C:5]#[N:6])([H:12])[H:13])[H:10]"
C       -1.54375780      -0.76584569       0.21260493
C       -0.01724829       0.21089992      -0.50088914
O       -1.10886172       0.98048158       0.25579747
C        1.22739704       0.35189963       0.35480896
C        2.35947048      -0.23044380      -0.35835181
N        3.28609950      -0.62768675      -0.90595566
H       -2.62615542      -0.61443094       0.18334697
H       -1.35054579      -1.59079582      -0.47117015
H       -1.25397348      -1.07757706       1.21196582
H        0.10199499       0.68701017      -1.47542511
H       -1.67241949       1.41380202      -0.39423360
H        1.16332604      -0.14631132       1.32527312
H        1.43467394       1.40899805       0.56222823
13
Frame=12 idx=003552 GeodesicLength=0.5927259444006263 rxn_smarts="[C:1]([C@@:2]([O:3][H:11])([C:4]([C:5]#[N:6])([H:12])[H:13])[H:10])([H:7])([H:8])[H:9]>>[C:1]([O:3][H:11])([H:7])([H:8])[H:9].[C:2]([C:4]([C:5]#[N:6])([H:12])[H:13])[H:10]"
C       -1.51953229      -0.75925725       0.21386872
C       -0.02502887       0.23496078      -0.51420968
O       -1.11387302       0.99903507       0.25199702
C        1.21539777       0.34379154       0.35324317
C        2.34110854      -0.24709423      -0.36285370
N        3.26637714      -0.65068842      -0.90813029
H       -2.60461776      -0.63759478       0.16267680
H       -1.30167991      -1.60254682      -0.44066089
H       -1.24390862      -1.04616176       1.22543843
H        0.10534979       0.73316068      -1.47626450
H       -1.69665722       1.40405847      -0.39858548
H        1.14120804      -0.16606218       1.31687492
H        1.43585640       1.39439891       0.57660546
13
Frame=13 idx=003552 GeodesicLength=0.6477424504325636 rxn_smarts="[C:1]([C@@:2]([O:3][H:11])([C:4]([C:5]#[N:6])([H:12])[H:13])[H:10])([H:7])([H:8])[H:9]>>[C:1]([O:3][H:11])([H:7])([H:8])[H:9].[C:2]([C:4]([C:5]#[N:6])([H:12])[H:13])[H:10]"
C       -1.49551511      -0.75262045       0.21475589
C       -0.03263662       0.25854542      -0.52664307
O       -1.11908753       1.01715293       0.24837659
C        1.20332800       0.33606004       0.35157652
C        2.32232949      -0.26361643      -0.36761432
N        3.24574051      -0.67447276      -0.91063295
H       -2.58204419      -0.66119717       0.14150394
H       -1.25193557      -1.61228133      -0.40994447
H       -1.23517295      -1.01526405       1.23774325
H        0.10891637       0.77845528      -1.47565018
H       -1.72004277       1.39362364      -0.40210194
H        1.11943921      -0.18438735       1.30868734
H        1.43668115       1.38000222       0.58994339
13
Frame=14 idx=003552 GeodesicLength=0.7036804092162974 rxn_smarts="[C:1]([C@@:2]([O:3][H:11])([C:4]([C:5]#[N:6])([H:12])[H:13])[H:10])([H:7])([H:8])[H:9]>>[C:1]([O:3][H:11])([H:7])([H:8])[H:9].[C:2]([C:4]([C:5]#[N:6])([H:12])[H:13])[H:10]"
C       -1.47177815      -0.74594647       0.21528185
C       -0.04006176       0.28156504      -0.53823373
O       -1.12447161       1.03480695       0.24489574
C        1.19122571       0.32869969       0.34983886
C        2.30320307      -0.27998421      -0.37256104
N        3.22430456      -0.69882933      -0.91341583
H       -2.55847542      -0.68511882       0.12006716
H       -1.20172054      -1.61994985      -0.37917601
H       -1.22763464      -0.98505216       1.24882737
H        0.11268122       0.82271631      -1.47367968
H       -1.74249739       1.38255447      -0.40487406
H        1.09805854      -0.20132125       1.30077877
H        1.43716642       1.36585963       0.60225060
13
Frame=15 idx=003552 GeodesicLength=0.7604799514596183 rxn_smarts="[C:1]([C@@:2]([O:3][H:11])([C:4]([C:5]#[N:6])([H:12])[H:13])[H:10])([H:7])([H:8])[H:9]>>[C:1]([O:3][H:11])([H:7])([H:8])[H:9].[C:2]([C:4]([C:5]#[N:6])([H:12])[H:13])[H:10]"
C       -1.44838571      -0.73925339       0.21545952
C       -0.04729531       0.30394485      -0.54902878
O       -1.12998713       1.05197513       0.24152869
C        1.17912932       0.32171407       0.34805935
C        2.28379597      -0.29617343      -0.37762375
N        3.20219069      -0.72356819      -0.91641283
H       -2.53397355      -0.70922315       0.09860993
H       -1.15144460      -1.62554266      -0.34855477
H       -1.22113519      -0.95569914       1.25865463
H        0.11662691       0.86576940      -1.47047385
H       -1.76395808       1.37090823      -0.40697233
H        1.07709846      -0.21688528       1.29321486
H        1.43733822       1.35203355       0.61353935
13
Frame=16 idx=003552 GeodesicLength=0.8180773201339786 rxn_smarts="[C:1]([C@@:2]([O:3][H:11])([C:4]([C:5]#[N:6])([H:12])[H:13])[H:10])([H:7])([H:8])[H:9]>>[C:1]([O:3][H:11])([H:7])([H:8])[H:9].[C:2]([C:4]([C:5]#[N:6])([H:12])[H:13])[H:10]"
C       -1.42538993      -0.73255823       0.21530215
C       -0.05433345       0.32562447      -0.55907501
O       -1.13559548       1.06863939       0.23825649
C        1.16707463       0.31510378       0.34626300
C        2.26416937      -0.31216179      -0.38273614
N        3.17952499      -0.74850595      -0.91954278
H       -2.50861593      -0.73335827       0.07735111
H       -1.10149163      -1.62909241      -0.31828506
H       -1.21549866      -0.92736019       1.26721326
H        0.12072205       0.90745614      -1.46616400
H       -1.78437665       1.35874845      -0.40845447
H        1.05658946      -0.23111183       1.28604599
H        1.43722122       1.33857643       0.62382545
