14
Frame=0 idx=010563 GeodesicLength=0.0 rxn_smarts="[C:1]([C@@:2]1([C:5](=[O:6])[N:7]([H:13])[H:14])[C:3]([H:11])([H:12])[O:4]1)([H:8])([H:9])[H:10]>>[C:1]([C:2][C:3]([O:4][C:5](=[O:6])[N:7]([H:13])[H:14])([H:11])[H:12])([H:8])([H:9])[H:10]"
C        1.56828174      -1.20140110       0.39886080
C        0.64056004      -0.05723020       0.50192596
C        0.70310608       0.96771353      -0.53815088
O       -0.30462034       0.04388428      -1.02212536
C       -1.31765193      -0.22467183       0.01025638
O       -1.70881022      -1.34615748       0.15595767
N       -2.00111546       0.92210405       0.35508390
H        2.07893859      -1.30732067      -0.56490476
H        2.32408399      -1.02032300       1.17343734
H        1.05944948      -2.12968672       0.66033261
H        0.32054905       1.96410945      -0.32244490
H        1.51759354       0.96982512      -1.26317392
H       -2.90683214       0.72824508       0.74540408
H       -1.97353244       1.69090944      -0.29045898
14
Frame=1 idx=010563 GeodesicLength=0.06567205330378097 rxn_smarts="[C:1]([C@@:2]1([C:5](=[O:6])[N:7]([H:13])[H:14])[C:3]([H:11])([H:12])[O:4]1)([H:8])([H:9])[H:10]>>[C:1]([C:2][C:3]([O:4][C:5](=[O:6])[N:7]([H:13])[H:14])([H:11])[H:12])([H:8])([H:9])[H:10]"
C        1.57541216      -1.19947444       0.39642727
C        0.63902832      -0.06181538       0.49027551
C        0.71020147       0.96350825      -0.54675009
O       -0.31529432       0.06455229      -1.02966911
C       -1.32097535      -0.22022109       0.02585823
O       -1.70297462      -1.34340645       0.18923336
N       -2.01962892       0.92105886       0.35145340
H        2.10896689      -1.29198383      -0.55607575
H        2.30844902      -1.03396815       1.19524885
H        1.06072073      -2.13318467       0.62702919
H        0.34894069       1.96417350      -0.31455916
H        1.52100532       0.95599068      -1.27578369
H       -2.92399440       0.72803348       0.74492582
H       -1.98985698       1.68673695      -0.29761385
14
Frame=2 idx=010563 GeodesicLength=0.1313539667509594 rxn_smarts="[C:1]([C@@:2]1([C:5](=[O:6])[N:7]([H:13])[H:14])[C:3]([H:11])([H:12])[O:4]1)([H:8])([H:9])[H:10]>>[C:1]([C:2][C:3]([O:4][C:5](=[O:6])[N:7]([H:13])[H:14])([H:11])[H:12])([H:8])([H:9])[H:10]"
C        1.58237566      -1.19744008       0.39431652
C        0.63755556      -0.06621391       0.47819689
C        0.71743757       0.95924193      -0.55593390
O       -0.32607029       0.08605965      -1.03703719
C       -1.32406706      -0.21533717       0.04162072
O       -1.69650942      -1.34002742       0.22261150
N       -2.03837598       0.91959775       0.34807286
H        2.13982519      -1.27583739      -0.54551091
H        2.29091143      -1.04865614       1.21745139
H        1.06233246      -2.13616271       0.59225543
H        0.37841145       1.96382632      -0.30753519
H        1.52414062       0.94143964      -1.28926266
H       -2.94120617       0.72709189       0.74493247
H       -2.00676101       1.68241764      -0.30417792
14
Frame=3 idx=010563 GeodesicLength=0.19704060638252568 rxn_smarts="[C:1]([C@@:2]1([C:5](=[O:6])[N:7]([H:13])[H:14])[C:3]([H:11])([H:12])[O:4]1)([H:8])([H:9])[H:10]>>[C:1]([C:2][C:3]([O:4][C:5](=[O:6])[N:7]([H:13])[H:14])([H:11])[H:12])([H:8])([H:9])[H:10]"
C        1.58912735      -1.19529826       0.39254867
C        0.63614344      -0.07039458       0.46569905
C        0.72484014       0.95492483      -0.56571026
O       -0.33692194       0.10850067      -1.04419792
C       -1.32689633      -0.21000546       0.05755329
O       -1.68933159      -1.33602269       0.25607028
N       -2.05737450       0.91767435       0.34494846
H        2.17136239      -1.25890338      -0.53308842
H        2.27139877      -1.06442718       1.23986800
H        1.06435731      -2.13851191       0.55605700
H        0.40904800       1.96306174      -0.30141742
H        1.52699765       0.92611116      -1.30360786
H       -2.95849659       0.72534319       0.74538408
H       -2.02425412       1.67794751      -0.31010693
14
Frame=4 idx=010563 GeodesicLength=0.2627333846323644 rxn_smarts="[C:1]([C@@:2]1([C:5](=[O:6])[N:7]([H:13])[H:14])[C:3]([H:11])([H:12])[O:4]1)([H:8])([H:9])[H:10]>>[C:1]([C:2][C:3]([O:4][C:5](=[O:6])[N:7]([H:13])[H:14])([H:11])[H:12])([H:8])([H:9])[H:10]"
C        1.59562262      -1.19304836       0.39114316
C        0.63479641      -0.07432200       0.45279467
C        0.73243446       0.95056518      -0.57609167
O       -0.34782446       0.13197382      -1.05111017
C       -1.32943168      -0.20420815       0.07367342
O       -1.68135887      -1.33139213       0.28959473
N       -2.07664151       0.91524162       0.34208354
H        2.20343521      -1.24118559      -0.51867779
H        2.24982730      -1.08133211       1.26233362
H        1.06687348      -2.14012557       0.51846100
H        0.44094502       1.96186954      -0.29625846
H        1.52955969       0.90993224      -1.31882729
H       -2.97589269       0.72270759       0.74623958
H       -2.04234497       1.67332390      -0.31535835
14
Frame=5 idx=010563 GeodesicLength=0.3284453559094621 rxn_smarts="[C:1]([C@@:2]1([C:5](=[O:6])[N:7]([H:13])[H:14])[C:3]([H:11])([H:12])[O:4]1)([H:8])([H:9])[H:10]>>[C:1]([C:2][C:3]([O:4][C:5](=[O:6])[N:7]([H:13])[H:14])([H:11])[H:12])([H:8])([H:9])[H:10]"
C        1.60180608      -1.19069130       0.39011440
C        0.63351983      -0.07795130       0.43951235
C        0.74025577       0.94618238      -0.58707416
O       -0.35872893       0.15659630      -1.05772075
C       -1.33163417      -0.19792533       0.08999845
O       -1.67250223      -1.32613707       0.32315653
N       -2.09620074       0.91224065       0.33946893
H        2.23582488      -1.22273773      -0.50219528
H        2.22617000      -1.09940030       1.28461832
H        1.06994239      -2.14087845       0.47958580
H        0.47420041       1.96024293      -0.29209492
H        1.53182128       0.89283850      -1.33490906
H       -2.99343393       0.71908131       0.74743419
H       -2.06104065       1.66853943      -0.31989479
14
Frame=6 idx=010563 GeodesicLength=0.3941306941446883 rxn_smarts="[C:1]([C@@:2]1([C:5](=[O:6])[N:7]([H:13])[H:14])[C:3]([H:11])([H:12])[O:4]1)([H:8])([H:9])[H:10]>>[C:1]([C:2][C:3]([O:4][C:5](=[O:6])[N:7]([H:13])[H:14])([H:11])[H:12])([H:8])([H:9])[H:10]"
C        1.60761906      -1.18824158       0.38949338
C        0.63231649      -0.08124925       0.42590202
C        0.74834361       0.94181689      -0.59860498
O       -0.36958397       0.18253002      -1.06397821
C       -1.33347856      -0.19115166       0.10648632
O       -1.66271977      -1.32029075       0.35655727
N       -2.11606825       0.90858599       0.33706658
H        2.26808210      -1.20380284      -0.48369545
H        2.20064819      -1.11848719       1.30636247
H        1.07360346      -2.14064797       0.43985068
H        0.50891502       1.95818524      -0.28892260
H        1.53379000       0.87481610      -1.35175206
H       -3.01113810       0.71432499       0.74888648
H       -2.08032926       1.66361202      -0.32365191
14
Frame=7 idx=010563 GeodesicLength=0.45972150318437843 rxn_smarts="[C:1]([C@@:2]1([C:5](=[O:6])[N:7]([H:13])[H:14])[C:3]([H:11])([H:12])[O:4]1)([H:8])([H:9])[H:10]>>[C:1]([C:2][C:3]([O:4][C:5](=[O:6])[N:7]([H:13])[H:14])([H:11])[H:12])([H:8])([H:9])[H:10]"
C        1.61298091      -1.18567813       0.38927158
C        0.63113701      -0.08419233       0.41199700
C        0.75673069       0.93745349      -0.61060111
O       -0.38026008       0.20991606      -1.06978583
C       -1.33492606      -0.18386456       0.12309288
O       -1.65195292      -1.31383253       0.38956493
N       -2.13625939       0.90418842       0.33483076
H        2.29975724      -1.18461887      -0.46333568
H        2.17344331      -1.13832711       1.32717522
H        1.07790164      -2.13929048       0.39972211
H        0.54515443       1.95560454      -0.28667164
H        1.53547772       0.85578523      -1.36922556
H       -3.02902588       0.70832843       0.75050097
H       -2.10015864       1.65852783      -0.32653562
14
Frame=8 idx=010563 GeodesicLength=0.5252960380119734 rxn_smarts="[C:1]([C@@:2]1([C:5](=[O:6])[N:7]([H:13])[H:14])[C:3]([H:11])([H:12])[O:4]1)([H:8])([H:9])[H:10]>>[C:1]([C:2][C:3]([O:4][C:5](=[O:6])[N:7]([H:13])[H:14])([H:11])[H:12])([H:8])([H:9])[H:10]"
C        1.61786861      -1.18303779       0.38947714
C        0.63001069      -0.08674704       0.39786941
C        0.76545803       0.93316371      -0.62304185
O       -0.39072790       0.23892333      -1.07508081
C       -1.33597294      -0.17605735       0.13984096
O       -1.64021596      -1.30683646       0.42211416
N       -2.15681141       0.89898745       0.33269475
H        2.33059303      -1.16532035      -0.44120409
H        2.14476803      -1.15887155       1.34691702
H        1.08283183      -2.13683110       0.35945748
H        0.58306092       1.95255317      -0.28535523
H        1.53683144       0.83576788      -1.38733150
H       -3.04713081       0.70098454       0.75222021
H       -2.12056355       1.65332154      -0.32857767
14
Frame=9 idx=010563 GeodesicLength=0.5908182156515701 rxn_smarts="[C:1]([C@@:2]1([C:5](=[O:6])[N:7]([H:13])[H:14])[C:3]([H:11])([H:12])[O:4]1)([H:8])([H:9])[H:10]>>[C:1]([C:2][C:3]([O:4][C:5](=[O:6])[N:7]([H:13])[H:14])([H:11])[H:12])([H:8])([H:9])[H:10]"
C        1.62224081      -1.18030874       0.39008471
C        0.62893015      -0.08889416       0.38357459
C        0.77456692       0.92895428      -0.63582179
O       -0.40088947       0.26974374      -1.07971118
C       -1.33660095      -0.16768229       0.15673010
O       -1.62751913      -1.29927633       0.45401446
N       -2.17775857       0.89289113       0.33055512
H        2.36018420      -1.14615187      -0.41756619
H        2.11497345      -1.17988701       1.36525681
H        1.08836073      -2.13318687       0.31957047
H        0.62275622       1.94893040      -0.28486363
H        1.53779401       0.81472730      -1.40595149
H       -3.06548994       0.69217473       0.75390267
H       -2.14154842       1.64796568      -0.32977465
14
Frame=10 idx=010563 GeodesicLength=0.6563610667830742 rxn_smarts="[C:1]([C@@:2]1([C:5](=[O:6])[N:7]([H:13])[H:14])[C:3]([H:11])([H:12])[O:4]1)([H:8])([H:9])[H:10]>>[C:1]([C:2][C:3]([O:4][C:5](=[O:6])[N:7]([H:13])[H:14])([H:11])[H:12])([H:8])([H:9])[H:10]"
C        1.62606604      -1.17747572       0.39109789
C        0.62790439      -0.09058476       0.36915387
C        0.78405827       0.92480980      -0.64897027
O       -0.41069826       0.30251235      -1.08353507
C       -1.33676906      -0.15868297       0.17387489
O       -1.61381873      -1.29112830       0.48533798
N       -2.19910285       0.88584095       0.32836811
H        2.38857770      -1.12699138      -0.39233840
H        2.08390543      -1.20142822       1.38226077
H        1.09451641      -2.12835889       0.27986324
H        0.66437657       1.94467352      -0.28530598
H        1.53819680       0.79253715      -1.42517191
H       -3.08410228       0.68182786       0.75547597
H       -2.16311042       1.64244861      -0.33011109
14
Frame=11 idx=010563 GeodesicLength=0.7219595858447156 rxn_smarts="[C:1]([C@@:2]1([C:5](=[O:6])[N:7]([H:13])[H:14])[C:3]([H:11])([H:12])[O:4]1)([H:8])([H:9])[H:10]>>[C:1]([C:2][C:3]([O:4][C:5](=[O:6])[N:7]([H:13])[H:14])([H:11])[H:12])([H:8])([H:9])[H:10]"
C        1.62932911      -1.17456410       0.39251970
C        0.62691781      -0.09181508       0.35468802
C        0.79396319       0.92078068      -0.66239267
O       -0.42004095       0.33745159      -1.08640936
C       -1.33649262      -0.14903358       0.19127540
O       -1.59919631      -1.28245429       0.51587205
N       -2.22089133       0.87774265       0.32597951
H        2.41541838      -1.10811441      -0.36587393
H        2.05198997      -1.22321370       1.39774442
H        1.10125415      -2.12242117       0.24085424
H        0.70804550       1.93974264      -0.28660224
H        1.53794953       0.76924043      -1.44491010
H       -3.10298187       0.66985797       0.75687962
H       -2.18526456       1.63680040      -0.32962467
14
Frame=12 idx=010563 GeodesicLength=0.7874146901912267 rxn_smarts="[C:1]([C@@:2]1([C:5](=[O:6])[N:7]([H:13])[H:14])[C:3]([H:11])([H:12])[O:4]1)([H:8])([H:9])[H:10]>>[C:1]([C:2][C:3]([O:4][C:5](=[O:6])[N:7]([H:13])[H:14])([H:11])[H:12])([H:8])([H:9])[H:10]"
C        1.63200672      -1.17154419       0.39428074
C        0.62593378      -0.09263345       0.34025455
C        0.80430542       0.91686797      -0.67582134
O       -0.42875721       0.37480208      -1.08807837
C       -1.33579564      -0.13867677       0.20886377
O       -1.58380906      -1.27320967       0.54522169
N       -2.24313448       0.86844415       0.32310215
H        2.44009031      -1.09000467      -0.33891171
H        2.02009699      -1.24464036       1.41130594
H        1.10835359      -2.11538036       0.20350774
H        0.75384787       1.93389637      -0.28840346
H        1.53692525       0.74494344      -1.46486163
H       -3.12204854       0.65624218       0.75798321
H       -2.20801497       1.63089328      -0.32844327
14
Frame=13 idx=010563 GeodesicLength=0.8529218521597499 rxn_smarts="[C:1]([C@@:2]1([C:5](=[O:6])[N:7]([H:13])[H:14])[C:3]([H:11])([H:12])[O:4]1)([H:8])([H:9])[H:10]>>[C:1]([C:2][C:3]([O:4][C:5](=[O:6])[N:7]([H:13])[H:14])([H:11])[H:12])([H:8])([H:9])[H:10]"
C        1.63411031      -1.16844389       0.39640731
C        0.62495761      -0.09299481       0.32591298
C        0.81507002       0.91310808      -0.68932799
O       -0.43676308       0.41475998      -1.08837188
C       -1.33467026      -0.12755715       0.22680248
O       -1.56767438      -1.26346954       0.57347165
N       -2.26585966       0.85787352       0.31960002
H        2.46287226      -1.07246205      -0.31135368
H        1.98799112      -1.26588092       1.42326325
H        1.11585309      -2.10740368       0.16747508
H        0.80191358       1.92712996      -0.29090246
H        1.53487799       0.71959926      -1.48521150
H       -3.14123987       0.64100808       0.75892262
H       -2.23143873       1.62473315      -0.32668790
14
Frame=14 idx=010563 GeodesicLength=0.918478343048988 rxn_smarts="[C:1]([C@@:2]1([C:5](=[O:6])[N:7]([H:13])[H:14])[C:3]([H:11])([H:12])[O:4]1)([H:8])([H:9])[H:10]>>[C:1]([C:2][C:3]([O:4][C:5](=[O:6])[N:7]([H:13])[H:14])([H:11])[H:12])([H:8])([H:9])[H:10]"
C        1.63562562      -1.16522070       0.39886140
C        0.62400578      -0.09286403       0.31172551
C        0.82625722       0.90947301      -0.70284240
O       -0.44396138       0.45757611      -1.08695754
C       -1.33311403      -0.11556416       0.24522522
O       -1.55082939      -1.25314517       0.60064262
N       -2.28908397       0.84584605       0.31518784
H        2.48377116      -1.05541749      -0.28329889
H        1.95574962      -1.28690208       1.43362041
H        1.12366869      -2.09846015       0.13269584
H        0.85245477       1.91920699      -0.29410727
H        1.53149840       0.69313489      -1.50593575
H       -3.16045184       0.62417209       0.75969105
H       -2.25559065       1.61816464      -0.32450805
14
Frame=15 idx=010563 GeodesicLength=0.9841995992985746 rxn_smarts="[C:1]([C@@:2]1([C:5](=[O:6])[N:7]([H:13])[H:14])[C:3]([H:11])([H:12])[O:4]1)([H:8])([H:9])[H:10]>>[C:1]([C:2][C:3]([O:4][C:5](=[O:6])[N:7]([H:13])[H:14])([H:11])[H:12])([H:8])([H:9])[H:10]"
C        1.63653743      -1.16183330       0.40165806
C        0.62307920      -0.09215390       0.29775174
C        0.83782477       0.90592453      -0.71644412
O       -0.45025414       0.50351838      -1.08349496
C       -1.33110359      -0.10258602       0.26433634
O       -1.53321989      -1.24221525       0.62680696
N       -2.31280176       0.83216175       0.30962550
H        2.50305149      -1.03850357      -0.25444894
H        1.92297995      -1.30798635       1.44255325
H        1.13191536      -2.08851221       0.09873157
H        0.90568259       1.90993132      -0.29827642
H        1.52633766       0.66534759      -1.52722098
H       -3.17957599       0.60576707       0.76032460
H       -2.28045306       1.61113997      -0.32190259
14
Frame=16 idx=010563 GeodesicLength=1.0499272402088942 rxn_smarts="[C:1]([C@@:2]1([C:5](=[O:6])[N:7]([H:13])[H:14])[C:3]([H:11])([H:12])[O:4]1)([H:8])([H:9])[H:10]>>[C:1]([C:2][C:3]([O:4][C:5](=[O:6])[N:7]([H:13])[H:14])([H:11])[H:12])([H:8])([H:9])[H:10]"
C        1.63682601      -1.15829516       0.40472435
C        0.62208568      -0.09094021       0.28414081
C        0.84974821       0.90256713      -0.72975510
O       -0.45530566       0.55290440      -1.07762899
C       -1.32873824      -0.08863495       0.28400377
O       -1.51509704      -1.23077441       0.65150546
N       -2.33703318       0.81645634       0.30216869
H        2.52016532      -1.02230427      -0.22578656
H        1.89070731      -1.32844283       1.44985576
H        1.14022873      -2.07774989       0.06652393
H        0.96154800       1.89905553      -0.30292633
H        1.51918200       0.63663651      -1.54866288
H       -3.19812786       0.58627294       0.76138902
H       -2.30618929       1.60324888      -0.31955193
