17
Frame=0 idx=011639 GeodesicLength=0.0 rxn_smarts="[O:1]([C:2]([C@@:3]1([H:11])[C:4]([H:12])([H:13])[C:5]([H:14])([H:15])[O:6][C:7]1([H:16])[H:17])([H:9])[H:10])[H:8]>>[O:1]([C:2]([C:3]([C:4]([C:5]([O+:6]=[C-:7][H:16])([H:14])[H:15])([H:12])[H:13])([H:11])[H:17])([H:9])[H:10])[H:8]"
O        2.50612282       0.06249033       0.64338255
C        1.47821761      -0.47204622      -0.17590168
C        0.20305737      -0.46839795       0.62835403
C       -0.54432150       0.84367311       0.72681166
C       -1.54936421       0.94931108      -0.42165209
O       -2.17049946      -0.32666008      -0.46964715
C       -1.28891776      -1.31359712      -0.70151170
H        3.32784791       0.06330727       0.14991251
H        1.35674266       0.13039334      -1.08497070
H        1.71769097      -1.49819233      -0.48224816
H        0.40495038      -0.89552236       1.61456533
H       -1.08665123       0.89734191       1.67125919
H        0.16195895       1.67715976       0.69974338
H       -1.04876034       1.15104017      -1.37701795
H       -2.31721995       1.70330262      -0.24762839
H       -0.58551518      -1.01924250      -1.50340370
H       -0.56533902      -1.48436099       0.32995288
17
Frame=1 idx=011639 GeodesicLength=0.10272074990622028 rxn_smarts="[O:1]([C:2]([C@@:3]1([H:11])[C:4]([H:12])([H:13])[C:5]([H:14])([H:15])[O:6][C:7]1([H:16])[H:17])([H:9])[H:10])[H:8]>>[O:1]([C:2]([C:3]([C:4]([C:5]([O+:6]=[C-:7][H:16])([H:14])[H:15])([H:12])[H:13])([H:11])[H:17])([H:9])[H:10])[H:8]"
O        2.50738936       0.05477658       0.67643714
C        1.49620540      -0.48277151      -0.16144006
C        0.20164341      -0.46929635       0.61209838
C       -0.52771762       0.85313693       0.69937486
C       -1.58069523       0.94580947      -0.40335619
O       -2.17679307      -0.34168357      -0.46351288
C       -1.28482891      -1.30883001      -0.73295962
H        3.33963819       0.05119521       0.20102283
H        1.39789714       0.11138074      -1.07888222
H        1.74042069      -1.51193242      -0.45381726
H        0.38177480      -0.88855286       1.60641821
H       -1.02138275       0.94684333       1.66716969
H        0.17762734       1.68405692       0.61684573
H       -1.12702730       1.18345782      -1.37357367
H       -2.36327332       1.67127749      -0.17797411
H       -0.60343146      -0.99579315      -1.54669498
H       -0.55744668      -1.50307462       0.31284415
17
Frame=2 idx=011639 GeodesicLength=0.2046092700553121 rxn_smarts="[O:1]([C:2]([C@@:3]1([H:11])[C:4]([H:12])([H:13])[C:5]([H:14])([H:15])[O:6][C:7]1([H:16])[H:17])([H:9])[H:10])[H:8]>>[O:1]([C:2]([C:3]([C:4]([C:5]([O+:6]=[C-:7][H:16])([H:14])[H:15])([H:12])[H:13])([H:11])[H:17])([H:9])[H:10])[H:8]"
O        2.50730848       0.04857787       0.71055038
C        1.51447336      -0.49428192      -0.14563953
C        0.20028677      -0.47008289       0.59496343
C       -0.51064252       0.86280911       0.66953173
C       -1.61208022       0.94175679      -0.38283080
O       -2.18247195      -0.35675456      -0.45850912
C       -1.28052535      -1.30236415      -0.76618885
H        3.35022515       0.04020198       0.25441544
H        1.44060817       0.08944827      -1.07217290
H        1.76376195      -1.52681576      -0.42161484
H        0.35717152      -0.88098049       1.59727022
H       -0.95175628       0.99874071       1.65758573
H        0.19206185       1.68838876       0.52837220
H       -1.21024239       1.21691837      -1.36576863
H       -2.40632935       1.63555938      -0.10241567
H       -0.62260564      -0.96956382      -1.59141943
H       -0.54924354      -1.52155764       0.29387064
17
Frame=3 idx=011639 GeodesicLength=0.3053901960190058 rxn_smarts="[O:1]([C:2]([C@@:3]1([H:11])[C:4]([H:12])([H:13])[C:5]([H:14])([H:15])[O:6][C:7]1([H:16])[H:17])([H:9])[H:10])[H:8]>>[O:1]([C:2]([C:3]([C:4]([C:5]([O+:6]=[C-:7][H:16])([H:14])[H:15])([H:12])[H:13])([H:11])[H:17])([H:9])[H:10])[H:8]"
O        2.50556667       0.04430241       0.74545465
C        1.53279541      -0.50648666      -0.12842747
C        0.19897324      -0.47082441       0.57697434
C       -0.49316484       0.87255666       0.63725756
C       -1.64296722       0.93718424      -0.35996088
O       -2.18747167      -0.37150632      -0.45498885
C       -1.27615807      -1.29401566      -0.80115133
H        3.35916146       0.03085982       0.30981126
H        1.48452048       0.06449808      -1.06467122
H        1.78749616      -1.54267587      -0.38529543
H        0.33112676      -0.87273891       1.58700635
H       -0.87798135       1.05268229       1.64176449
H        0.20484359       1.68958353       0.43440147
H       -1.29761957       1.25118044      -1.35261093
H       -2.44506331       1.59581282      -0.02108251
H       -0.64321339      -0.94064062      -1.63745800
H       -0.54084434      -1.53977182       0.27297649
17
Frame=4 idx=011639 GeodesicLength=0.4049094425829346 rxn_smarts="[O:1]([C:2]([C@@:3]1([H:11])[C:4]([H:12])([H:13])[C:5]([H:14])([H:15])[O:6][C:7]1([H:16])[H:17])([H:9])[H:10])[H:8]>>[O:1]([C:2]([C:3]([C:4]([C:5]([O+:6]=[C-:7][H:16])([H:14])[H:15])([H:12])[H:13])([H:11])[H:17])([H:9])[H:10])[H:8]"
O        2.50193645       0.04235975       0.78081859
C        1.55090502      -0.51922164      -0.10977131
C        0.19767810      -0.47160414       0.55821723
C       -0.47542910       0.88221138       0.60260844
C       -1.67273447       0.93215026      -0.33473224
O       -2.19176862      -0.38553270      -0.45330381
C       -1.27191998      -1.28369141      -0.83771870
H        3.36606731       0.02372209       0.36680906
H        1.52920101       0.03661535      -1.05617724
H        1.81131527      -1.55922260      -0.34466762
H        0.30370084      -0.86377716       1.57558702
H       -0.80061345       1.10816496       1.61891436
H        0.21542199       1.68699616       0.33531798
H       -1.38804107       1.28590112      -1.33308378
H       -2.47784839       1.55191523       0.06567544
H       -0.66545766      -0.90928390      -1.68468858
H       -0.53241326      -1.55770277       0.25019516
17
Frame=5 idx=011639 GeodesicLength=0.5031727676626111 rxn_smarts="[O:1]([C:2]([C@@:3]1([H:11])[C:4]([H:12])([H:13])[C:5]([H:14])([H:15])[O:6][C:7]1([H:16])[H:17])([H:9])[H:10])[H:8]>>[O:1]([C:2]([C:3]([C:4]([C:5]([O+:6]=[C-:7][H:16])([H:14])[H:15])([H:12])[H:13])([H:11])[H:17])([H:9])[H:10])[H:8]"
O        2.49653077       0.04293953       0.81636576
C        1.56870418      -0.53231796      -0.08966572
C        0.19648289      -0.47247691       0.53884561
C       -0.45749001       0.89156880       0.56577413
C       -1.70085347       0.92645753      -0.30736374
O       -2.19530193      -0.39840547      -0.45352159
C       -1.26800129      -1.27126327      -0.87562996
H        3.37093630       0.01929593       0.42489498
H        1.57441132       0.00601123      -1.04646879
H        1.83493769      -1.57620510      -0.29974750
H        0.27506873      -0.85401273       1.56309196
H       -0.72094114       1.16420581       1.58863314
H        0.22377802       1.67996883       0.23208608
H       -1.48092833       1.32066379      -1.30679670
H       -2.50351512       1.50445040       0.15682911
H       -0.68979923      -0.87562904      -1.73301083
H       -0.52401938      -1.57525135       0.22568405
17
Frame=6 idx=011639 GeodesicLength=0.6002157236930014 rxn_smarts="[O:1]([C:2]([C@@:3]1([H:11])[C:4]([H:12])([H:13])[C:5]([H:14])([H:15])[O:6][C:7]1([H:16])[H:17])([H:9])[H:10])[H:8]>>[O:1]([C:2]([C:3]([C:4]([C:5]([O+:6]=[C-:7][H:16])([H:14])[H:15])([H:12])[H:13])([H:11])[H:17])([H:9])[H:10])[H:8]"
O        2.48918097       0.04640089       0.85152077
C        1.58580912      -0.54534884      -0.06829311
C        0.19531710      -0.47355833       0.51904359
C       -0.43965242       0.90042047       0.52711762
C       -1.72650290       0.92046678      -0.27815568
O       -2.19829719      -0.40959200      -0.45591518
C       -1.26479657      -1.25691363      -0.91443979
H        3.37347578       0.01774815       0.48350432
H        1.61940319      -0.02661287      -1.03541091
H        1.85794268      -1.59289861      -0.25095918
H        0.24555470      -0.84355583       1.54959114
H       -0.63992546       1.22000917       1.55074872
H        0.22904446       1.66816042       0.12592300
H       -1.57367825       1.35519940      -1.27312992
H       -2.52052174       1.45320476       0.25109703
H       -0.71641070      -0.84060990      -1.78201321
H       -0.51594276      -1.59252004       0.19977078
17
Frame=7 idx=011639 GeodesicLength=0.6961678518065788 rxn_smarts="[O:1]([C:2]([C@@:3]1([H:11])[C:4]([H:12])([H:13])[C:5]([H:14])([H:15])[O:6][C:7]1([H:16])[H:17])([H:9])[H:10])[H:8]>>[O:1]([C:2]([C:3]([C:4]([C:5]([O+:6]=[C-:7][H:16])([H:14])[H:15])([H:12])[H:13])([H:11])[H:17])([H:9])[H:10])[H:8]"
O        2.48011929       0.05267504       0.88591924
C        1.60213130      -0.55800679      -0.04584519
C        0.19428648      -0.47491243       0.49900047
C       -0.42202466       0.90853029       0.48710949
C       -1.74916771       0.91409487      -0.24762838
O       -2.20079298      -0.41869177      -0.46025711
C       -1.26259020      -1.24074311      -0.95362975
H        3.37377589       0.01935681       0.54194609
H        1.66386795      -0.06055036      -1.02285119
H        1.88004294      -1.60884717      -0.19888456
H        0.21561041      -0.83249755       1.53518459
H       -0.55930945       1.27428636       1.50575879
H        0.23134135       1.65134060       0.01863378
H       -1.66489365       1.38892203      -1.23222713
H       -2.52825476       1.39927087       0.34633979
H       -0.74589476      -0.80474633      -1.83141170
H       -0.50824743      -1.60948138       0.17284277
17
Frame=8 idx=011639 GeodesicLength=0.7912006485932279 rxn_smarts="[O:1]([C:2]([C@@:3]1([H:11])[C:4]([H:12])([H:13])[C:5]([H:14])([H:15])[O:6][C:7]1([H:16])[H:17])([H:9])[H:10])[H:8]>>[O:1]([C:2]([C:3]([C:4]([C:5]([O+:6]=[C-:7][H:16])([H:14])[H:15])([H:12])[H:13])([H:11])[H:17])([H:9])[H:10])[H:8]"
O        2.46934156       0.06179060       0.91906258
C        1.61734151      -0.56983069      -0.02266077
C        0.19332436      -0.47661954       0.47891583
C       -0.40491522       0.91573908       0.44632757
C       -1.76828233       0.90778893      -0.21636614
O       -2.20305067      -0.42529083      -0.46647278
C       -1.26169788      -1.22318225      -0.99261370
H        3.37179187       0.02391903       0.59970972
H        1.70708892      -0.09475104      -1.00875286
H        1.90082835      -1.62330341      -0.14451010
H        0.18567877      -0.82102697       1.52000565
H       -0.48031009       1.32613759       1.45432682
H        0.23003382       1.62974763      -0.08796819
H       -1.75176530       1.42160592      -1.18452457
H       -2.52597429       1.34285431       0.44088628
H       -0.77833147      -0.76931570      -1.88074828
H       -0.50110193      -1.62626269       0.14538295
17
Frame=9 idx=011639 GeodesicLength=0.8856634213187045 rxn_smarts="[O:1]([C:2]([C@@:3]1([H:11])[C:4]([H:12])([H:13])[C:5]([H:14])([H:15])[O:6][C:7]1([H:16])[H:17])([H:9])[H:10])[H:8]>>[O:1]([C:2]([C:3]([C:4]([C:5]([O+:6]=[C-:7][H:16])([H:14])[H:15])([H:12])[H:13])([H:11])[H:17])([H:9])[H:10])[H:8]"
O        2.45722947       0.07318929       0.95093656
C        1.63161256      -0.58069922       0.00108371
C        0.19264441      -0.47875039       0.45888191
C       -0.38826111       0.92184843       0.40522765
C       -1.78376934       0.90138280      -0.18502605
O       -2.20508162      -0.42936772      -0.47388258
C       -1.26230736      -1.20438477      -1.03092460
H        3.36782646       0.03166947       0.65624584
H        1.74919259      -0.12855849      -0.99305965
H        1.92029393      -1.63612064      -0.08849170
H        0.15624316      -0.80942432       1.50408278
H       -0.40439864       1.37448721       1.39764376
H        0.22597289       1.60366600      -0.19215866
H       -1.83397027       1.45295234      -1.13085645
H       -2.51434700       1.28550990       0.53230299
H       -0.81448495      -0.73447964      -1.92973538
H       -0.49439518      -1.64292026       0.11772986
17
Frame=10 idx=011639 GeodesicLength=0.9796339133864735 rxn_smarts="[O:1]([C:2]([C@@:3]1([H:11])[C:4]([H:12])([H:13])[C:5]([H:14])([H:15])[O:6][C:7]1([H:16])[H:17])([H:9])[H:10])[H:8]>>[O:1]([C:2]([C:3]([C:4]([C:5]([O+:6]=[C-:7][H:16])([H:14])[H:15])([H:12])[H:13])([H:11])[H:17])([H:9])[H:10])[H:8]"
O        2.44371152       0.08679676       0.98122756
C        1.64465013      -0.59022739       0.02501064
C        0.19214691      -0.48133586       0.43897263
C       -0.37228754       0.92685776       0.36429338
C       -1.79543305       0.89531228      -0.15398417
O       -2.20708716      -0.43080517      -0.48227040
C       -1.26453028      -1.18485399      -1.06816026
H        3.36180143       0.04194591       0.71150454
H        1.78958664      -0.16098127      -0.97584560
H        1.93811523      -1.64672004      -0.03193898
H        0.12762671      -0.79793128       1.48745905
H       -0.33201857       1.41899595       1.33685089
H        0.21869764       1.57389849      -0.29261050
H       -1.90900420       1.48266847      -1.07221620
H       -2.49366993       1.22743446       0.61949088
H       -0.85419001      -0.70144970      -1.97798028
H       -0.48811548      -1.65960537       0.09019682
17
Frame=11 idx=011639 GeodesicLength=1.0731717326073549 rxn_smarts="[O:1]([C:2]([C@@:3]1([H:11])[C:4]([H:12])([H:13])[C:5]([H:14])([H:15])[O:6][C:7]1([H:16])[H:17])([H:9])[H:10])[H:8]>>[O:1]([C:2]([C:3]([C:4]([C:5]([O+:6]=[C-:7][H:16])([H:14])[H:15])([H:12])[H:13])([H:11])[H:17])([H:9])[H:10])[H:8]"
O        2.42902798       0.10217895       1.00989789
C        1.65650129      -0.59823388       0.04886291
C        0.19187691      -0.48446741       0.41927201
C       -0.35697715       0.93067256       0.32402944
C       -1.80326415       0.88958276      -0.12363136
O       -2.20913062      -0.42961756      -0.49112722
C       -1.26857016      -1.16486731      -1.10399998
H        3.35383955       0.05469960       0.76500705
H        1.82817488      -0.19124038      -0.95715434
H        1.95427889      -1.65479899       0.02428030
H        0.10016061      -0.78689346       1.47019222
H       -0.26373593       1.45899467       1.27352450
H        0.20872064       1.54117560      -0.38778409
H       -1.97553263       1.51000871      -1.00984251
H       -2.46525208       1.17004325       0.70068008
H       -0.89787822      -0.67079435      -2.02524449
H       -0.48223980      -1.67644274       0.06303760
17
Frame=12 idx=011639 GeodesicLength=1.166547217082628 rxn_smarts="[O:1]([C:2]([C@@:3]1([H:11])[C:4]([H:12])([H:13])[C:5]([H:14])([H:15])[O:6][C:7]1([H:16])[H:17])([H:9])[H:10])[H:8]>>[O:1]([C:2]([C:3]([C:4]([C:5]([O+:6]=[C-:7][H:16])([H:14])[H:15])([H:12])[H:13])([H:11])[H:17])([H:9])[H:10])[H:8]"
O        2.41329082       0.11893910       1.03712939
C        1.66728049      -0.60473324       0.07251254
C        0.19190183      -0.48812922       0.39971277
C       -0.34228487       0.93335229       0.28456854
C       -1.80756180       0.88428511      -0.09420195
O       -2.21125788      -0.42613601      -0.49991266
C       -1.27433459      -1.14467107      -1.13839509
H        3.34412564       0.06945397       0.81706070
H        1.86512465      -0.21901850      -0.93711574
H        1.96886526      -1.66043160       0.07966088
H        0.07398575      -0.77650057       1.45225788
H       -0.19957064       1.49454962       1.20849818
H        0.19648276       1.50627410      -0.47735515
H       -2.03378350       1.53527199      -0.94479948
H       -2.43017700       1.11373718       0.77544751
H       -0.94555735      -0.64269560      -2.07132740
H       -0.47652957      -1.69354758       0.03625908
17
Frame=13 idx=011639 GeodesicLength=1.260092694579335 rxn_smarts="[O:1]([C:2]([C@@:3]1([H:11])[C:4]([H:12])([H:13])[C:5]([H:14])([H:15])[O:6][C:7]1([H:16])[H:17])([H:9])[H:10])[H:8]>>[O:1]([C:2]([C:3]([C:4]([C:5]([O+:6]=[C-:7][H:16])([H:14])[H:15])([H:12])[H:13])([H:11])[H:17])([H:9])[H:10])[H:8]"
O        2.39670157       0.13669522       1.06324771
C        1.67742212      -0.60995446       0.09599857
C        0.19245358      -0.49234841       0.38011692
C       -0.32798620       0.93490026       0.24579426
C       -1.80882052       0.87914645      -0.06587532
O       -2.21339904      -0.42092972      -0.50809870
C       -1.28171634      -1.12417364      -1.17148398
H        3.33289652       0.08611490       0.86804860
H        1.90113598      -0.24452675      -0.91584681
H        1.98232215      -1.66403908       0.13440224
H        0.04923446      -0.76700917       1.43350506
H       -0.13947100       1.52584971       1.14233435
H        0.18307960       1.46948947      -0.56168381
H       -2.08536607       1.55888986      -0.87752719
H       -2.38998082       1.05931913       0.84343878
H       -0.99775291      -0.61639034      -2.11604425
H       -0.47075309      -1.71103343       0.00967358
17
Frame=14 idx=011639 GeodesicLength=1.3536588994507348 rxn_smarts="[O:1]([C:2]([C@@:3]1([H:11])[C:4]([H:12])([H:13])[C:5]([H:14])([H:15])[O:6][C:7]1([H:16])[H:17])([H:9])[H:10])[H:8]>>[O:1]([C:2]([C:3]([C:4]([C:5]([O+:6]=[C-:7][H:16])([H:14])[H:15])([H:12])[H:13])([H:11])[H:17])([H:9])[H:10])[H:8]"
O        2.37916118       0.15527092       1.08826708
C        1.68672117      -0.61381256       0.11917149
C        0.19339903      -0.49712742       0.36051649
C       -0.31417314       0.93540537       0.20794773
C       -1.80710247       0.87446325      -0.03863901
O       -2.21558274      -0.41404776      -0.51556108
C       -1.29067248      -1.10360764      -1.20324815
H        3.32008617       0.10423937       0.91802809
H        1.93585444      -0.26733939      -0.89344055
H        1.99448131      -1.66548877       0.18783111
H        0.02587322      -0.75854702       1.41401372
H       -0.08297325       1.55308360       1.07574998
H        0.16817429       1.43175270      -0.64043603
H       -2.12903038       1.58055495      -0.80918587
H       -2.34540805       1.00669311       0.90485873
H       -1.05397609      -0.59253428      -2.15915532
H       -0.46483221      -1.72895844      -0.01671842
17
Frame=15 idx=011639 GeodesicLength=1.4473612677277485 rxn_smarts="[O:1]([C:2]([C@@:3]1([H:11])[C:4]([H:12])([H:13])[C:5]([H:14])([H:15])[O:6][C:7]1([H:16])[H:17])([H:9])[H:10])[H:8]>>[O:1]([C:2]([C:3]([C:4]([C:5]([O+:6]=[C-:7][H:16])([H:14])[H:15])([H:12])[H:13])([H:11])[H:17])([H:9])[H:10])[H:8]"
O        2.36074701       0.17442995       1.11239619
C        1.69534404      -0.61642637       0.14204085
C        0.19480153      -0.50245251       0.34083519
C       -0.30074569       0.93493349       0.17099022
C       -1.80269629       0.87015912      -0.01250024
O       -2.21775984      -0.40579003      -0.52205560
C       -1.30114103      -1.08288804      -1.23384176
H        3.30578167       0.12360686       0.96726551
H        1.96958676      -0.28754828      -0.86999248
H        2.00555472      -1.66500781       0.23995564
H        0.00389156      -0.75123565       1.39376117
H       -0.02968401       1.57653939       1.00912844
H        0.15225554       1.39347177      -0.71398387
H       -2.16550378       1.60027156      -0.74041808
H       -2.29750390       0.95607716       0.95997252
H       -1.11426557      -0.57078888      -2.20047073
H       -0.45866272      -1.74735172      -0.04308298
17
Frame=16 idx=011639 GeodesicLength=1.541295815657594 rxn_smarts="[O:1]([C:2]([C@@:3]1([H:11])[C:4]([H:12])([H:13])[C:5]([H:14])([H:15])[O:6][C:7]1([H:16])[H:17])([H:9])[H:10])[H:8]>>[O:1]([C:2]([C:3]([C:4]([C:5]([O+:6]=[C-:7][H:16])([H:14])[H:15])([H:12])[H:13])([H:11])[H:17])([H:9])[H:10])[H:8]"
O        2.34150559       0.19402438       1.13579571
C        1.70345327      -0.61794619       0.16462679
C        0.19672448      -0.50832954       0.32099635
C       -0.28762728       0.93352922       0.13485439
C       -1.79586338       0.86615050       0.01256589
O       -2.21989610      -0.39647292      -0.52746973
C       -1.31303290      -1.06192662      -1.26345758
H        3.29004589       0.14413302       1.01595612
H        2.00258153      -0.30535206      -0.84560089
H        2.01575322      -1.66285125       0.29089821
H       -0.01672337      -0.74519203       1.37273129
H        0.02067745       1.59650381       0.94267374
H        0.13567100       1.35489003      -0.78277519
H       -2.19543956       1.61825818      -0.67153277
H       -2.24713358       0.90767071       1.00908770
H       -1.17850426      -0.55081712      -2.23975511
H       -0.45219200      -1.76627212      -0.06959495
