16
Frame=0 idx=005155 GeodesicLength=0.0 rxn_smarts="[C:1]([C:2]([C:3](=[O:4])[C:5]([C:6]([H:14])([H:15])[H:16])([H:12])[H:13])([H:10])[H:11])([H:7])([H:8])[H:9]>>[C:1]([O:4][C:3](=[C:2]([H:10])[H:11])[C:5]([C:6]([H:14])([H:15])[H:16])([H:12])[H:13])([H:7])([H:8])[H:9]"
C        2.39756015      -0.06394499       0.71319114
C        1.03873863       0.11297799      -1.21542092
C        0.06592265       0.25547735      -0.23028673
O        0.44658110       0.48491421       0.94832700
C       -1.41583264       0.18604370      -0.50983217
C       -2.24486512      -0.38625780       0.63123390
H        3.17043713      -0.01886571      -0.03986666
H        2.51895269       0.65928557       1.50661636
H        2.13152196      -1.06199556       1.02538985
H        0.81639570      -0.33633086      -2.17805999
H        1.73788437       0.94076804      -1.25093210
H       -1.56218406      -0.38166126      -1.43128942
H       -1.73510194       1.20927984      -0.73498018
H       -2.09630090       0.19133271       1.54307833
H       -3.30707704      -0.37137990       0.38113561
H       -1.96263273      -1.41964338       0.84169592
16
Frame=1 idx=005155 GeodesicLength=0.04658575101645503 rxn_smarts="[C:1]([C:2]([C:3](=[O:4])[C:5]([C:6]([H:14])([H:15])[H:16])([H:12])[H:13])([H:10])[H:11])([H:7])([H:8])[H:9]>>[C:1]([O:4][C:3](=[C:2]([H:10])[H:11])[C:5]([C:6]([H:14])([H:15])[H:16])([H:12])[H:13])([H:7])([H:8])[H:9]"
C        2.39080441      -0.06430395       0.70052433
C        1.04370782       0.11905700      -1.20241579
C        0.06504394       0.25334167      -0.21987376
O        0.44492889       0.46288676       0.96376691
C       -1.41463337       0.19020461      -0.50702771
C       -2.25044474      -0.38932541       0.62538638
H        3.16908611      -0.05868214      -0.04963509
H        2.53160269       0.69145057       1.46059169
H        2.14678814      -1.05330601       1.05820216
H        0.82038215      -0.33911098      -2.16069169
H        1.72977384       0.95706565      -1.25188016
H       -1.55879164      -0.37092971      -1.43295896
H       -1.72966885       1.21600862      -0.72616678
H       -2.10825215       0.18236288       1.54202780
H       -3.31116931      -0.37281019       0.36919490
H       -1.96915793      -1.42390938       0.83095576
16
Frame=2 idx=005155 GeodesicLength=0.09320280208888969 rxn_smarts="[C:1]([C:2]([C:3](=[O:4])[C:5]([C:6]([H:14])([H:15])[H:16])([H:12])[H:13])([H:10])[H:11])([H:7])([H:8])[H:9]>>[C:1]([O:4][C:3](=[C:2]([H:10])[H:11])[C:5]([C:6]([H:14])([H:15])[H:16])([H:12])[H:13])([H:7])([H:8])[H:9]"
C        2.38388332      -0.06505076       0.68834401
C        1.04859185       0.12483353      -1.18977259
C        0.06429735       0.25117859      -0.20973304
O        0.44356801       0.44066234       0.97854203
C       -1.41332367       0.19452323      -0.50412137
C       -2.25568837      -0.39226405       0.61962000
H        3.16662708      -0.09679762      -0.05787510
H        2.54218979       0.72145721       1.41392675
H        2.16328300      -1.04298747       1.09062530
H        0.82416372      -0.34207814      -2.14358961
H        1.72199164       0.97217303      -1.25313771
H       -1.55550313      -0.35983706      -1.43451535
H       -1.72411547       1.22286671      -0.71696808
H       -2.11964330       0.17331088       1.54102212
H       -3.31495012      -0.37394258       0.35759354
H       -1.97537171      -1.42804786       0.82003911
16
Frame=3 idx=005155 GeodesicLength=0.1399057586819611 rxn_smarts="[C:1]([C:2]([C:3](=[O:4])[C:5]([C:6]([H:14])([H:15])[H:16])([H:12])[H:13])([H:10])[H:11])([H:7])([H:8])[H:9]>>[C:1]([O:4][C:3](=[C:2]([H:10])[H:11])[C:5]([C:6]([H:14])([H:15])[H:16])([H:12])[H:13])([H:7])([H:8])[H:9]"
C        2.37665446      -0.06620026       0.67669192
C        1.05333989       0.13038474      -1.17752506
C        0.06366562       0.24925734      -0.19988878
O        0.44249621       0.41864157       0.99264284
C       -1.41189737       0.19908476      -0.50113903
C       -2.26045720      -0.39518401       0.61392596
H        3.16295222      -0.13371849      -0.06475651
H        2.55100473       0.74922344       1.36679771
H        2.18049980      -1.03089241       1.12294286
H        0.82768510      -0.34526066      -2.12675416
H        1.71455099       0.98615964      -1.25483359
H       -1.55226832      -0.34827893      -1.43602798
H       -1.71858363       1.22993710      -0.70739242
H       -2.13040997       0.16405170       1.54009956
H       -3.31827309      -0.37503973       0.34630684
H       -1.98095943      -1.43216581       0.80890982
16
Frame=4 idx=005155 GeodesicLength=0.18665245200566705 rxn_smarts="[C:1]([C:2]([C:3](=[O:4])[C:5]([C:6]([H:14])([H:15])[H:16])([H:12])[H:13])([H:10])[H:11])([H:7])([H:8])[H:9]>>[C:1]([O:4][C:3](=[C:2]([H:10])[H:11])[C:5]([C:6]([H:14])([H:15])[H:16])([H:12])[H:13])([H:7])([H:8])[H:9]"
C        2.36927921      -0.06767891       0.66551358
C        1.05799908       0.13561499      -1.16563051
C        0.06313384       0.24723283      -0.19027149
O        0.44164735       0.39632682       1.00617418
C       -1.41037671       0.20374850      -0.49808044
C       -2.26497903      -0.39793137       0.60831988
H        3.15850743      -0.16880815      -0.07035492
H        2.55792886       0.77465980       1.31963414
H        2.19899393      -1.01713467       1.15450277
H        0.83102712      -0.34869406      -2.11019066
H        1.70732482       0.99912800      -1.25684856
H       -1.54911750      -0.33649285      -1.43743801
H       -1.71290592       1.23710048      -0.69755981
H       -2.14073081       0.15483773       1.53921117
H       -3.32135765      -0.37577729       0.33529777
H       -1.98637400      -1.43613185       0.79772091
16
Frame=5 idx=005155 GeodesicLength=0.233421974194714 rxn_smarts="[C:1]([C:2]([C:3](=[O:4])[C:5]([C:6]([H:14])([H:15])[H:16])([H:12])[H:13])([H:10])[H:11])([H:7])([H:8])[H:9]>>[C:1]([O:4][C:3](=[C:2]([H:10])[H:11])[C:5]([C:6]([H:14])([H:15])[H:16])([H:12])[H:13])([H:7])([H:8])[H:9]"
C        2.36176236      -0.06943251       0.65484953
C        1.06252941       0.14044431      -1.15408501
C        0.06269070       0.24518783      -0.18087173
O        0.44104868       0.37385374       1.01914610
C       -1.40879621       0.20862823      -0.49493374
C       -2.26924569      -0.40060072       0.60273745
H        3.15333324      -0.20235501      -0.07483455
H        2.56329196       0.79788267       1.27254402
H        2.21858145      -1.00143485       1.18556911
H        0.83411231      -0.35257970      -2.09383890
H        1.70030990       1.01100364      -1.25929665
H       -1.54611799      -0.32421100      -1.43883320
H       -1.70714099       1.24450381      -0.68729187
H       -2.15059744       0.14543367       1.53839654
H       -3.32421555      -0.37625669       0.32450426
H       -1.99154611      -1.44006743       0.78623865
16
Frame=6 idx=005155 GeodesicLength=0.28044186558572864 rxn_smarts="[C:1]([C:2]([C:3](=[O:4])[C:5]([C:6]([H:14])([H:15])[H:16])([H:12])[H:13])([H:10])[H:11])([H:7])([H:8])[H:9]>>[C:1]([O:4][C:3](=[C:2]([H:10])[H:11])[C:5]([C:6]([H:14])([H:15])[H:16])([H:12])[H:13])([H:7])([H:8])[H:9]"
C        2.35414542      -0.07133321       0.64465897
C        1.06695825       0.14475098      -1.14279217
C        0.06232762       0.24306328      -0.17162163
O        0.44060779       0.35110084       1.03156352
C       -1.40713133       0.21382277      -0.49161390
C       -2.27329516      -0.40325591       0.59710134
H        3.14750907      -0.23464837      -0.07829417
H        2.56722061       0.81949217       1.22528560
H        2.23913250      -0.98378239       1.21624462
H        0.83698526      -0.35712223      -2.07749598
H        1.69346020       1.02167704      -1.26224175
H       -1.54324465      -0.31108614      -1.44020205
H       -1.70118442       1.25224934      -0.67627232
H       -2.16007654       0.13554871       1.53765106
H       -3.32685254      -0.37645005       0.31386843
H       -1.99656210      -1.44402683       0.77416042
16
Frame=7 idx=005155 GeodesicLength=0.3274932532941254 rxn_smarts="[C:1]([C:2]([C:3](=[O:4])[C:5]([C:6]([H:14])([H:15])[H:16])([H:12])[H:13])([H:10])[H:11])([H:7])([H:8])[H:9]>>[C:1]([O:4][C:3](=[C:2]([H:10])[H:11])[C:5]([C:6]([H:14])([H:15])[H:16])([H:12])[H:13])([H:7])([H:8])[H:9]"
C        2.34638321      -0.07346082       0.63498214
C        1.07124843       0.14863367      -1.13180251
C        0.06203132       0.24102132      -0.16256834
O        0.44036936       0.32825476       1.04341962
C       -1.40541969       0.21926250      -0.48818436
C       -2.27709319      -0.40587185       0.59145301
H        3.14111405      -0.26563912      -0.08076085
H        2.56984565       0.83897716       1.17838406
H        2.26051574      -0.96404280       1.24621484
H        0.83956513      -0.36217692      -2.06126598
H        1.68684127       1.03123804      -1.26564812
H       -1.54050432      -0.29738800      -1.44152742
H       -1.69519359       1.26022599      -0.66475920
H       -2.16914899       0.12538944       1.53694408
H       -3.32926412      -0.37646279       0.30340814
H       -2.00129025      -1.44796057       0.76171091
16
Frame=8 idx=005155 GeodesicLength=0.3745811063909157 rxn_smarts="[C:1]([C:2]([C:3](=[O:4])[C:5]([C:6]([H:14])([H:15])[H:16])([H:12])[H:13])([H:10])[H:11])([H:7])([H:8])[H:9]>>[C:1]([O:4][C:3](=[C:2]([H:10])[H:11])[C:5]([C:6]([H:14])([H:15])[H:16])([H:12])[H:13])([H:7])([H:8])[H:9]"
C        2.33844917      -0.07583783       0.62581107
C        1.07541743       0.15218920      -1.12110751
C        0.06179805       0.23912888      -0.15370937
O        0.44029969       0.30535516       1.05471725
C       -1.40365596       0.22487462      -0.48466320
C       -2.28063932      -0.40842582       0.58582544
H        3.13421406      -0.29540578      -0.08231147
H        2.57128673       0.85631675       1.13207985
H        2.28252556      -0.94235034       1.27522408
H        0.84188295      -0.36756697      -2.04517413
H        1.68047481       1.03978612      -1.26945786
H       -1.53782884      -0.28331688      -1.44275640
H       -1.68922195       1.26831303      -0.65290948
H       -2.17786315       0.11509221       1.53624209
H       -3.33144462      -0.37634428       0.29313760
H       -2.00569461      -1.45180805       0.74905203
16
Frame=9 idx=005155 GeodesicLength=0.4216931716823884 rxn_smarts="[C:1]([C:2]([C:3](=[O:4])[C:5]([C:6]([H:14])([H:15])[H:16])([H:12])[H:13])([H:10])[H:11])([H:7])([H:8])[H:9]>>[C:1]([O:4][C:3](=[C:2]([H:10])[H:11])[C:5]([C:6]([H:14])([H:15])[H:16])([H:12])[H:13])([H:7])([H:8])[H:9]"
C        2.33042407      -0.07839051       0.61713005
C        1.07950904       0.15541625      -1.11068062
C        0.06160830       0.23722196      -0.14500037
O        0.44030861       0.28211408       1.06551119
C       -1.40183521       0.23055992      -0.48105439
C       -2.28403899      -0.41084136       0.58024099
H        3.12698275      -0.32374966      -0.08304724
H        2.57162219       0.87165785       1.08660814
H        2.30524749      -0.91891125       1.30293340
H        0.84402500      -0.37323992      -2.02923350
H        1.67430830       1.04744291      -1.27360462
H       -1.53517848      -0.26905729      -1.44385015
H       -1.68318629       1.27640652      -0.64082976
H       -2.18632850       0.10480776       1.53552643
H       -3.33347421      -0.37594249       0.28304672
H       -2.00999407      -1.45549478       0.73630374
16
Frame=10 idx=005155 GeodesicLength=0.4687699325162112 rxn_smarts="[C:1]([C:2]([C:3](=[O:4])[C:5]([C:6]([H:14])([H:15])[H:16])([H:12])[H:13])([H:10])[H:11])([H:7])([H:8])[H:9]>>[C:1]([O:4][C:3](=[C:2]([H:10])[H:11])[C:5]([C:6]([H:14])([H:15])[H:16])([H:12])[H:13])([H:7])([H:8])[H:9]"
C        2.32216110      -0.08127397       0.60895085
C        1.08351371       0.15862215      -1.10053982
C        0.06147482       0.23570580      -0.13648522
O        0.44044064       0.25908207       1.07576205
C       -1.39995725       0.23623511      -0.47742507
C       -2.28714208      -0.41316915       0.57477961
H        3.11927499      -0.35115722      -0.08299785
H        2.57113364       0.88475435       1.04219156
H        2.32793328      -0.89392383       1.32914245
H        0.84596743      -0.37876234      -2.01354184
H        1.66851805       1.05441014      -1.27797196
H       -1.53244956      -0.25497694      -1.44475688
H       -1.67734837       1.28432460      -0.62886247
H       -2.19449541       0.09474071       1.53476374
H       -3.33522612      -0.37562355       0.27319511
H       -2.01379887      -1.45898794       0.72379574
16
Frame=11 idx=005155 GeodesicLength=0.5158681357641146 rxn_smarts="[C:1]([C:2]([C:3](=[O:4])[C:5]([C:6]([H:14])([H:15])[H:16])([H:12])[H:13])([H:10])[H:11])([H:7])([H:8])[H:9]>>[C:1]([O:4][C:3](=[C:2]([H:10])[H:11])[C:5]([C:6]([H:14])([H:15])[H:16])([H:12])[H:13])([H:7])([H:8])[H:9]"
C        2.31383557      -0.08424677       0.60125377
C        1.08744219       0.16149674      -1.09059797
C        0.06138532       0.23424387      -0.12808588
O        0.44063401       0.23574575       1.08549221
C       -1.39802901       0.24199429      -0.47369114
C       -2.29010044      -0.41539039       0.56933603
H        3.11132719      -0.37737296      -0.08224253
H        2.56983403       0.89614531       0.99875650
H        2.35096752      -0.86728015       1.35385884
H        0.84772396      -0.38458718      -1.99789493
H        1.66294039       1.06047705      -1.28264370
H       -1.52973025      -0.24067595      -1.44550343
H       -1.67149112       1.29223680      -0.61663810
H       -2.20244512       0.08462836       1.53395791
H       -3.33683350      -0.37508545       0.26349305
H       -2.01746073      -1.46232930       0.71114936
16
Frame=12 idx=005155 GeodesicLength=0.5629164201435632 rxn_smarts="[C:1]([C:2]([C:3](=[O:4])[C:5]([C:6]([H:14])([H:15])[H:16])([H:12])[H:13])([H:10])[H:11])([H:7])([H:8])[H:9]>>[C:1]([O:4][C:3](=[C:2]([H:10])[H:11])[C:5]([C:6]([H:14])([H:15])[H:16])([H:12])[H:13])([H:7])([H:8])[H:9]"
C        2.30540154      -0.08736599       0.59404987
C        1.09131374       0.16425094      -1.08087707
C        0.06134594       0.23298280      -0.11980048
O        0.44088787       0.21230346       1.09474319
C       -1.39604433       0.24772743      -0.46991256
C       -2.29287523      -0.41749555       0.56399045
H        3.10312490      -0.40254881      -0.08081436
H        2.56789509       0.90574250       0.95652920
H        2.37394318      -0.83930671       1.37679170
H        0.84933659      -0.39041326      -1.98240984
H        1.65764701       1.06588407      -1.28752103
H       -1.52694365      -0.22651609      -1.44606868
H       -1.66571656       1.29999882      -0.60446850
H       -2.21019531       0.07472030       1.53310597
H       -3.33826029      -0.37448105       0.25397320
H       -2.02086050      -1.46548286       0.69868894
16
Frame=13 idx=005155 GeodesicLength=0.609963638865779 rxn_smarts="[C:1]([C:2]([C:3](=[O:4])[C:5]([C:6]([H:14])([H:15])[H:16])([H:12])[H:13])([H:10])[H:11])([H:7])([H:8])[H:9]>>[C:1]([O:4][C:3](=[C:2]([H:10])[H:11])[C:5]([C:6]([H:14])([H:15])[H:16])([H:12])[H:13])([H:7])([H:8])[H:9]"
C        2.29692055      -0.09048731       0.58733198
C        1.09510947       0.16670249      -1.07132222
C        0.06136363       0.23184954      -0.11158294
O        0.44120996       0.18861472       1.10351318
C       -1.39400148       0.25354445      -0.46602633
C       -2.29549178      -0.41952119       0.55866144
H        3.09474428      -0.42670200      -0.07872737
H        2.56537694       0.91387871       0.91539743
H        2.39687252      -0.80988554       1.39801943
H        0.85075553      -0.39654610      -1.96692482
H        1.65256923       1.07043398      -1.29269632
H       -1.52414050      -0.21215850      -1.44647395
H       -1.65994686       1.30775237      -0.59206816
H       -2.21774179       0.06476952       1.53220998
H       -3.33953189      -0.37373790       0.24456979
H       -2.02406782      -1.46850722       0.68611889
16
Frame=14 idx=005155 GeodesicLength=0.6570255799628216 rxn_smarts="[C:1]([C:2]([C:3](=[O:4])[C:5]([C:6]([H:14])([H:15])[H:16])([H:12])[H:13])([H:10])[H:11])([H:7])([H:8])[H:9]>>[C:1]([O:4][C:3](=[C:2]([H:10])[H:11])[C:5]([C:6]([H:14])([H:15])[H:16])([H:12])[H:13])([H:7])([H:8])[H:9]"
C        2.28848037      -0.09344129       0.58111550
C        1.09883392       0.16862668      -1.06192737
C        0.06145177       0.23066548      -0.10336758
O        0.44159400       0.16436859       1.11186677
C       -1.39188180       0.25954566      -0.46196872
C       -2.29802361      -0.42148164       0.55328958
H        3.08634525      -0.44968657      -0.07596291
H        2.56223353       0.92090672       0.87528797
H        2.41986490      -0.77888175       1.41755601
H        0.85197586      -0.40336989      -1.95135147
H        1.64760426       1.07396092      -1.29832880
H       -1.52135937      -0.19727418      -1.44677316
H       -1.65401596       1.31567610      -0.57914836
H       -2.22510365       0.05454563       1.53133112
H       -3.34071353      -0.37266870       0.23522941
H       -2.02728594      -1.47149176       0.67315201
16
Frame=15 idx=005155 GeodesicLength=0.7041619624515916 rxn_smarts="[C:1]([C:2]([C:3](=[O:4])[C:5]([C:6]([H:14])([H:15])[H:16])([H:12])[H:13])([H:10])[H:11])([H:7])([H:8])[H:9]>>[C:1]([O:4][C:3](=[C:2]([H:10])[H:11])[C:5]([C:6]([H:14])([H:15])[H:16])([H:12])[H:13])([H:7])([H:8])[H:9]"
C        2.28014673      -0.09602702       0.57539620
C        1.10246994       0.16983794      -1.05262890
C        0.06162844       0.22931338      -0.09510225
O        0.44206532       0.13935958       1.11980698
C       -1.38966449       0.26579730      -0.45767524
C       -2.30048575      -0.42337237       0.54779867
H        3.07804980      -0.47136270      -0.07249746
H        2.55844266       0.92716245       0.83612184
H        2.44286557      -0.74632601       1.43531101
H        0.85294268      -0.41115887      -1.93550229
H        1.64264646       1.07624880      -1.30448031
H       -1.51862682      -0.18161238      -1.44694291
H       -1.64781197       1.32384059      -0.56547261
H       -2.23225410       0.04387873       1.53043839
H       -3.34181520      -0.37114593       0.22588010
H       -2.03059929      -1.47443349       0.65954878
16
Frame=16 idx=005155 GeodesicLength=0.7513068549174498 rxn_smarts="[C:1]([C:2]([C:3](=[O:4])[C:5]([C:6]([H:14])([H:15])[H:16])([H:12])[H:13])([H:10])[H:11])([H:7])([H:8])[H:9]>>[C:1]([O:4][C:3](=[C:2]([H:10])[H:11])[C:5]([C:6]([H:14])([H:15])[H:16])([H:12])[H:13])([H:7])([H:8])[H:9]"
C        2.27187782      -0.09832491       0.57016017
C        1.10604851       0.17051710      -1.04348123
C        0.06189510       0.22790141      -0.08681617
O        0.44260629       0.11374138       1.12728801
C       -1.38734576       0.27221498      -0.45318337
C       -2.30285235      -0.42519028       0.54226718
H        3.06985837      -0.49186091      -0.06834318
H        2.55412073       0.93257180       0.79802806
H        2.46554165      -0.71246419       1.45122576
H        0.85371322      -0.41963794      -1.91952251
H        1.63777872       1.07749343      -1.31110883
H       -1.51587075      -0.16543784      -1.44695465
H       -1.64142301       1.33212911      -0.55125092
H       -2.23921626       0.03293303       1.52954731
H       -3.34281398      -0.36927927       0.21660069
H       -2.03391832      -1.47730691       0.64554368
