15
Frame=0 idx=008778 GeodesicLength=0.0 rxn_smarts="[O:1]=[C:2]1[C:3]([H:8])([H:9])[C:4]([H:10])([H:11])[C:5]([H:12])([H:13])[C:6]([H:14])=[C:7]1[H:15]>>[O:1]=[C:2]1[C:3]([H:8])([H:9])[C:4]([H:10])([H:11])[C:5]([H:13])=[C:6]([H:14])[C:7]1([H:12])[H:15]"
O        0.57706753      -2.65790129       0.45749967
C        0.38902233      -1.46742644       0.22937224
C       -1.02409333      -0.98254167      -0.12313821
C       -1.23132318       0.47449033       0.31501021
C       -0.24254801       1.35278807      -0.28947847
C        1.10788965       0.87472559      -0.27061822
C        1.40088132      -0.46793515       0.19423181
H       -1.17802532      -1.10330732      -1.20086109
H       -1.74312547      -1.62694092       0.38003107
H       -2.25828131       0.82701373       0.23217052
H       -0.94060341       0.47594808       1.39350835
H        1.54227685       1.09125989      -1.26826507
H       -0.47350964       2.32759792      -0.70119754
H        1.64238492       1.64713544       0.32348054
H        2.43198713      -0.76490629       0.32825414
15
Frame=1 idx=008778 GeodesicLength=0.12300817336036339 rxn_smarts="[O:1]=[C:2]1[C:3]([H:8])([H:9])[C:4]([H:10])([H:11])[C:5]([H:12])([H:13])[C:6]([H:14])=[C:7]1[H:15]>>[O:1]=[C:2]1[C:3]([H:8])([H:9])[C:4]([H:10])([H:11])[C:5]([H:13])=[C:6]([H:14])[C:7]1([H:12])[H:15]"
O        0.58337357      -2.65272236       0.46256498
C        0.39066927      -1.46520160       0.22922437
C       -1.02185701      -0.98355870      -0.12298743
C       -1.23405575       0.47363307       0.31005940
C       -0.23786430       1.35356238      -0.28825848
C        1.11110489       0.88541883      -0.23506731
C        1.40905184      -0.46748750       0.17600345
H       -1.17363801      -1.10503717      -1.20106658
H       -1.73982294      -1.63100888       0.37797363
H       -2.25988493       0.82396190       0.20460053
H       -0.96828012       0.48019849       1.39348376
H        1.49496243       1.04019457      -1.29597514
H       -0.46201326       2.34637289      -0.65863496
H        1.67077717       1.66520590       0.31743785
H        2.43747715      -0.76353182       0.33064194
15
Frame=2 idx=008778 GeodesicLength=0.24597542994353905 rxn_smarts="[O:1]=[C:2]1[C:3]([H:8])([H:9])[C:4]([H:10])([H:11])[C:5]([H:12])([H:13])[C:6]([H:14])=[C:7]1[H:15]>>[O:1]=[C:2]1[C:3]([H:8])([H:9])[C:4]([H:10])([H:11])[C:5]([H:13])=[C:6]([H:14])[C:7]1([H:12])[H:15]"
O        0.59008901      -2.64707945       0.46756419
C        0.39250150      -1.46272975       0.22842391
C       -1.01978154      -0.98455161      -0.12244704
C       -1.23634862       0.47304723       0.30481138
C       -0.23255736       1.35401145      -0.28795392
C        1.11466799       0.89560109      -0.20099877
C        1.41701125      -0.46671841       0.15493514
H       -1.17041565      -1.10731706      -1.20066693
H       -1.73621988      -1.63470682       0.37736585
H       -2.26047821       0.82140376       0.17678449
H       -0.99549899       0.48523754       1.39253386
H        1.44769180       0.99202917      -1.31855177
H       -0.45054071       2.36276266      -0.61684148
H        1.69784210       1.68039599       0.31181049
H        2.44203731      -0.76138579       0.33323060
15
Frame=3 idx=008778 GeodesicLength=0.36890732822870015 rxn_smarts="[O:1]=[C:2]1[C:3]([H:8])([H:9])[C:4]([H:10])([H:11])[C:5]([H:12])([H:13])[C:6]([H:14])=[C:7]1[H:15]>>[O:1]=[C:2]1[C:3]([H:8])([H:9])[C:4]([H:10])([H:11])[C:5]([H:13])=[C:6]([H:14])[C:7]1([H:12])[H:15]"
O        0.59720232      -2.64094753       0.47265083
C        0.39451642      -1.45995101       0.22733444
C       -1.01780113      -0.98549400      -0.12149174
C       -1.23837118       0.47271201       0.29936552
C       -0.22663366       1.35428590      -0.28794439
C        1.11839540       0.90507506      -0.16778114
C        1.42467028      -0.46547383       0.13213926
H       -1.16791239      -1.10997144      -1.19970748
H       -1.73236276      -1.63810545       0.37794361
H       -2.26021344       0.81924445       0.14853808
H       -1.02280060       0.49095562       1.39083210
H        1.40088670       0.94682960      -1.33689316
H       -0.43911761       2.37671516      -0.57619071
H        1.72381181       1.69296263       0.30657477
H        2.44572982      -0.75883717       0.33463000
15
Frame=4 idx=008778 GeodesicLength=0.4918382709937698 rxn_smarts="[O:1]=[C:2]1[C:3]([H:8])([H:9])[C:4]([H:10])([H:11])[C:5]([H:12])([H:13])[C:6]([H:14])=[C:7]1[H:15]>>[O:1]=[C:2]1[C:3]([H:8])([H:9])[C:4]([H:10])([H:11])[C:5]([H:13])=[C:6]([H:14])[C:7]1([H:12])[H:15]"
O        0.60469623      -2.63429612       0.47810820
C        0.39669867      -1.45681156       0.22636151
C       -1.01585902      -0.98637477      -0.12009135
C       -1.24030337       0.47261683       0.29373737
C       -0.22009127       1.35450155      -0.28772662
C        1.12217117       0.91379611      -0.13463629
C        1.43192785      -0.46355750       0.10879343
H       -1.16570788      -1.11291776      -1.19822772
H       -1.72831369      -1.64127365       0.37948180
H       -2.25921998       0.81739619       0.11953066
H       -1.05077551       0.49730111       1.38845260
H        1.35475910       0.90435971      -1.35164494
H       -0.42772958       2.38836001      -0.53693686
H        1.74885719       1.70324342       0.30183711
H        2.44889009      -0.75634355       0.33296109
15
Frame=5 idx=008778 GeodesicLength=0.6147759451482091 rxn_smarts="[O:1]=[C:2]1[C:3]([H:8])([H:9])[C:4]([H:10])([H:11])[C:5]([H:12])([H:13])[C:6]([H:14])=[C:7]1[H:15]>>[O:1]=[C:2]1[C:3]([H:8])([H:9])[C:4]([H:10])([H:11])[C:5]([H:13])=[C:6]([H:14])[C:7]1([H:12])[H:15]"
O        0.61257791      -2.62710936       0.48409586
C        0.39902737      -1.45328607       0.22576364
C       -1.01392670      -0.98718926      -0.11820867
C       -1.24227070       0.47275703       0.28790182
C       -0.21292389       1.35470697      -0.28699021
C        1.12590520       0.92177935      -0.10087146
C        1.43868020      -0.46081604       0.08568738
H       -1.16355989      -1.11614377      -1.19622234
H       -1.72411082      -1.64424303       0.38188032
H       -2.25754548       0.81579701       0.08948587
H       -1.07985495       0.50426673       1.38536151
H        1.30939069       0.86430295      -1.36334055
H       -0.41635099       2.39790971      -0.49919644
H        1.77304790       1.71150069       0.29775166
H        2.45191417      -0.75423294       0.32690160
15
Frame=6 idx=008778 GeodesicLength=0.7377001832069 rxn_smarts="[O:1]=[C:2]1[C:3]([H:8])([H:9])[C:4]([H:10])([H:11])[C:5]([H:12])([H:13])[C:6]([H:14])=[C:7]1[H:15]>>[O:1]=[C:2]1[C:3]([H:8])([H:9])[C:4]([H:10])([H:11])[C:5]([H:13])=[C:6]([H:14])[C:7]1([H:12])[H:15]"
O        0.62089600      -2.61940119       0.49056582
C        0.40150007      -1.44939461       0.22557802
C       -1.01199972      -0.98793378      -0.11581542
C       -1.24432090       0.47313197       0.28183755
C       -0.20510837       1.35489441      -0.28556856
C        1.12953336       0.92901648      -0.06599254
C        1.44485347      -0.45718315       0.06309809
H       -1.16143442      -1.11965301      -1.19366153
H       -1.71974951      -1.64701149       0.38515483
H       -2.25515257       0.81442901       0.05826408
H       -1.11024270       0.51183935       1.38147225
H        1.26471763       0.82635057      -1.37255324
H       -0.40494920       2.40559829      -0.46295538
H        1.79640712       1.71784686       0.29441803
H        2.45504975      -0.75252971       0.31615801
15
Frame=7 idx=008778 GeodesicLength=0.8606071351530926 rxn_smarts="[O:1]=[C:2]1[C:3]([H:8])([H:9])[C:4]([H:10])([H:11])[C:5]([H:12])([H:13])[C:6]([H:14])=[C:7]1[H:15]>>[O:1]=[C:2]1[C:3]([H:8])([H:9])[C:4]([H:10])([H:11])[C:5]([H:13])=[C:6]([H:14])[C:7]1([H:12])[H:15]"
O        0.62972716      -2.61121275       0.49729663
C        0.40413394      -1.44517589       0.22568288
C       -1.01008430      -0.98861373      -0.11288436
C       -1.24643781       0.47374202       0.27553232
C       -0.19659458       1.35502983      -0.28340516
C        1.13300956       0.93547974      -0.02965915
C        1.45040242      -0.45260558       0.04101020
H       -1.15943235      -1.12347399      -1.19050060
H       -1.71518946      -1.64957209       0.38941143
H       -2.25193917       0.81328933       0.02583722
H       -1.14196622       0.52002094       1.37667879
H        1.22058284       0.79020514      -1.37989415
H       -0.39345354       2.41164956      -0.42814554
H        1.81889686       1.72231476       0.29193260
H        2.45834467      -0.75107730       0.30110690
15
Frame=8 idx=008778 GeodesicLength=0.9834895998970558 rxn_smarts="[O:1]=[C:2]1[C:3]([H:8])([H:9])[C:4]([H:10])([H:11])[C:5]([H:12])([H:13])[C:6]([H:14])=[C:7]1[H:15]>>[O:1]=[C:2]1[C:3]([H:8])([H:9])[C:4]([H:10])([H:11])[C:5]([H:13])=[C:6]([H:14])[C:7]1([H:12])[H:15]"
O        0.63917395      -2.60258920       0.50397501
C        0.40696508      -1.44066851       0.22588596
C       -1.00818322      -0.98922933      -0.10937799
C       -1.24856941       0.47459754       0.26897078
C       -0.18730917       1.35506152      -0.28050604
C        1.13629944       0.94111101       0.00837453
C        1.45529948      -0.44701774       0.01931029
H       -1.15771223      -1.12764332      -1.18667309
H       -1.71036052      -1.65189788       0.39481900
H       -2.24776704       0.81238993      -0.00778857
H       -1.17496604       0.52884069       1.37085674
H        1.17675313       0.75554121      -1.38596602
H       -0.38176523       2.41624693      -0.39470632
H        1.84040861       1.72487608       0.29049199
H        2.46173318      -0.74961894       0.28233372
15
Frame=9 idx=008778 GeodesicLength=1.1063387344273232 rxn_smarts="[O:1]=[C:2]1[C:3]([H:8])([H:9])[C:4]([H:10])([H:11])[C:5]([H:12])([H:13])[C:6]([H:14])=[C:7]1[H:15]>>[O:1]=[C:2]1[C:3]([H:8])([H:9])[C:4]([H:10])([H:11])[C:5]([H:13])=[C:6]([H:14])[C:7]1([H:12])[H:15]"
O        0.64936692      -2.59356038       0.51028918
C        0.41005142      -1.43590317       0.22596518
C       -1.00629206      -0.98977839      -0.10523651
C       -1.25064032       0.47572535       0.26211865
C       -0.17715499       1.35492641      -0.27693883
C        1.13937152       0.94583190       0.04827479
C        1.45952899      -0.44032338      -0.00215726
H       -1.15646425      -1.13223278      -1.18207961
H       -1.70516533      -1.65393607       0.40161856
H       -2.24247476       0.81175634      -0.04261465
H       -1.20913131       0.53838350       1.36385414
H        1.13294555       0.72200558      -1.39135827
H       -0.36975176       2.41953748      -0.36264970
H        1.86071649       1.72544665       0.29060422
H        2.46509389      -0.74787905       0.26031012
15
Frame=10 idx=008778 GeodesicLength=1.229157034301365 rxn_smarts="[O:1]=[C:2]1[C:3]([H:8])([H:9])[C:4]([H:10])([H:11])[C:5]([H:12])([H:13])[C:6]([H:14])=[C:7]1[H:15]>>[O:1]=[C:2]1[C:3]([H:8])([H:9])[C:4]([H:10])([H:11])[C:5]([H:13])=[C:6]([H:14])[C:7]1([H:12])[H:15]"
O        0.66045420      -2.58415365       0.51588797
C        0.41345846      -1.43090579       0.22568332
C       -1.00440507      -0.99025388      -0.10036483
C       -1.25255989       0.47716992       0.25491189
C       -0.16601504       1.35454995      -0.27284527
C        1.14218742       0.94952669       0.09011821
C        1.46307331      -0.43240516      -0.02357741
H       -1.15592069      -1.13735018      -1.17657059
H       -1.69948225      -1.65560052       0.41014820
H       -2.23588500       0.81141323      -0.07867557
H       -1.24431847       0.54879971       1.35548141
H        1.08880541       0.68918344      -1.39666744
H       -0.35724749       2.42163093      -0.33205222
H        1.87952653       1.72394860       0.29314940
H        2.46832858      -0.74555331       0.23537294
15
Frame=11 idx=008778 GeodesicLength=1.3519492181443808 rxn_smarts="[O:1]=[C:2]1[C:3]([H:8])([H:9])[C:4]([H:10])([H:11])[C:5]([H:12])([H:13])[C:6]([H:14])=[C:7]1[H:15]>>[O:1]=[C:2]1[C:3]([H:8])([H:9])[C:4]([H:10])([H:11])[C:5]([H:13])=[C:6]([H:14])[C:7]1([H:12])[H:15]"
O        0.67261292      -2.57438240       0.52041797
C        0.41726857      -1.42569764       0.22477256
C       -1.00251283      -0.99064868      -0.09463096
C       -1.25422409       0.47899108       0.24725228
C       -0.15375646       1.35385174      -0.26844490
C        1.14468609       0.95204187       0.13388222
C        1.46591596      -0.42312169      -0.04519061
H       -1.15635914      -1.14315732      -1.16993992
H       -1.69315419      -1.65677021       0.42085087
H       -2.22780946       0.81137777      -0.11604000
H       -1.28035100       0.56030911       1.34550651
H        1.04389908       0.65660568      -1.40249852
H       -0.34404836       2.42261572      -0.30307436
H        1.89650467       1.72031445       0.29945435
H        2.47132826      -0.74232948       0.20768251
15
Frame=12 idx=008778 GeodesicLength=1.4747229677610496 rxn_smarts="[O:1]=[C:2]1[C:3]([H:8])([H:9])[C:4]([H:10])([H:11])[C:5]([H:12])([H:13])[C:6]([H:14])=[C:7]1[H:15]>>[O:1]=[C:2]1[C:3]([H:8])([H:9])[C:4]([H:10])([H:11])[C:5]([H:13])=[C:6]([H:14])[C:7]1([H:12])[H:15]"
O        0.68603713      -2.56426040       0.52347233
C        0.42157076      -1.42030156       0.22292961
C       -1.00060402      -0.99095309      -0.08786990
C       -1.25552746       0.48125670       0.23900859
C       -0.14023480       1.35274719      -0.26400995
C        1.14676355       0.95317323       0.17949361
C        1.46803149      -0.41231118      -0.06726393
H       -1.15809872      -1.14985342      -1.16192709
H       -1.68598734      -1.65728968       0.43426180
H       -2.21805688       0.81164117      -0.15482263
H       -1.31705184       0.57318125       1.33365537
H        0.99771181       0.62374904      -1.40941533
H       -0.32991567       2.42255948      -0.27590329
H        1.91137620       1.71452538       0.31107887
H        2.47398578      -0.73786411       0.17731193
15
Frame=13 idx=008778 GeodesicLength=1.5974876743351638 rxn_smarts="[O:1]=[C:2]1[C:3]([H:8])([H:9])[C:4]([H:10])([H:11])[C:5]([H:12])([H:13])[C:6]([H:14])=[C:7]1[H:15]>>[O:1]=[C:2]1[C:3]([H:8])([H:9])[C:4]([H:10])([H:11])[C:5]([H:13])=[C:6]([H:14])[C:7]1([H:12])[H:15]"
O        0.70093554      -2.55380249       0.52457267
C        0.42645681      -1.41474270       0.21979975
C       -0.99866512      -0.99115353      -0.07988976
C       -1.25637338       0.48403587       0.23001669
C       -0.12529770       1.35115129      -0.25983794
C        1.14825327       0.95266418       0.22688472
C        1.46938016      -0.39977799      -0.09006457
H       -1.16149632      -1.15766762      -1.15221624
H       -1.67774098      -1.65696702       0.45099385
H       -2.20643850       0.81215760      -0.19519311
H       -1.35427011       0.58771776       1.31960582
H        0.94967013       0.59006847      -1.41787435
H       -0.31458050       2.42151410      -0.25071372
H        1.92397594       1.70657880       0.32961487
H        2.47619074      -0.73177672       0.14430133
15
Frame=14 idx=008778 GeodesicLength=1.7202564448059603 rxn_smarts="[O:1]=[C:2]1[C:3]([H:8])([H:9])[C:4]([H:10])([H:11])[C:5]([H:12])([H:13])[C:6]([H:14])=[C:7]1[H:15]>>[O:1]=[C:2]1[C:3]([H:8])([H:9])[C:4]([H:10])([H:11])[C:5]([H:13])=[C:6]([H:14])[C:7]1([H:12])[H:15]"
O        0.71751191      -2.54304172       0.52313568
C        0.43201062      -1.40905619       0.21497712
C       -0.99667449      -0.99122539      -0.07048374
C       -1.25667957       0.48739441       0.22008993
C       -0.10878264       1.34897965      -0.25620781
C        1.14891361       0.95020772       0.27604630
C        1.46990289      -0.38528419      -0.11380094
H       -1.16692156      -1.16682749      -1.14044660
H       -1.66811848      -1.65557003       0.47170152
H       -2.19276275       0.81283865      -0.23737314
H       -1.39190407       0.60422383       1.30299161
H        0.89919678       0.55503371      -1.42814675
H       -0.29775159       2.41951491      -0.22761117
H        1.93423686       1.69644324       0.35638306
H        2.47782248      -0.72363110       0.10874493
15
Frame=15 idx=008778 GeodesicLength=1.84304992187203 rxn_smarts="[O:1]=[C:2]1[C:3]([H:8])([H:9])[C:4]([H:10])([H:11])[C:5]([H:12])([H:13])[C:6]([H:14])=[C:7]1[H:15]>>[O:1]=[C:2]1[C:3]([H:8])([H:9])[C:4]([H:10])([H:11])[C:5]([H:13])=[C:6]([H:14])[C:7]1([H:12])[H:15]"
O        0.73594254      -2.53202267       0.51847631
C        0.43829601      -1.40327929       0.20800551
C       -0.99459738      -0.99112504      -0.05944257
C       -1.25637927       0.49138795       0.20903140
C       -0.09052771       1.34615044      -0.25336155
C        1.14842909       0.94545619       0.32699701
C        1.46952076      -0.36854491      -0.13858889
H       -1.17473555      -1.17753366      -1.12621670
H       -1.65675420      -1.65281718       0.49704369
H       -2.17683670       0.81354419      -0.28160933
H       -1.42988786       0.62298647       1.28340525
H        0.84578946       0.51818883      -1.44026477
H       -0.27913734       2.41657703      -0.20660073
H        1.94213017       1.68397215       0.39226308
H        2.47874798      -0.71294053       0.07086231
15
Frame=16 idx=008778 GeodesicLength=1.9659001175135233 rxn_smarts="[O:1]=[C:2]1[C:3]([H:8])([H:9])[C:4]([H:10])([H:11])[C:5]([H:12])([H:13])[C:6]([H:14])=[C:7]1[H:15]>>[O:1]=[C:2]1[C:3]([H:8])([H:9])[C:4]([H:10])([H:11])[C:5]([H:13])=[C:6]([H:14])[C:7]1([H:12])[H:15]"
O        0.75632026      -2.52080378       0.50985447
C        0.44533030      -1.39744963       0.19841700
C       -0.99238176      -0.99078295      -0.04658467
C       -1.25542519       0.49605018       0.19666547
C       -0.07040333       1.34259068      -0.25148344
C        1.14643175       0.93804815       0.37967901
C        1.46814046      -0.34926239      -0.16440886
H       -1.18523604      -1.18991039      -1.10911805
H       -1.64322194      -1.64838044       0.52759152
H       -2.15848468       0.81407211      -0.32810012
H       -1.46815454       0.64422574       1.26043260
H        0.78915327       0.47923270      -1.45396613
H       -0.25849568       2.41269574      -0.18754898
H        1.94760468       1.66887799       0.43748284
H        2.47882243      -0.69920372       0.03108733
