16
Frame=0 idx=008096 GeodesicLength=0.0 rxn_smarts="[C:1](/[C:2](=[N:3]/[H:11])[O:4][C:5]1([H:12])[C:6]([H:13])([H:14])[C:7]1([H:15])[H:16])([H:8])([H:9])[H:10]>>[C:1]([C:2]1=[O+:4][C-:5]([H:12])[C:7]([H:15])([H:16])[C:6]([H:13])([H:14])[N:3]1[H:11])([H:8])([H:9])[H:10]"
C        2.33094496      -0.86016040       0.14791262
C        1.18447770       0.09170294       0.20618881
N        1.04244037       1.07256656      -0.57449949
O        0.28394984      -0.28817689       1.15468082
C       -0.95680256       0.23698270       1.19874293
C       -1.43443380      -0.05102670      -1.22485219
C       -1.85276705       0.56574535      -0.00434937
H        2.76201894      -0.99382082       1.14089356
H        1.98919257      -1.83705837      -0.20090739
H        3.08425248      -0.47748039      -0.53476339
H        0.23404545       1.63527344      -0.32516509
H       -1.45390571      -0.19940992       2.06195103
H       -1.17272648       0.52111916      -2.10337652
H       -1.19595916      -1.10731633      -1.23231927
H       -2.08913014       1.62906516      -0.08950333
H       -2.75559734       0.06199457       0.37936627
16
Frame=1 idx=008096 GeodesicLength=0.09885918989781088 rxn_smarts="[C:1](/[C:2](=[N:3]/[H:11])[O:4][C:5]1([H:12])[C:6]([H:13])([H:14])[C:7]1([H:15])[H:16])([H:8])([H:9])[H:10]>>[C:1]([C:2]1=[O+:4][C-:5]([H:12])[C:7]([H:15])([H:16])[C:6]([H:13])([H:14])[N:3]1[H:11])([H:8])([H:9])[H:10]"
C        2.31716889      -0.85725407       0.14021660
C        1.19294258       0.11917587       0.21965155
N        1.03512246       1.07105867      -0.59608661
O        0.30191832      -0.23335788       1.18126807
C       -0.97034210       0.21665806       1.19285317
C       -1.39494465      -0.06783032      -1.19624935
C       -1.86097881       0.56918233       0.00058069
H        2.74487879      -1.02411932       1.12955738
H        1.95615560      -1.81810173      -0.23269570
H        3.08282476      -0.47514419      -0.52929358
H        0.26570556       1.67703193      -0.32885516
H       -1.46283173      -0.25058592       2.04234924
H       -1.16644200       0.49185508      -2.09193182
H       -1.19097256      -1.13115004      -1.20073497
H       -2.07326494       1.63588902      -0.09460397
H       -2.77694015       0.07669250       0.36397446
16
Frame=2 idx=008096 GeodesicLength=0.1971951043097947 rxn_smarts="[C:1](/[C:2](=[N:3]/[H:11])[O:4][C:5]1([H:12])[C:6]([H:13])([H:14])[C:7]1([H:15])[H:16])([H:8])([H:9])[H:10]>>[C:1]([C:2]1=[O+:4][C-:5]([H:12])[C:7]([H:15])([H:16])[C:6]([H:13])([H:14])[N:3]1[H:11])([H:8])([H:9])[H:10]"
C        2.30349560      -0.85407855       0.13591765
C        1.20078167       0.14530998       0.22932534
N        1.02783009       1.06732904      -0.62002263
O        0.31861972      -0.17607259       1.20406856
C       -0.98092065       0.19436645       1.18560750
C       -1.35965575      -0.08132120      -1.16808927
C       -1.86891442       0.57237766       0.00671881
H        2.72398726      -1.04987622       1.12297573
H        1.92551936      -1.79976497      -0.25812318
H        3.08272926      -0.47472298      -0.51974611
H        0.30039337       1.71678200      -0.34054470
H       -1.46534727      -0.30822042       2.01925933
H       -1.16535969       0.46602758      -2.07950741
H       -1.18922528      -1.15046041      -1.17365494
H       -2.05749225       1.64219883      -0.09471908
H       -2.79644102       0.09012581       0.35053438
16
Frame=3 idx=008096 GeodesicLength=0.29491401109362925 rxn_smarts="[C:1](/[C:2](=[N:3]/[H:11])[O:4][C:5]1([H:12])[C:6]([H:13])([H:14])[C:7]1([H:15])[H:16])([H:8])([H:9])[H:10]>>[C:1]([C:2]1=[O+:4][C-:5]([H:12])[C:7]([H:15])([H:16])[C:6]([H:13])([H:14])[N:3]1[H:11])([H:8])([H:9])[H:10]"
C        2.29026522      -0.85065285       0.13520367
C        1.20774252       0.16987005       0.23542315
N        1.02054198       1.06089242      -0.64646064
O        0.33343289      -0.11712245       1.22245810
C       -0.98860943       0.17036250       1.17706977
C       -1.32883149      -0.09139873      -1.14081379
C       -1.87681066       0.57537110       0.01440350
H        2.69961759      -1.07116090       1.12164538
H        1.89825853      -1.78241072      -0.27764106
H        3.08421086      -0.47563078      -0.50553710
H        0.33832853       1.75410309      -0.36070938
H       -1.46093273      -0.37164877       1.99252354
H       -1.16946441       0.44426107      -2.06614303
H       -1.19109658      -1.16525318      -1.15149608
H       -2.04229188       1.64807776      -0.08964621
H       -2.81436094       0.10234038       0.33972016
16
Frame=4 idx=008096 GeodesicLength=0.39199006696673266 rxn_smarts="[C:1](/[C:2](=[N:3]/[H:11])[O:4][C:5]1([H:12])[C:6]([H:13])([H:14])[C:7]1([H:15])[H:16])([H:8])([H:9])[H:10]>>[C:1]([C:2]1=[O+:4][C-:5]([H:12])[C:7]([H:15])([H:16])[C:6]([H:13])([H:14])[N:3]1[H:11])([H:8])([H:9])[H:10]"
C        2.27783385      -0.84696449       0.13808443
C        1.21362017       0.19260343       0.23829779
N        1.01320601       1.05134265      -0.67525046
O        0.34578313      -0.05765789       1.23596966
C       -0.99361506       0.14497323       1.16731570
C       -1.30257420      -0.09809992      -1.11477509
C       -1.88491841       0.57816207       0.02388128
H        2.67219341      -1.08820235       1.12569182
H        1.87532639      -1.76628228      -0.29198020
H        3.08746890      -0.47710647      -0.48621814
H        0.37974221       1.78844298      -0.38948968
H       -1.44943711      -0.43954595       1.96219138
H       -1.17855109       0.42705918      -2.05186364
H       -1.19693912      -1.17562192      -1.13447230
H       -2.02811546       1.65354159      -0.07941453
H       -2.83102364       0.11335614       0.33203197
16
Frame=5 idx=008096 GeodesicLength=0.488553130998151 rxn_smarts="[C:1](/[C:2](=[N:3]/[H:11])[O:4][C:5]1([H:12])[C:6]([H:13])([H:14])[C:7]1([H:15])[H:16])([H:8])([H:9])[H:10]>>[C:1]([C:2]1=[O+:4][C-:5]([H:12])[C:7]([H:15])([H:16])[C:6]([H:13])([H:14])[N:3]1[H:11])([H:8])([H:9])[H:10]"
C        2.26631106      -0.84296238       0.14423684
C        1.21832349       0.21344031       0.23852161
N        1.00578149       1.03856762      -0.70583718
O        0.35526543       0.00116767       1.24448147
C       -0.99624765       0.11864158       1.15644826
C       -1.28064227      -0.10173204      -1.09015407
C       -1.89341416       0.58057741       0.03523137
H        2.64197732      -1.10167185       1.13459214
H        1.85709017      -1.75126795      -0.30234229
H        3.09249409      -0.47831043      -0.46161001
H        0.42488877       1.81924441      -0.42646830
H       -1.43114991      -0.50979066       1.92874188
H       -1.19192549       0.41458833      -2.03660663
H       -1.20665517      -1.18184160      -1.12247186
H       -2.01540143       1.65839014      -0.06443902
H       -2.84669573       0.12295947       0.32767579
16
Frame=6 idx=008096 GeodesicLength=0.5847131029225136 rxn_smarts="[C:1](/[C:2](=[N:3]/[H:11])[O:4][C:5]1([H:12])[C:6]([H:13])([H:14])[C:7]1([H:15])[H:16])([H:8])([H:9])[H:10]>>[C:1]([C:2]1=[O+:4][C-:5]([H:12])[C:7]([H:15])([H:16])[C:6]([H:13])([H:14])[N:3]1[H:11])([H:8])([H:9])[H:10]"
C        2.25580153      -0.83863583       0.15319048
C        1.22179489       0.23234084       0.23667479
N        0.99823144       1.02273894      -0.73747470
O        0.36167057       0.05818026       1.24818712
C       -0.99693750       0.09188049       1.14466784
C       -1.26260940      -0.10263848      -1.06699761
C       -1.90244646       0.58250192       0.04843552
H        2.60953189      -1.11209906       1.14755403
H        1.84383446      -1.73735489      -0.30977082
H        3.09900463      -0.47861057      -0.43206631
H        0.47386726       1.84597837      -0.47099794
H       -1.40693261      -0.58040852       1.89267048
H       -1.20872072       0.40682457      -2.02033895
H       -1.21987506      -1.18420412      -1.11503265
H       -2.00455065       1.66247493      -0.04526662
H       -2.86166427       0.13103116       0.32656537
16
Frame=7 idx=008096 GeodesicLength=0.6806577142274064 rxn_smarts="[C:1](/[C:2](=[N:3]/[H:11])[O:4][C:5]1([H:12])[C:6]([H:13])([H:14])[C:7]1([H:15])[H:16])([H:8])([H:9])[H:10]>>[C:1]([C:2]1=[O+:4][C-:5]([H:12])[C:7]([H:15])([H:16])[C:6]([H:13])([H:14])[N:3]1[H:11])([H:8])([H:9])[H:10]"
C        2.24608750      -0.83395205       0.16428589
C        1.22410430       0.24954182       0.23339138
N        0.99056350       1.00435280      -0.76931043
O        0.36505719       0.11270020       1.24759867
C       -0.99609592       0.06523395       1.13221417
C       -1.24779542      -0.10130875      -1.04516954
C       -1.91204575       0.58370307       0.06334922
H        2.57510902      -1.12025628       1.16340630
H        1.83509388      -1.72423192      -0.31538594
H        3.10647509      -0.47757708      -0.39820280
H        0.52679583       1.86823184      -0.52212189
H       -1.37781498      -0.64955060       1.85461009
H       -1.22778359       0.40342581      -2.00295745
H       -1.23576150      -1.18311682      -1.11140573
H       -1.99589060       1.66551436      -0.02265355
H       -2.87609853       0.13728965       0.32835162
16
Frame=8 idx=008096 GeodesicLength=0.776501372895068 rxn_smarts="[C:1](/[C:2](=[N:3]/[H:11])[O:4][C:5]1([H:12])[C:6]([H:13])([H:14])[C:7]1([H:15])[H:16])([H:8])([H:9])[H:10]>>[C:1]([C:2]1=[O+:4][C-:5]([H:12])[C:7]([H:15])([H:16])[C:6]([H:13])([H:14])[N:3]1[H:11])([H:8])([H:9])[H:10]"
C        2.23692175      -0.82889714       0.17690492
C        1.22535894       0.26534207       0.22919573
N        0.98278267       0.98402406      -0.80062224
O        0.36565264       0.16438393       1.24336626
C       -0.99410891       0.03916455       1.11935408
C       -1.23553035      -0.09816377      -1.02448202
C       -1.92222377       0.58400163       0.07979331
H        2.53900227      -1.12674102       1.18104312
H        1.83026128      -1.71162414      -0.31997270
H        3.11431738      -0.47503732      -0.36081911
H        0.58375421       1.88562978      -0.57890075
H       -1.34484627      -0.71596536       1.81507506
H       -1.24808566       0.40399665      -1.98441807
H       -1.25340463      -1.17896471      -1.11080189
H       -1.98969399       1.66731768       0.00271095
H       -2.89015756       0.14153311       0.33257333
16
Frame=9 idx=008096 GeodesicLength=0.8723228056386679 rxn_smarts="[C:1](/[C:2](=[N:3]/[H:11])[O:4][C:5]1([H:12])[C:6]([H:13])([H:14])[C:7]1([H:15])[H:16])([H:8])([H:9])[H:10]>>[C:1]([C:2]1=[O+:4][C-:5]([H:12])[C:7]([H:15])([H:16])[C:6]([H:13])([H:14])[N:3]1[H:11])([H:8])([H:9])[H:10]"
C        2.22795530      -0.82346744       0.19045054
C        1.22568441       0.28014102       0.22450590
N        0.97486552       0.96246684      -0.83084918
O        0.36377944       0.21329184       1.23616262
C       -0.99127620       0.01406842       1.10632951
C       -1.22517464      -0.09359950      -1.00472695
C       -1.93295607       0.58318906       0.09756422
H        2.50125444      -1.13222588       1.19943464
H        1.82851888      -1.69915977      -0.32428540
H        3.12196427      -0.47097513      -0.32065027
H        0.64491203       1.89786105      -0.64034354
H       -1.30895067      -0.77865765       1.77466306
H       -1.26872962       0.40808368      -1.96473777
H       -1.27172332      -1.17220190      -1.11248386
H       -1.98621366       1.66770656       0.03019159
H       -2.90391009       0.14347879       0.33877489
16
Frame=10 idx=008096 GeodesicLength=0.9681340219807871 rxn_smarts="[C:1](/[C:2](=[N:3]/[H:11])[O:4][C:5]1([H:12])[C:6]([H:13])([H:14])[C:7]1([H:15])[H:16])([H:8])([H:9])[H:10]>>[C:1]([C:2]1=[O+:4][C-:5]([H:12])[C:7]([H:15])([H:16])[C:6]([H:13])([H:14])[N:3]1[H:11])([H:8])([H:9])[H:10]"
C        2.21898170      -0.81763390       0.20454501
C        1.22519092       0.29425695       0.21960091
N        0.96683806       0.94030158      -0.85961953
O        0.35976756       0.25951658       1.22658714
C       -0.98784009      -0.00989508       1.09334480
C       -1.21625005      -0.08780281      -0.98571318
C       -1.94422759       0.58117661       0.11652093
H        2.46217575      -1.13687007       1.21788410
H        1.82926235      -1.68667926      -0.32849438
H        3.12891655      -0.46549919      -0.27845713
H        0.71028433       1.90443972      -0.70589792
H       -1.27087037      -0.83738074       1.73355911
H       -1.28910598       0.41541257      -1.94390881
H       -1.29009922      -1.16304569      -1.11588213
H       -1.98554347       1.66662669       0.05945275
H       -2.91748044       0.14307604       0.34647831
16
Frame=11 idx=008096 GeodesicLength=1.0640029687069807 rxn_smarts="[C:1](/[C:2](=[N:3]/[H:11])[O:4][C:5]1([H:12])[C:6]([H:13])([H:14])[C:7]1([H:15])[H:16])([H:8])([H:9])[H:10]>>[C:1]([C:2]1=[O+:4][C-:5]([H:12])[C:7]([H:15])([H:16])[C:6]([H:13])([H:14])[N:3]1[H:11])([H:8])([H:9])[H:10]"
C        2.20980274      -0.81132129       0.21888174
C        1.22397538       0.30799340       0.21466427
N        0.95871540       0.91803682      -0.88669829
O        0.35391330       0.30331222       1.21510148
C       -0.98397078      -0.03264398       1.08051442
C       -1.20838837      -0.08090000      -0.96724784
C       -1.95600902       0.57786648       0.13655067
H        2.42183152      -1.14085583       1.23580692
H        1.83197063      -1.67388104      -0.33280837
H        3.13484392      -0.45867054      -0.23471817
H        0.77995129       1.90468317      -0.77510095
H       -1.23115571      -0.89198645       1.69190608
H       -1.30880230       0.42575378      -1.92188588
H       -1.30802253      -1.15166123      -1.12055816
H       -1.98772158       1.66399829       0.09027606
H       -2.93093390       0.14027620       0.35531601
16
Frame=12 idx=008096 GeodesicLength=1.1599361084000106 rxn_smarts="[C:1](/[C:2](=[N:3]/[H:11])[O:4][C:5]1([H:12])[C:6]([H:13])([H:14])[C:7]1([H:15])[H:16])([H:8])([H:9])[H:10]>>[C:1]([C:2]1=[O+:4][C-:5]([H:12])[C:7]([H:15])([H:16])[C:6]([H:13])([H:14])[N:3]1[H:11])([H:8])([H:9])[H:10]"
C        2.20029805      -0.80445551       0.23326108
C        1.22210958       0.32164527       0.20982787
N        0.95046479       0.89616723      -0.91198416
O        0.34647430       0.34497182       1.20211768
C       -0.97977402      -0.05417866       1.06792862
C       -1.20134268      -0.07294847      -0.94921782
C       -1.96827345       0.57319991       0.15756673
H        2.38032899      -1.14429859       1.25282997
H        1.83627287      -1.66053684      -0.33734609
H        3.13951672      -0.45054283      -0.18978764
H        0.85395112       1.89781749      -0.84761116
H       -1.19021148      -0.94251525       1.64981429
H       -1.32761812       0.43898493      -1.89870560
H       -1.32515386      -1.13819960      -1.12626517
H       -1.99272942       1.65981768       0.12257500
H       -2.94431338       0.13507141       0.36499638
16
Frame=13 idx=008096 GeodesicLength=1.2558620168391446 rxn_smarts="[C:1](/[C:2](=[N:3]/[H:11])[O:4][C:5]1([H:12])[C:6]([H:13])([H:14])[C:7]1([H:15])[H:16])([H:8])([H:9])[H:10]>>[C:1]([C:2]1=[O+:4][C-:5]([H:12])[C:7]([H:15])([H:16])[C:6]([H:13])([H:14])[N:3]1[H:11])([H:8])([H:9])[H:10]"
C        2.19029466      -0.79696215       0.24750923
C        1.21964881       0.33559238       0.20523467
N        0.94203006       0.87537952      -0.93541709
O        0.33766591       0.38483490       1.18807810
C       -0.97531331      -0.07455965       1.05568342
C       -1.19489082      -0.06399959      -0.93158854
C       -1.98096327       0.56708670       0.17946619
H        2.33796902      -1.14714165       1.26873437
H        1.84151489      -1.64653127      -0.34204705
H        3.14260569      -0.44127071      -0.14430628
H        0.93243698       1.88312417      -0.92294251
H       -1.14844229      -0.98911753       1.60744999
H       -1.34538522       0.45500364      -1.87451846
H       -1.34108913      -1.12289704      -1.13285656
H       -2.00044982       1.65408055       0.15629071
H       -2.95763216       0.12737772       0.37522982
16
Frame=14 idx=008096 GeodesicLength=1.3518423512524596 rxn_smarts="[C:1](/[C:2](=[N:3]/[H:11])[O:4][C:5]1([H:12])[C:6]([H:13])([H:14])[C:7]1([H:15])[H:16])([H:8])([H:9])[H:10]>>[C:1]([C:2]1=[O+:4][C-:5]([H:12])[C:7]([H:15])([H:16])[C:6]([H:13])([H:14])[N:3]1[H:11])([H:8])([H:9])[H:10]"
C        2.17976616      -0.78866742       0.26148355
C        1.21665304       0.35006052       0.20097243
N        0.93346539       0.85606638      -0.95689868
O        0.32762926       0.42305471       1.17323930
C       -0.97064300      -0.09386256       1.04377549
C       -1.18884491      -0.05402868      -0.91421145
C       -1.99400353       0.55951611       0.20220216
H        2.29463161      -1.14946519       1.28317668
H        1.84767210      -1.63144257      -0.34715770
H        3.14411769      -0.43070667      -0.09825059
H        1.01505043       1.85920221      -1.00098011
H       -1.10612303      -1.03188629       1.56479318
H       -1.36198084       0.47373172      -1.84918959
H       -1.35579586      -1.10566873      -1.14019824
H       -2.01070703       1.64674408       0.19146061
H       -2.97088749       0.11735240       0.38578297
16
Frame=15 idx=008096 GeodesicLength=1.448023600145176 rxn_smarts="[C:1](/[C:2](=[N:3]/[H:11])[O:4][C:5]1([H:12])[C:6]([H:13])([H:14])[C:7]1([H:15])[H:16])([H:8])([H:9])[H:10]>>[C:1]([C:2]1=[O+:4][C-:5]([H:12])[C:7]([H:15])([H:16])[C:6]([H:13])([H:14])[N:3]1[H:11])([H:8])([H:9])[H:10]"
C        2.16865809      -0.77939053       0.27505500
C        1.21316569       0.36534843       0.19714337
N        0.92476455       0.83875685      -0.97629589
O        0.31647614       0.45983721       1.15782797
C       -0.96577064      -0.11214421       1.03213723
C       -1.18302244      -0.04299410      -0.89696275
C       -2.00729052       0.55045510       0.22567987
H        2.25033796      -1.15126730       1.29583951
H        1.85454574      -1.61483912      -0.35281824
H        3.14397824      -0.41882033      -0.05174727
H        1.10136850       1.82448931      -1.08134149
H       -1.06346123      -1.07091142       1.52173628
H       -1.37733723       0.49510467      -1.82259059
H       -1.36911675      -1.08645304      -1.14815731
H       -2.02327728       1.63770689       0.22809234
H       -2.98401882       0.10512161       0.39640198
16
Frame=16 idx=008096 GeodesicLength=1.5446276293683683 rxn_smarts="[C:1](/[C:2](=[N:3]/[H:11])[O:4][C:5]1([H:12])[C:6]([H:13])([H:14])[C:7]1([H:15])[H:16])([H:8])([H:9])[H:10]>>[C:1]([C:2]1=[O+:4][C-:5]([H:12])[C:7]([H:15])([H:16])[C:6]([H:13])([H:14])[N:3]1[H:11])([H:8])([H:9])[H:10]"
C        2.15702339      -0.76890527       0.28819208
C        1.20922402       0.38174214       0.19380073
N        0.91589082       0.82390649      -0.99360594
O        0.30431544       0.49538496       1.14204576
C       -0.96064129      -0.12947759       1.02070997
C       -1.17735121      -0.03077711      -0.87975749
C       -2.02071607       0.53992375       0.24987540
H        2.20473342      -1.15288000       1.30643185
H        1.86251465      -1.59612868      -0.35951163
H        3.14229341      -0.40525393      -0.00424746
H        1.19076513       1.77689184      -1.16404304
H       -1.02050547      -1.10636304       1.47816124
H       -1.39156621       0.51922791      -1.79458611
H       -1.38110949      -1.06508341      -1.15675219
H       -2.03792634       1.62694622       0.26633208
H       -2.99694421       0.09084573       0.40695474
