15
Frame=0 idx=009278 GeodesicLength=0.0 rxn_smarts="[C:1]([C:2]([C:3]([H:12])([H:13])[H:14])([C:4](=[O:5])[C:6]#[C:7][H:15])[H:11])([H:8])([H:9])[H:10]>>[C:1]([C:2]([C:3]([H:12])([H:13])[H:14])([C-:4]=[O+:5][C:6]#[C:7][H:15])[H:11])([H:8])([H:9])[H:10]"
C       -1.43239679       0.59964050      -1.09329885
C       -0.35495873      -0.20876462      -0.35519335
C       -0.95037710      -1.29850733       0.52529001
C        0.44040746       0.76480403       0.45222496
O        1.29695763       1.50115153      -0.32794740
C        2.05872634       0.91644165       0.65962508
C        3.10894750       0.52795845       1.13571984
H       -2.08948521       1.10822327      -0.38471694
H       -2.04162445      -0.07169834      -1.69925715
H       -0.98937229       1.34783612      -1.75135555
H        0.31901995      -0.64633792      -1.10532903
H       -1.61490636      -0.86605968       1.27578177
H       -1.52683040      -2.00489560      -0.07496285
H       -0.16922683      -1.85181396       1.04838893
H        3.94511924       0.18202194       1.69503058
15
Frame=1 idx=009278 GeodesicLength=0.06987381885106259 rxn_smarts="[C:1]([C:2]([C:3]([H:12])([H:13])[H:14])([C:4](=[O:5])[C:6]#[C:7][H:15])[H:11])([H:8])([H:9])[H:10]>>[C:1]([C:2]([C:3]([H:12])([H:13])[H:14])([C-:4]=[O+:5][C:6]#[C:7][H:15])[H:11])([H:8])([H:9])[H:10]"
C       -1.42561855       0.59789980      -1.10157401
C       -0.35835203      -0.21419136      -0.35498267
C       -0.96113567      -1.30129397       0.52370130
C        0.44130226       0.74951665       0.46007250
O        1.27170301       1.51647122      -0.30550455
C        2.06584493       0.90962109       0.66692465
C        3.12425406       0.53596957       1.13341235
H       -2.08122664       1.11557137      -0.39828782
H       -2.03674473      -0.07025233      -1.70926356
H       -0.97614489       1.33918103      -1.76306799
H        0.31903147      -0.65724696      -1.09898104
H       -1.58623725      -0.86926603       1.30750376
H       -1.58518873      -1.97917725      -0.06155487
H       -0.18198557      -1.89344540       1.00575154
H        3.97049835       0.22064256       1.69585041
15
Frame=2 idx=009278 GeodesicLength=0.13978178810193329 rxn_smarts="[C:1]([C:2]([C:3]([H:12])([H:13])[H:14])([C:4](=[O:5])[C:6]#[C:7][H:15])[H:11])([H:8])([H:9])[H:10]>>[C:1]([C:2]([C:3]([H:12])([H:13])[H:14])([C-:4]=[O+:5][C:6]#[C:7][H:15])[H:11])([H:8])([H:9])[H:10]"
C       -1.41849887       0.59607142      -1.10991250
C       -0.36176007      -0.21981798      -0.35472020
C       -0.97227679      -1.30402354       0.52202310
C        0.44237448       0.73367556       0.46790395
O        1.24596964       1.53094276      -0.28174924
C        2.07316909       0.90223753       0.67412326
C        3.13933638       0.54447051       1.13199269
H       -2.07247115       1.12291388      -0.41208966
H       -2.03156884      -0.06880500      -1.71929804
H       -0.96222972       1.33020506      -1.77460581
H        0.31884596      -0.66853142      -1.09246135
H       -1.55617458      -0.87470444       1.33828035
H       -1.64301627      -1.95102062      -0.04616905
H       -0.19815596      -1.93466503       0.96159110
H        3.99645671       0.26105131       1.69509139
15
Frame=3 idx=009278 GeodesicLength=0.2097044163103367 rxn_smarts="[C:1]([C:2]([C:3]([H:12])([H:13])[H:14])([C:4](=[O:5])[C:6]#[C:7][H:15])[H:11])([H:8])([H:9])[H:10]>>[C:1]([C:2]([C:3]([H:12])([H:13])[H:14])([C-:4]=[O+:5][C:6]#[C:7][H:15])[H:11])([H:8])([H:9])[H:10]"
C       -1.41108072       0.59417002      -1.11833411
C       -0.36507887      -0.22556636      -0.35446870
C       -0.98354915      -1.30673373       0.52042554
C        0.44368961       0.71758992       0.47557609
O        1.21969065       1.54496056      -0.25698262
C        2.08079806       0.89476972       0.68083034
C        3.15426796       0.55399021       1.13118076
H       -2.06329569       1.13026390      -0.42601067
H       -2.02611627      -0.06751716      -1.72931788
H       -0.94778194       1.32105932      -1.78609220
H        0.31856075      -0.68013802      -1.08598011
H       -1.52453434      -0.88250720       1.36825458
H       -1.69977999      -1.92066960      -0.02853171
H       -0.21753754      -1.97534694       0.91608540
H        4.02174747       0.30167535       1.69336529
15
Frame=4 idx=009278 GeodesicLength=0.2795253971450089 rxn_smarts="[C:1]([C:2]([C:3]([H:12])([H:13])[H:14])([C:4](=[O:5])[C:6]#[C:7][H:15])[H:11])([H:8])([H:9])[H:10]>>[C:1]([C:2]([C:3]([H:12])([H:13])[H:14])([C-:4]=[O+:5][C:6]#[C:7][H:15])[H:11])([H:8])([H:9])[H:10]"
C       -1.40344663       0.59213975      -1.12670273
C       -0.36827849      -0.23142635      -0.35430356
C       -0.99483589      -1.30931719       0.51883867
C        0.44543277       0.70120024       0.48287070
O        1.19287960       1.55843190      -0.23135901
C        2.08897001       0.88716418       0.68651188
C        3.16922963       0.56452073       1.13056305
H       -2.05367724       1.13750765      -0.43987743
H       -2.02059031      -0.06640469      -1.73906613
H       -0.93297038       1.31167308      -1.79734771
H        0.31807287      -0.69202845      -1.07965197
H       -1.49110533      -0.89269907       1.39717755
H       -1.75521422      -1.88804136      -0.00855131
H       -0.24014405      -2.01515840       0.86912235
H        4.04567766       0.34243797       1.69177566
15
Frame=5 idx=009278 GeodesicLength=0.3493861475303857 rxn_smarts="[C:1]([C:2]([C:3]([H:12])([H:13])[H:14])([C:4](=[O:5])[C:6]#[C:7][H:15])[H:11])([H:8])([H:9])[H:10]>>[C:1]([C:2]([C:3]([H:12])([H:13])[H:14])([C-:4]=[O+:5][C:6]#[C:7][H:15])[H:11])([H:8])([H:9])[H:10]"
C       -1.39550529       0.59008710      -1.13515039
C       -0.37144919      -0.23748130      -0.35415002
C       -1.00634780      -1.31187821       0.51727355
C        0.44744223       0.68435700       0.48999575
O        1.16558744       1.57092732      -0.20462909
C        2.09745781       0.87907010       0.69172195
C        3.18390654       0.57541660       1.13063674
H       -2.04354105       1.14485316      -0.45388890
H       -2.01486661      -0.06528699      -1.74878086
H       -0.91756502       1.30211088      -1.80847459
H        0.31731606      -0.70439293      -1.07334687
H       -1.45608244      -0.90562783       1.42500179
H       -1.80941931      -1.85286862       0.01369801
H       -0.26640310      -2.05423039       0.82077525
H        4.06946972       0.38494410       1.68931767
15
Frame=6 idx=009278 GeodesicLength=0.4192774916672333 rxn_smarts="[C:1]([C:2]([C:3]([H:12])([H:13])[H:14])([C:4](=[O:5])[C:6]#[C:7][H:15])[H:11])([H:8])([H:9])[H:10]>>[C:1]([C:2]([C:3]([H:12])([H:13])[H:14])([C-:4]=[O+:5][C:6]#[C:7][H:15])[H:11])([H:8])([H:9])[H:10]"
C       -1.38730079       0.58777625      -1.14379448
C       -0.37442474      -0.24354935      -0.35392877
C       -1.01782131      -1.31423594       0.51589258
C        0.44955407       0.66757784       0.49706478
O        1.13742445       1.58312284      -0.17660240
C        2.10613030       0.87159138       0.69664661
C        3.19831302       0.58749868       1.13110120
H       -2.03328643       1.15193189      -0.46827147
H       -2.00873982      -0.06466904      -1.75860538
H       -0.90168513       1.29223667      -1.81955394
H        0.31675591      -0.71696647      -1.06686661
H       -1.41964285      -0.92117401       1.45156526
H       -1.86165606      -1.81542061       0.03836687
H       -0.29600227      -2.09192726       0.77140988
H        4.09238165       0.42620715       1.68557588
15
Frame=7 idx=009278 GeodesicLength=0.4884660216792055 rxn_smarts="[C:1]([C:2]([C:3]([H:12])([H:13])[H:14])([C:4](=[O:5])[C:6]#[C:7][H:15])[H:11])([H:8])([H:9])[H:10]>>[C:1]([C:2]([C:3]([H:12])([H:13])[H:14])([C-:4]=[O+:5][C:6]#[C:7][H:15])[H:11])([H:8])([H:9])[H:10]"
C       -1.37870154       0.58522748      -1.15229748
C       -0.37719983      -0.24963672      -0.35374201
C       -1.02915104      -1.31640176       0.51459821
C        0.45199834       0.65077338       0.50360057
O        1.10858950       1.59473544      -0.14780584
C        2.11508082       0.86451444       0.70034392
C        3.21232173       0.60079777       1.13139113
H       -2.02242543       1.15864826      -0.48264153
H       -2.00226756      -0.06443910      -1.76791777
H       -0.88530586       1.28213128      -1.83019934
H        0.31600297      -0.72969407      -1.06036015
H       -1.38151251      -0.93955819       1.47639344
H       -1.91153802      -1.77572068       0.06560216
H       -0.32919990      -2.12793191       0.72104400
H        4.11330833       0.46655440       1.68199069
15
Frame=8 idx=009278 GeodesicLength=0.5577005943931787 rxn_smarts="[C:1]([C:2]([C:3]([H:12])([H:13])[H:14])([C:4](=[O:5])[C:6]#[C:7][H:15])[H:11])([H:8])([H:9])[H:10]>>[C:1]([C:2]([C:3]([H:12])([H:13])[H:14])([C-:4]=[O+:5][C:6]#[C:7][H:15])[H:11])([H:8])([H:9])[H:10]"
C       -1.36984923       0.58254155      -1.16084045
C       -0.37985836      -0.25592487      -0.35360402
C       -1.04062321      -1.31846161       0.51336917
C        0.45482917       0.63360944       0.50989427
O        1.07915517       1.60536091      -0.11783817
C        2.12455113       0.85732359       0.70320980
C        3.22625805       0.61450034       1.13178735
H       -2.01118729       1.16527761      -0.49709512
H       -1.99568518      -0.06438739      -1.77713037
H       -0.86842132       1.27183155      -1.84057596
H        0.31505543      -0.74295698      -1.05391892
H       -1.34186109      -0.96094293       1.49949228
H       -1.95939932      -1.73350281       0.09537476
H       -0.36647502      -2.16243916       0.66950153
H        4.13351105       0.50817076       1.67837386
15
Frame=9 idx=009278 GeodesicLength=0.6268021954638241 rxn_smarts="[C:1]([C:2]([C:3]([H:12])([H:13])[H:14])([C:4](=[O:5])[C:6]#[C:7][H:15])[H:11])([H:8])([H:9])[H:10]>>[C:1]([C:2]([C:3]([H:12])([H:13])[H:14])([C-:4]=[O+:5][C:6]#[C:7][H:15])[H:11])([H:8])([H:9])[H:10]"
C       -1.36057106       0.57946259      -1.16964314
C       -0.38223134      -0.26218726      -0.35328985
C       -1.05198985      -1.32026304       0.51239273
C        0.45754872       0.61673421       0.51628815
O        1.04849215       1.61562242      -0.08627292
C        2.13380092       0.85141928       0.70627201
C        3.23966603       0.62927345       1.13197746
H       -1.99986773       1.17140291      -0.51217860
H       -1.98835417      -0.06507461      -1.78653947
H       -0.85084981       1.26117276      -1.85080628
H        0.31451920      -0.75638525      -1.04696661
H       -1.30097222      -0.98534348       1.52074060
H       -2.00453417      -1.68890172       0.12777463
H       -0.40750266      -2.19485819       0.61718480
H        4.15284600       0.54792593       1.67306649
15
Frame=10 idx=009278 GeodesicLength=0.6957687617051851 rxn_smarts="[C:1]([C:2]([C:3]([H:12])([H:13])[H:14])([C:4](=[O:5])[C:6]#[C:7][H:15])[H:11])([H:8])([H:9])[H:10]>>[C:1]([C:2]([C:3]([H:12])([H:13])[H:14])([C-:4]=[O+:5][C:6]#[C:7][H:15])[H:11])([H:8])([H:9])[H:10]"
C       -1.35089365       0.57614939      -1.17854273
C       -0.38441497      -0.26862895      -0.35295392
C       -1.06344394      -1.32194093       0.51154273
C        0.46045358       0.59970424       0.52255053
O        1.01700724       1.62484776      -0.05338388
C        2.14321507       0.84588569       0.70890081
C        3.25273473       0.64463283       1.13214125
H       -1.98817916       1.17728370      -0.52753597
H       -1.98061338      -0.06613625      -1.79591877
H       -0.83259701       1.25030550      -1.86071573
H        0.31395528      -0.77034890      -1.03984091
H       -1.25876782      -1.01305686       1.53982044
H       -2.04700975      -1.64170228       0.16287455
H       -0.45291493      -2.22526096       0.56396373
H        4.17146872       0.58826601       1.66709787
15
Frame=11 idx=009278 GeodesicLength=0.764631276851995 rxn_smarts="[C:1]([C:2]([C:3]([H:12])([H:13])[H:14])([C:4](=[O:5])[C:6]#[C:7][H:15])[H:11])([H:8])([H:9])[H:10]>>[C:1]([C:2]([C:3]([H:12])([H:13])[H:14])([C-:4]=[O+:5][C:6]#[C:7][H:15])[H:11])([H:8])([H:9])[H:10]"
C       -1.34084522       0.57249507      -1.18760978
C       -0.38632352      -0.27516454      -0.35256873
C       -1.07479898      -1.32343186       0.51090932
C        0.46343024       0.58280900       0.52873097
O        0.98444057       1.63324727      -0.01915844
C        2.15261227       0.84134381       0.71129646
C        3.26548122       0.66095027       1.13185588
H       -1.97631152       1.18273691      -0.54330330
H       -1.97236961      -0.06781212      -1.80533944
H       -0.81375381       1.23919503      -1.87036028
H        0.31356883      -0.78472994      -1.03242266
H       -1.21532896      -1.04413261       1.55648734
H       -2.08623947      -1.59205342       0.20085063
H       -0.50258751      -2.25313633       0.51006797
H        4.18902547       0.62768346       1.66056407
15
Frame=12 idx=009278 GeodesicLength=0.833361791137486 rxn_smarts="[C:1]([C:2]([C:3]([H:12])([H:13])[H:14])([C:4](=[O:5])[C:6]#[C:7][H:15])[H:11])([H:8])([H:9])[H:10]>>[C:1]([C:2]([C:3]([H:12])([H:13])[H:14])([C-:4]=[O+:5][C:6]#[C:7][H:15])[H:11])([H:8])([H:9])[H:10]"
C       -1.33040446       0.56838338      -1.19682674
C       -0.38790602      -0.28176030      -0.35210506
C       -1.08602983      -1.32466647       0.51047896
C        0.46637867       0.56615160       0.53489510
O        0.95061059       1.64077552       0.01650505
C        2.16184782       0.83812002       0.71365748
C        3.27795739       0.67840808       1.13078230
H       -1.96439353       1.18751499      -0.55952905
H       -1.96350668      -0.07024693      -1.81480813
H       -0.79428839       1.22778475      -1.87962396
H        0.31351120      -0.79943511      -1.02457305
H       -1.17101503      -1.07854621       1.57030080
H       -2.12176584      -1.54012819       0.24166585
H       -0.55656726      -2.27789866       0.45577763
H        4.20557137       0.66554351       1.65340281
15
Frame=13 idx=009278 GeodesicLength=0.9019827146005603 rxn_smarts="[C:1]([C:2]([C:3]([H:12])([H:13])[H:14])([C:4](=[O:5])[C:6]#[C:7][H:15])[H:11])([H:8])([H:9])[H:10]>>[C:1]([C:2]([C:3]([H:12])([H:13])[H:14])([C-:4]=[O+:5][C:6]#[C:7][H:15])[H:11])([H:8])([H:9])[H:10]"
C       -1.31967682       0.56401980      -1.20612626
C       -0.38922399      -0.28858461      -0.35174224
C       -1.09710799      -1.32581322       0.51023559
C        0.46957637       0.54950871       0.54078097
O        0.91586814       1.64705036       0.05319365
C        2.17121332       0.83559327       0.71535263
C        3.29020593       0.69684604       1.12912525
H       -1.95219649       1.19200560      -0.57592805
H       -1.95439949      -0.07315466      -1.82419506
H       -0.77443418       1.21632558      -1.88852225
H        0.31333735      -0.81488730      -1.01666928
H       -1.12580193      -1.11643180       1.58095116
H       -2.15317628      -1.48604877       0.28547005
H       -0.61503516      -2.29948799       0.40138365
H        4.22085121       0.70305900       1.64669021
15
Frame=14 idx=009278 GeodesicLength=0.9694925204805283 rxn_smarts="[C:1]([C:2]([C:3]([H:12])([H:13])[H:14])([C:4](=[O:5])[C:6]#[C:7][H:15])[H:11])([H:8])([H:9])[H:10]>>[C:1]([C:2]([C:3]([H:12])([H:13])[H:14])([C-:4]=[O+:5][C:6]#[C:7][H:15])[H:11])([H:8])([H:9])[H:10]"
C       -1.30764644       0.55926181      -1.21500667
C       -0.39027660      -0.29564351      -0.35076892
C       -1.10911248      -1.32678264       0.50980846
C        0.47225853       0.53227577       0.54781243
O        0.87928952       1.65163986       0.09360112
C        2.17972961       0.83382736       0.71838551
C        3.30224948       0.71543692       1.12553402
H       -1.93935356       1.19535572      -0.59251277
H       -1.94340824      -0.07617712      -1.83367427
H       -0.75238822       1.20492374      -1.89552211
H        0.31358104      -0.83063444      -1.00730116
H       -1.08592136      -1.15552250       1.58716250
H       -2.18006661      -1.43302110       0.32761213
H       -0.67638157      -2.31638264       0.35050582
H        4.23744690       0.74144279       1.63436390
15
Frame=15 idx=009278 GeodesicLength=1.0374435271224731 rxn_smarts="[C:1]([C:2]([C:3]([H:12])([H:13])[H:14])([C:4](=[O:5])[C:6]#[C:7][H:15])[H:11])([H:8])([H:9])[H:10]>>[C:1]([C:2]([C:3]([H:12])([H:13])[H:14])([C-:4]=[O+:5][C:6]#[C:7][H:15])[H:11])([H:8])([H:9])[H:10]"
C       -1.29600245       0.55405297      -1.22410970
C       -0.39090428      -0.30283367      -0.35046857
C       -1.11999219      -1.32748994       0.50980070
C        0.47568770       0.51568363       0.55320540
O        0.84245287       1.65474415       0.13251045
C        2.18886805       0.83329020       0.71906129
C        3.31379528       0.73655312       1.12168317
H       -1.92663609       1.19830914      -0.60910278
H       -1.93315090      -0.08019832      -1.84258486
H       -0.73125580       1.19318873      -1.90292850
H        0.31354406      -0.84711730      -0.99879296
H       -1.04093048      -1.19950029       1.59046958
H       -2.20228984      -1.37568402       0.37637329
H       -0.74313952      -2.32988387       0.29711327
H        4.24995358       0.77688546       1.62777022
15
Frame=16 idx=009278 GeodesicLength=1.1054814977427987 rxn_smarts="[C:1]([C:2]([C:3]([H:12])([H:13])[H:14])([C:4](=[O:5])[C:6]#[C:7][H:15])[H:11])([H:8])([H:9])[H:10]>>[C:1]([C:2]([C:3]([H:12])([H:13])[H:14])([C-:4]=[O+:5][C:6]#[C:7][H:15])[H:11])([H:8])([H:9])[H:10]"
C       -1.28402124       0.54857996      -1.23313951
C       -0.39126725      -0.31038439      -0.35028680
C       -1.13098240      -1.32808867       0.50983282
C        0.47930227       0.49879443       0.55848607
O        0.80475432       1.65575195       0.17272785
C        2.19808225       0.83312971       0.71936016
C        3.32514236       0.75855187       1.11729168
H       -1.91378034       1.20069991      -0.62562964
H       -1.92251880      -0.08446396      -1.85151173
H       -0.70957907       1.18154850      -1.90955787
H        0.31339167      -0.86448376      -0.99017537
H       -0.99736235      -1.24617096       1.58956697
H       -2.21937426      -1.31751401       0.42699694
H       -0.81381125      -2.33878981       0.24521950
H        4.26202408       0.81283922       1.62081892
