12
Frame=0 idx=011026 GeodesicLength=0.0 rxn_smarts="[C:1](#[C:2][C@:3]1([H:9])[N:4]([H:10])[C@@:5]1([C:6]#[C:7][H:12])[H:11])[H:8]>>[C:1]1([H:8])=[C:2]=[C:3]([H:9])[N:4]([H:10])[C+:5]([H:11])[C:6]1=[C-:7][H:12]"
C        0.79557773       1.37623860      -0.18025884
C        1.51841047       0.40908329      -0.67479684
C        1.00035363      -0.86598779      -0.84382176
N        0.40865672      -1.52815202       0.30348551
C       -0.63667961      -0.68952012      -0.22498986
C       -0.62154293       0.74632583       0.10034630
C       -1.60628699       0.87622166       0.88075000
H        1.04148201       2.33422558       0.24990036
H        1.10812530      -1.47154522      -1.73409456
H        0.78825743      -1.16632667       1.17109349
H       -1.48642218      -1.17146108      -0.68599283
H       -2.30993162       1.15089799       1.63837903
12
Frame=1 idx=011026 GeodesicLength=0.08774019162808343 rxn_smarts="[C:1](#[C:2][C@:3]1([H:9])[N:4]([H:10])[C@@:5]1([C:6]#[C:7][H:12])[H:11])[H:8]>>[C:1]1([H:8])=[C:2]=[C:3]([H:9])[N:4]([H:10])[C+:5]([H:11])[C:6]1=[C-:7][H:12]"
C        0.79880111       1.38037312      -0.17237704
C        1.51563327       0.41575113      -0.67525634
C        1.00469726      -0.86127693      -0.85330348
N        0.41998251      -1.53684824       0.28698864
C       -0.63483682      -0.70309172      -0.21957774
C       -0.63699509       0.72790308       0.11522396
C       -1.62107384       0.86682848       0.89731880
H        1.04353431       2.34109678       0.25179482
H        1.12316135      -1.46057394      -1.74636725
H        0.79986317      -1.20025847       1.16382982
H       -1.48698986      -1.19243272      -0.66860089
H       -2.32577737       1.22252943       1.62032670
12
Frame=2 idx=011026 GeodesicLength=0.17502431183506795 rxn_smarts="[C:1](#[C:2][C@:3]1([H:9])[N:4]([H:10])[C@@:5]1([C:6]#[C:7][H:12])[H:11])[H:8]>>[C:1]1([H:8])=[C:2]=[C:3]([H:9])[N:4]([H:10])[C+:5]([H:11])[C:6]1=[C-:7][H:12]"
C        0.80587714       1.38444863      -0.16269131
C        1.51285731       0.42204557      -0.67837079
C        1.00643106      -0.85581244      -0.86528493
N        0.43351139      -1.54588317       0.26952612
C       -0.63192566      -0.71524864      -0.20850833
C       -0.64814659       0.70990687       0.13881125
C       -1.62608098       0.85834613       0.92924806
H        1.05172355       2.34877063       0.25199444
H        1.13057141      -1.44738151      -1.76263758
H        0.81841456      -1.23721756       1.15367075
H       -1.48937514      -1.21033747      -0.64125137
H       -2.36385806       1.28836295       1.57549368
12
Frame=3 idx=011026 GeodesicLength=0.26241256056177115 rxn_smarts="[C:1](#[C:2][C@:3]1([H:9])[N:4]([H:10])[C@@:5]1([C:6]#[C:7][H:12])[H:11])[H:8]>>[C:1]1([H:8])=[C:2]=[C:3]([H:9])[N:4]([H:10])[C+:5]([H:11])[C:6]1=[C-:7][H:12]"
C        0.80998465       1.38928317      -0.15336157
C        1.50862466       0.42926845      -0.67959382
C        1.00836490      -0.84995088      -0.87546411
N        0.44528612      -1.55389284       0.25297525
C       -0.63017078      -0.72853271      -0.19983132
C       -0.66286489       0.69067132       0.15895573
C       -1.63857928       0.84969483       0.95286524
H        1.05562281       2.35622618       0.25473779
H        1.14140740      -1.43443315      -1.77609349
H        0.83333394      -1.27287929       1.14418675
H       -1.49081812      -1.23112484      -0.61774214
H       -2.38019142       1.35566975       1.53836568
12
Frame=4 idx=011026 GeodesicLength=0.3491633649038537 rxn_smarts="[C:1](#[C:2][C@:3]1([H:9])[N:4]([H:10])[C@@:5]1([C:6]#[C:7][H:12])[H:11])[H:8]>>[C:1]1([H:8])=[C:2]=[C:3]([H:9])[N:4]([H:10])[C+:5]([H:11])[C:6]1=[C-:7][H:12]"
C        0.81888239       1.39461857      -0.14362829
C        1.50526974       0.43551460      -0.68237459
C        1.00772723      -0.84373489      -0.88644435
N        0.45627585      -1.56068482       0.23675949
C       -0.62837264      -0.73861583      -0.18737754
C       -0.67363982       0.67410767       0.18417700
C       -1.64343309       0.84670632       0.98527258
H        1.06680143       2.36489282       0.25445537
H        1.14604745      -1.42104742      -1.79081692
H        0.85065446      -1.30929379       1.13328812
H       -1.49442111      -1.24690093      -0.58729000
H       -2.41179189       1.40443771       1.48397912
12
Frame=5 idx=011026 GeodesicLength=0.4360241339544538 rxn_smarts="[C:1](#[C:2][C@:3]1([H:9])[N:4]([H:10])[C@@:5]1([C:6]#[C:7][H:12])[H:11])[H:8]>>[C:1]1([H:8])=[C:2]=[C:3]([H:9])[N:4]([H:10])[C+:5]([H:11])[C:6]1=[C-:7][H:12]"
C        0.82360040       1.40089566      -0.13631234
C        1.50116526       0.44240644      -0.68224862
C        1.00928632      -0.83800780      -0.89406845
N        0.46447316      -1.56586209       0.22258938
C       -0.62805169      -0.75029397      -0.18083140
C       -0.69019675       0.65646001       0.19998166
C       -1.66103958       0.84423292       0.99921972
H        1.07139326       2.37379071       0.25481815
H        1.15895147      -1.41010890      -1.79987233
H        0.86040422      -1.34218671       1.12501891
H       -1.49584040      -1.26714170      -0.56621975
H       -2.41414567       1.45581544       1.45792507
12
Frame=6 idx=011026 GeodesicLength=0.5227776043381988 rxn_smarts="[C:1](#[C:2][C@:3]1([H:9])[N:4]([H:10])[C@@:5]1([C:6]#[C:7][H:12])[H:11])[H:8]>>[C:1]1([H:8])=[C:2]=[C:3]([H:9])[N:4]([H:10])[C+:5]([H:11])[C:6]1=[C-:7][H:12]"
C        0.83149101       1.40742608      -0.12788347
C        1.49729151       0.44892934      -0.68321152
C        1.00885577      -0.83172757      -0.90274610
N        0.47272963      -1.57066656       0.20806193
C       -0.62752413      -0.76039537      -0.17120221
C       -0.70405305       0.63973142       0.22064244
C       -1.67394728       0.84479818       1.01965565
H        1.08080947       2.38319534       0.25441106
H        1.16734686      -1.39803118      -1.81062316
H        0.87279329      -1.37682432       1.11482567
H       -1.49841027      -1.28473439      -0.53962880
H       -2.42738282       1.49829903       1.41769851
12
Frame=7 idx=011026 GeodesicLength=0.6096240348499764 rxn_smarts="[C:1](#[C:2][C@:3]1([H:9])[N:4]([H:10])[C@@:5]1([C:6]#[C:7][H:12])[H:11])[H:8]>>[C:1]1([H:8])=[C:2]=[C:3]([H:9])[N:4]([H:10])[C+:5]([H:11])[C:6]1=[C-:7][H:12]"
C        0.83877951       1.41440299      -0.11972797
C        1.49290088       0.45575177      -0.68366063
C        1.00845072      -0.82531135      -0.91074244
N        0.48039608      -1.57482941       0.19407688
C       -0.62735539      -0.77095199      -0.16244095
C       -0.71931391       0.62233597       0.23998515
C       -1.69042155       0.84614305       1.03538128
H        1.08925745       2.39285243       0.25425163
H        1.17718066      -1.38621458      -1.82006763
H        0.88393869      -1.41112065       1.10450212
H       -1.50028455      -1.30376756      -0.51406252
H       -2.43352857       1.54070932       1.38250506
12
Frame=8 idx=011026 GeodesicLength=0.6965382790101445 rxn_smarts="[C:1](#[C:2][C@:3]1([H:9])[N:4]([H:10])[C@@:5]1([C:6]#[C:7][H:12])[H:11])[H:8]>>[C:1]1([H:8])=[C:2]=[C:3]([H:9])[N:4]([H:10])[C+:5]([H:11])[C:6]1=[C-:7][H:12]"
C        0.84576170       1.42176677      -0.11156988
C        1.48796519       0.46286699      -0.68381222
C        1.00787411      -0.81869181      -0.91831671
N        0.48775514      -1.57847153       0.18049568
C       -0.62741852      -0.78193293      -0.15404654
C       -0.73561918       0.60420643       0.25882318
C       -1.70984487       0.84820998       1.04735652
H        1.09722066       2.40274379       0.25441297
H        1.18775038      -1.37438918      -1.82865090
H        0.89454298      -1.44543708       1.09374247
H       -1.50152255      -1.32406256      -0.48874308
H       -2.43446505       1.58319112       1.35030850
12
Frame=9 idx=011026 GeodesicLength=0.7833715022736389 rxn_smarts="[C:1](#[C:2][C@:3]1([H:9])[N:4]([H:10])[C@@:5]1([C:6]#[C:7][H:12])[H:11])[H:8]>>[C:1]1([H:8])=[C:2]=[C:3]([H:9])[N:4]([H:10])[C+:5]([H:11])[C:6]1=[C-:7][H:12]"
C        0.85411131       1.42950842      -0.10303755
C        1.48279633       0.47002541      -0.68438143
C        1.00623670      -0.81167697      -0.92616146
N        0.49489774      -1.58158460       0.16696996
C       -0.62751384      -0.79237891      -0.14448320
C       -0.75125907       0.58612554       0.27964091
C       -1.72854379       0.85219000       1.06017757
H        1.10755012       2.41268379       0.25494892
H        1.19661544      -1.36206852      -1.83754122
H        0.90591555      -1.48042901       1.08168495
H       -1.50282390      -1.34378388      -0.46108260
H       -2.43798259       1.62138874       1.31326517
12
Frame=10 idx=011026 GeodesicLength=0.8703068264034147 rxn_smarts="[C:1](#[C:2][C@:3]1([H:9])[N:4]([H:10])[C@@:5]1([C:6]#[C:7][H:12])[H:11])[H:8]>>[C:1]1([H:8])=[C:2]=[C:3]([H:9])[N:4]([H:10])[C+:5]([H:11])[C:6]1=[C-:7][H:12]"
C        0.86202823       1.43752106      -0.09407122
C        1.47696629       0.47753755      -0.68439266
C        1.00444431      -0.80440542      -0.93356184
N        0.50186132      -1.58437917       0.15374959
C       -0.62779441      -0.80352182      -0.13525410
C       -0.76805805       0.56686509       0.30037599
C       -1.75057137       0.85642034       1.06890892
H        1.11670020       2.42326313       0.25520008
H        1.20636673      -1.34950725      -1.84560404
H        0.91686457      -1.51584551       1.06896746
H       -1.50329501      -1.36507528      -0.43375422
H       -2.43551282       1.66112728       1.27943604
12
Frame=11 idx=011026 GeodesicLength=0.9571369956125138 rxn_smarts="[C:1](#[C:2][C@:3]1([H:9])[N:4]([H:10])[C@@:5]1([C:6]#[C:7][H:12])[H:11])[H:8]>>[C:1]1([H:8])=[C:2]=[C:3]([H:9])[N:4]([H:10])[C+:5]([H:11])[C:6]1=[C-:7][H:12]"
C        0.87150793       1.44592413      -0.08457663
C        1.47081939       0.48515796      -0.68483235
C        1.00134305      -0.79660022      -0.94135962
N        0.50868432      -1.58669380       0.14045729
C       -0.62803465      -0.81410983      -0.12447943
C       -0.78389177       0.54750113       0.32399154
C       -1.77147718       0.86268328       1.07891363
H        1.12867880       2.43373510       0.25623230
H        1.21383514      -1.33612947      -1.85429249
H        0.92886381      -1.55219350       1.05451037
H       -1.50374815      -1.38568051      -0.40357587
H       -2.43658067       1.69640574       1.23901125
12
Frame=12 idx=011026 GeodesicLength=1.0440981112054948 rxn_smarts="[C:1](#[C:2][C@:3]1([H:9])[N:4]([H:10])[C@@:5]1([C:6]#[C:7][H:12])[H:11])[H:8]>>[C:1]1([H:8])=[C:2]=[C:3]([H:9])[N:4]([H:10])[C+:5]([H:11])[C:6]1=[C-:7][H:12]"
C        0.88048638       1.45439787      -0.07391581
C        1.46388365       0.49318981      -0.68429866
C        0.99814387      -0.78849164      -0.94854423
N        0.51536824      -1.58885398       0.12745804
C       -0.62845076      -0.82568244      -0.11409399
C       -0.80112799       0.52647207       0.34778352
C       -1.79648099       0.86879502       1.08363239
H        1.13837374       2.44551198       0.25584935
H        1.22244706      -1.32228807      -1.86201086
H        0.94038531      -1.58938592       1.03920118
H       -1.50313759      -1.40825384      -0.37399568
H       -2.42989093       1.73458916       1.20293474
12
Frame=13 idx=011026 GeodesicLength=1.1309051721917442 rxn_smarts="[C:1](#[C:2][C@:3]1([H:9])[N:4]([H:10])[C@@:5]1([C:6]#[C:7][H:12])[H:11])[H:8]>>[C:1]1([H:8])=[C:2]=[C:3]([H:9])[N:4]([H:10])[C+:5]([H:11])[C:6]1=[C-:7][H:12]"
C        0.89113423       1.46334157      -0.06270780
C        1.45634811       0.50150158      -0.68440415
C        0.99325519      -0.77965678      -0.95628015
N        0.52197971      -1.59044794       0.11431182
C       -0.62877513      -0.83666345      -0.10172864
C       -0.81716099       0.50517692       0.37538562
C       -1.81997021       0.87719373       1.08971929
H        1.15162076       2.45672321       0.25731408
H        1.22812734      -1.30736205      -1.87063152
H        0.95329247      -1.62754104       1.02161807
H       -1.50238843      -1.43013281      -0.34086985
H       -2.42746306       1.76786707       1.15827322
12
Frame=14 idx=011026 GeodesicLength=1.2178494931443022 rxn_smarts="[C:1](#[C:2][C@:3]1([H:9])[N:4]([H:10])[C@@:5]1([C:6]#[C:7][H:12])[H:11])[H:8]>>[C:1]1([H:8])=[C:2]=[C:3]([H:9])[N:4]([H:10])[C+:5]([H:11])[C:6]1=[C-:7][H:12]"
C        0.90215085       1.47203521      -0.04895466
C        1.44804058       0.51019491      -0.68313173
C        0.98781687      -0.77027229      -0.96344551
N        0.52841859      -1.59208973       0.10121143
C       -0.62918455      -0.84847545      -0.08898255
C       -0.83392201       0.48194661       0.40506442
C       -1.84667229       0.88578656       1.09107192
H        1.16242157       2.46992776       0.25607435
H        1.23386006      -1.29124201      -1.87873748
H        0.96609844      -1.66744760       1.00235714
H       -1.50062833      -1.45348650      -0.30754075
H       -2.41839978       1.80312253       1.11501341
12
Frame=15 idx=011026 GeodesicLength=1.3046823546496986 rxn_smarts="[C:1](#[C:2][C@:3]1([H:9])[N:4]([H:10])[C@@:5]1([C:6]#[C:7][H:12])[H:11])[H:8]>>[C:1]1([H:8])=[C:2]=[C:3]([H:9])[N:4]([H:10])[C+:5]([H:11])[C:6]1=[C-:7][H:12]"
C        0.91470288       1.48113470      -0.03412234
C        1.43874045       0.51941674      -0.68217791
C        0.98038173      -0.75989635      -0.97103133
N        0.53484628      -1.59317104       0.08794318
C       -0.62944167      -0.85994451      -0.07387565
C       -0.84953920       0.45784025       0.43958159
C       -1.87219397       0.89657661       1.09251779
H        1.17631329       2.48257120       0.25704948
H        1.23603394      -1.27345713      -1.88790598
H        0.98038191      -1.70853804       0.98024651
H       -1.49834521      -1.47658950      -0.27045184
H       -2.41188043       1.83405706       1.06222649
12
Frame=16 idx=011026 GeodesicLength=1.391602189569252 rxn_smarts="[C:1](#[C:2][C@:3]1([H:9])[N:4]([H:10])[C@@:5]1([C:6]#[C:7][H:12])[H:11])[H:8]>>[C:1]1([H:8])=[C:2]=[C:3]([H:9])[N:4]([H:10])[C+:5]([H:11])[C:6]1=[C-:7][H:12]"
C        0.92765553       1.49019432      -0.01724786
C        1.42790114       0.52942293      -0.68079908
C        0.97183489      -0.74880182      -0.97818964
N        0.54114604      -1.59368466       0.07507581
C       -0.62984307      -0.87207739      -0.05800399
C       -0.86633956       0.43200211       0.47589752
C       -1.89968004       0.90779485       1.08917750
H        1.18901689       2.49609553       0.25749585
H        1.23741880      -1.25463909      -1.89657907
H        0.99479328      -1.75034163       0.95620606
H       -1.49485245      -1.50140486      -0.23213868
H       -2.39905144       1.86543971       1.00910560
