14
Frame=0 idx=002714 GeodesicLength=0.0 rxn_smarts="[C:1]([C@@:2]([O:3][H:11])([C:4]([C:5](=[O:6])[H:14])([H:12])[H:13])[H:10])([H:7])([H:8])[H:9]>>[C:1]([C@@:2]([O:3][H:11])([C:4]([O+:6]=[C-:5][H:14])([H:12])[H:13])[H:10])([H:7])([H:8])[H:9]"
C       -1.58424575      -0.26438149      -0.55098731
C       -0.24042463       0.35473002      -0.18271769
O       -0.36166753       1.25298614       0.90164688
C        0.67000404      -0.78864456       0.28953255
C        2.26942764       0.00103296      -0.10256484
O        2.22915044      -0.66124579       1.00453178
H       -2.29186668       0.52499177      -0.81257713
H       -1.49238173      -0.93133063      -1.40972001
H       -1.99475859      -0.82018127       0.29436453
H        0.18224112       0.85440449      -1.05733776
H       -0.77004173       2.06281608       0.59213019
H        0.71463447      -1.63534036      -0.37946543
H        0.30557296      -1.05004378       1.28711399
H        2.36435599       1.10020647       0.12605027
14
Frame=1 idx=002714 GeodesicLength=0.06643758599912157 rxn_smarts="[C:1]([C@@:2]([O:3][H:11])([C:4]([C:5](=[O:6])[H:14])([H:12])[H:13])[H:10])([H:7])([H:8])[H:9]>>[C:1]([C@@:2]([O:3][H:11])([C:4]([O+:6]=[C-:5][H:14])([H:12])[H:13])[H:10])([H:7])([H:8])[H:9]"
C       -1.59515414      -0.27117582      -0.54714746
C       -0.24983333       0.34932136      -0.18896620
O       -0.37222311       1.25072121       0.89283525
C        0.67014674      -0.78474219       0.28395987
C        2.25851104       0.04046565      -0.07844868
O        2.24945470      -0.69574868       0.97510048
H       -2.30343727       0.51699265      -0.81037929
H       -1.50694013      -0.94450071      -1.40132045
H       -2.00203993      -0.82232568       0.30299781
H        0.16609198       0.84377318      -1.07040491
H       -0.72201030       2.08050852       0.56404998
H        0.70922812      -1.63292287      -0.38465823
H        0.30481598      -1.05516589       1.27900036
H        2.39338966       1.12479926       0.18338147
14
Frame=2 idx=002714 GeodesicLength=0.1325676821309743 rxn_smarts="[C:1]([C@@:2]([O:3][H:11])([C:4]([C:5](=[O:6])[H:14])([H:12])[H:13])[H:10])([H:7])([H:8])[H:9]>>[C:1]([C@@:2]([O:3][H:11])([C:4]([O+:6]=[C-:5][H:14])([H:12])[H:13])[H:10])([H:7])([H:8])[H:9]"
C       -1.60601009      -0.27788239      -0.54356994
C       -0.25935759       0.34418458      -0.19544597
O       -0.38311818       1.24962287       0.88299350
C        0.67006117      -0.78038548       0.27864163
C        2.24664869       0.08004785      -0.05114666
O        2.27039670      -0.72895028       0.94058134
H       -2.31492201       0.50890825      -0.80903540
H       -1.52123037      -0.95784006      -1.39286626
H       -2.00936654      -0.82390436       0.31155764
H        0.15033763       0.83277453      -1.08368860
H       -0.67471518       2.09534624       0.53753718
H        0.70292551      -1.63055560      -0.38897530
H        0.30495061      -1.05855627       1.27180943
H        2.42339965       1.14719012       0.24160740
14
Frame=3 idx=002714 GeodesicLength=0.1983125066700223 rxn_smarts="[C:1]([C@@:2]([O:3][H:11])([C:4]([C:5](=[O:6])[H:14])([H:12])[H:13])[H:10])([H:7])([H:8])[H:9]>>[C:1]([C@@:2]([O:3][H:11])([C:4]([O+:6]=[C-:5][H:14])([H:12])[H:13])[H:10])([H:7])([H:8])[H:9]"
C       -1.61675494      -0.28448043      -0.54029697
C       -0.26895550       0.33928617      -0.20202102
O       -0.39444319       1.24952988       0.87233778
C        0.66973079      -0.77567684       0.27364492
C        2.23386619       0.11940910      -0.02027461
O        2.29173907      -0.76010445       0.90089365
H       -2.32627372       0.50076822      -0.80851530
H       -1.53513772      -0.97120656      -1.38448417
H       -2.01674086      -0.82501986       0.31988932
H        0.13516711       0.82149394      -1.09692188
H       -0.62825074       2.10753177       0.51258507
H        0.69573138      -1.62835915      -0.39229586
H        0.30590946      -1.06042214       1.26559379
H        2.45441267       1.16725034       0.29986528
14
Frame=4 idx=002714 GeodesicLength=0.2635975936955917 rxn_smarts="[C:1]([C@@:2]([O:3][H:11])([C:4]([C:5](=[O:6])[H:14])([H:12])[H:13])[H:10])([H:7])([H:8])[H:9]>>[C:1]([C@@:2]([O:3][H:11])([C:4]([O+:6]=[C-:5][H:14])([H:12])[H:13])[H:10])([H:7])([H:8])[H:9]"
C       -1.62729362      -0.29091701      -0.53743095
C       -0.27855561       0.33458794      -0.20849370
O       -0.40622918       1.25028063       0.86114611
C        0.66912161      -0.77074995       0.26915420
C        2.22014760       0.15807982       0.01447613
O        2.31329999      -0.78845643       0.85598262
H       -2.33734127       0.49267360      -0.80892220
H       -1.54845651      -0.98439264      -1.37639218
H       -2.02421319      -0.82573278       0.32774928
H        0.12079963       0.81005490      -1.10976518
H       -0.58299783       2.11714532       0.48937995
H        0.68760358      -1.62653014      -0.39432489
H        0.30760719      -1.06096352       1.26052242
H        2.48650759       1.18492026       0.35691839
14
Frame=5 idx=002714 GeodesicLength=0.3290416838378421 rxn_smarts="[C:1]([C@@:2]([O:3][H:11])([C:4]([C:5](=[O:6])[H:14])([H:12])[H:13])[H:10])([H:7])([H:8])[H:9]>>[C:1]([C@@:2]([O:3][H:11])([C:4]([O+:6]=[C-:5][H:14])([H:12])[H:13])[H:10])([H:7])([H:8])[H:9]"
C       -1.63773854      -0.29738088      -0.53493774
C       -0.28831697       0.33006946      -0.21496191
O       -0.41914691       1.25174478       0.84931467
C        0.66812634      -0.76554449       0.26503199
C        2.20531827       0.19615518       0.05398506
O        2.33474225      -0.81353355       0.80510420
H       -2.34839393       0.48428556      -0.81016572
H       -1.56128920      -0.99779486      -1.36837540
H       -2.03177736      -0.82628640       0.33518953
H        0.10719712       0.79839606      -1.12227253
H       -0.53697369       2.12471208       0.46768944
H        0.67861298      -1.62494377      -0.39522562
H        0.30991345      -1.06022946       1.25642153
H        2.51972617       1.20035031       0.41320251
14
Frame=6 idx=002714 GeodesicLength=0.3942225966356843 rxn_smarts="[C:1]([C@@:2]([O:3][H:11])([C:4]([C:5](=[O:6])[H:14])([H:12])[H:13])[H:10])([H:7])([H:8])[H:9]>>[C:1]([C@@:2]([O:3][H:11])([C:4]([O+:6]=[C-:5][H:14])([H:12])[H:13])[H:10])([H:7])([H:8])[H:9]"
C       -1.64783451      -0.30363500      -0.53308279
C       -0.29798173       0.32568336      -0.22102385
O       -0.43278062       1.25374125       0.83736736
C        0.66670353      -0.76035667       0.26179581
C        2.18943130       0.23261456       0.09859087
O        2.35584450      -0.83424741       0.74870016
H       -2.35890432       0.47603868      -0.81267909
H       -1.57317031      -1.01088337      -1.36093077
H       -2.03961178      -0.82650779       0.34171743
H        0.09484605       0.78677476      -1.13382042
H       -0.49212466       2.12980045       0.44840341
H        0.66873143      -1.62398685      -0.39433188
H        0.31255123      -1.05863573       1.25370104
H        2.55429990       1.21359976       0.46559271
14
Frame=7 idx=002714 GeodesicLength=0.45889850848582864 rxn_smarts="[C:1]([C@@:2]([O:3][H:11])([C:4]([C:5](=[O:6])[H:14])([H:12])[H:13])[H:10])([H:7])([H:8])[H:9]>>[C:1]([C@@:2]([O:3][H:11])([C:4]([O+:6]=[C-:5][H:14])([H:12])[H:13])[H:10])([H:7])([H:8])[H:9]"
C       -1.65748396      -0.30962821      -0.53203993
C       -0.30748016       0.32138888      -0.22644146
O       -0.44729225       1.25594329       0.82574292
C        0.66473486      -0.75537681       0.25970439
C        2.17256351       0.26661642       0.14913661
O        2.37582833      -0.84938634       0.68801861
H       -2.36877126       0.46804395      -0.81645465
H       -1.58386214      -1.02344354      -1.35436514
H       -2.04781734      -0.82662416       0.34692087
H        0.08406355       0.77539282      -1.14395739
H       -0.44797987       2.13242438       0.43222600
H        0.65837387      -1.62362005      -0.39164179
H        0.31477744      -1.05692464       1.25223404
H        2.59034543       1.22519402       0.51091692
14
Frame=8 idx=002714 GeodesicLength=0.5223574325039608 rxn_smarts="[C:1]([C@@:2]([O:3][H:11])([C:4]([C:5](=[O:6])[H:14])([H:12])[H:13])[H:10])([H:7])([H:8])[H:9]>>[C:1]([C@@:2]([O:3][H:11])([C:4]([O+:6]=[C-:5][H:14])([H:12])[H:13])[H:10])([H:7])([H:8])[H:9]"
C       -1.66628092      -0.31498107      -0.53213872
C       -0.31640380       0.31704530      -0.23057075
O       -0.46212807       1.25786083       0.81539393
C        0.66217838      -0.75110886       0.25951782
C        2.15467732       0.29697234       0.20657351
O        2.39441120      -0.85815418       0.62431271
H       -2.37704969       0.46105336      -0.82208237
H       -1.59267104      -1.03472755      -1.34931086
H       -2.05664417      -0.82624060       0.35016621
H        0.07555915       0.76447715      -1.15174201
H       -0.40695136       2.13226064       0.42021210
H        0.64785519      -1.62412965      -0.38664755
H        0.31594192      -1.05604600       1.25241690
H        2.62750589       1.23571828       0.54389910
14
Frame=9 idx=002714 GeodesicLength=0.584252702505144 rxn_smarts="[C:1]([C@@:2]([O:3][H:11])([C:4]([C:5](=[O:6])[H:14])([H:12])[H:13])[H:10])([H:7])([H:8])[H:9]>>[C:1]([C@@:2]([O:3][H:11])([C:4]([O+:6]=[C-:5][H:14])([H:12])[H:13])[H:10])([H:7])([H:8])[H:9]"
C       -1.67409015      -0.31960337      -0.53378423
C       -0.32466469       0.31265526      -0.23288349
O       -0.47780235       1.25901685       0.80723897
C        0.65889773      -0.74781438       0.26188017
C        2.13588876       0.32283664       0.27328531
O        2.41087617      -0.85974937       0.55991818
H       -2.38355494       0.45531774      -0.82981557
H       -1.59912932      -1.04439961      -1.34642126
H       -2.06639290      -0.82579912       0.35059616
H        0.06990897       0.75447467      -1.15626569
H       -0.36770128       2.12941018       0.41375065
H        0.63797179      -1.62522750      -0.37955474
H        0.31483949      -1.05726143       1.25423939
H        2.66495271       1.24614343       0.55781617
14
Frame=10 idx=002714 GeodesicLength=0.6454840967165486 rxn_smarts="[C:1]([C@@:2]([O:3][H:11])([C:4]([C:5](=[O:6])[H:14])([H:12])[H:13])[H:10])([H:7])([H:8])[H:9]>>[C:1]([C@@:2]([O:3][H:11])([C:4]([O+:6]=[C-:5][H:14])([H:12])[H:13])[H:10])([H:7])([H:8])[H:9]"
C       -1.68022414      -0.32353576      -0.53790988
C       -0.33228089       0.30864523      -0.23231557
O       -0.49598783       1.25902692       0.80266442
C        0.65431900      -0.74512670       0.26851219
C        2.11554644       0.34377337       0.35641529
O        2.42413182      -0.85338698       0.49414572
H       -2.38762105       0.45052558      -0.84101112
H       -1.60129957      -1.05209853      -1.34682139
H       -2.07717959      -0.82634514       0.34639427
H        0.06832821       0.74644269      -1.15564731
H       -0.32926063       2.12380582       0.41560760
H        0.62888380      -1.62596294      -0.36946405
H        0.30999442      -1.06114563       1.25881129
H        2.70264999       1.25538208       0.54061854
14
Frame=11 idx=002714 GeodesicLength=0.701656439245338 rxn_smarts="[C:1]([C@@:2]([O:3][H:11])([C:4]([C:5](=[O:6])[H:14])([H:12])[H:13])[H:10])([H:7])([H:8])[H:9]>>[C:1]([C@@:2]([O:3][H:11])([C:4]([O+:6]=[C-:5][H:14])([H:12])[H:13])[H:10])([H:7])([H:8])[H:9]"
C       -1.68361185      -0.32544594      -0.54329110
C       -0.33714913       0.30466168      -0.22937739
O       -0.51197125       1.25805045       0.80116966
C        0.65036010      -0.74376281       0.27840685
C        2.09739813       0.35643721       0.44925056
O        2.43528392      -0.83774896       0.43034002
H       -2.38722717       0.44896499      -0.85400855
H       -1.59970918      -1.05669102      -1.34927569
H       -2.08755936      -0.82511261       0.33967248
H        0.07171923       0.73940843      -1.15116797
H       -0.29330965       2.11573066       0.42320014
H        0.62236757      -1.62700877      -0.35746644
H        0.30319550      -1.06803576       1.26516414
H        2.72021314       1.26055245       0.49738331
14
Frame=12 idx=002714 GeodesicLength=0.7594698485667514 rxn_smarts="[C:1]([C@@:2]([O:3][H:11])([C:4]([C:5](=[O:6])[H:14])([H:12])[H:13])[H:10])([H:7])([H:8])[H:9]>>[C:1]([C@@:2]([O:3][H:11])([C:4]([O+:6]=[C-:5][H:14])([H:12])[H:13])[H:10])([H:7])([H:8])[H:9]"
C       -1.68594405      -0.32707365      -0.54759573
C       -0.34047319       0.30105264      -0.22805373
O       -0.52446715       1.25906790       0.79670920
C        0.64739965      -0.74165369       0.28766467
C        2.08462822       0.36154943       0.53425416
O        2.44366403      -0.81190667       0.36041063
H       -2.38593436       0.44727174      -0.86610691
H       -1.59825222      -1.06262197      -1.34928001
H       -2.09606405      -0.82209668       0.33509913
H        0.07577333       0.73127659      -1.14916974
H       -0.25099342       2.10638146       0.43036714
H        0.61661703      -1.62861346      -0.34426020
H        0.29842919      -1.07177850       1.27189378
H        2.71561700       1.25914487       0.46806760
14
Frame=13 idx=002714 GeodesicLength=0.819143251334813 rxn_smarts="[C:1]([C@@:2]([O:3][H:11])([C:4]([C:5](=[O:6])[H:14])([H:12])[H:13])[H:10])([H:7])([H:8])[H:9]>>[C:1]([C@@:2]([O:3][H:11])([C:4]([O+:6]=[C-:5][H:14])([H:12])[H:13])[H:10])([H:7])([H:8])[H:9]"
C       -1.68896285      -0.32868749      -0.54963610
C       -0.34285484       0.29693019      -0.22981569
O       -0.53168197       1.26228437       0.78726910
C        0.64537762      -0.73998831       0.29417576
C        2.07710068       0.35977429       0.60390403
O        2.44938801      -0.77757951       0.28596081
H       -2.38535545       0.44554364      -0.87605207
H       -1.60036618      -1.07088596      -1.34510837
H       -2.10352059      -0.81619706       0.33520189
H        0.07832426       0.72042338      -1.15237766
H       -0.20373474       2.09574374       0.43291800
H        0.61176889      -1.63180091      -0.33208404
H        0.29623962      -1.07309145       1.27745305
H        2.69827753       1.25753109       0.46819128
14
Frame=14 idx=002714 GeodesicLength=0.8798344979464661 rxn_smarts="[C:1]([C@@:2]([O:3][H:11])([C:4]([C:5](=[O:6])[H:14])([H:12])[H:13])[H:10])([H:7])([H:8])[H:9]>>[C:1]([C@@:2]([O:3][H:11])([C:4]([O+:6]=[C-:5][H:14])([H:12])[H:13])[H:10])([H:7])([H:8])[H:9]"
C       -1.69241616      -0.33004867      -0.55015932
C       -0.34451649       0.29219008      -0.23339156
O       -0.53461031       1.26646844       0.77500622
C        0.64379165      -0.73914853       0.29890692
C        2.07277937       0.35236724       0.66340923
O        2.45174080      -0.73589455       0.21274444
H       -2.38481776       0.44426542      -0.88458890
H       -1.60496060      -1.08035460      -1.33814317
H       -2.11051576      -0.80777296       0.33836812
H        0.07982670       0.70761637      -1.15873425
H       -0.15502935       2.08339262       0.43272644
H        0.60895491      -1.63557846      -0.32187397
H        0.29466471      -1.07413344       1.28166677
H        2.67510830       1.25663104       0.48406303
14
Frame=15 idx=002714 GeodesicLength=0.941917729001709 rxn_smarts="[C:1]([C@@:2]([O:3][H:11])([C:4]([C:5](=[O:6])[H:14])([H:12])[H:13])[H:10])([H:7])([H:8])[H:9]>>[C:1]([C@@:2]([O:3][H:11])([C:4]([O+:6]=[C-:5][H:14])([H:12])[H:13])[H:10])([H:7])([H:8])[H:9]"
C       -1.69636003      -0.33160247      -0.54981944
C       -0.34620657       0.28727907      -0.23833475
O       -0.53524606       1.27179034       0.76032917
C        0.64204553      -0.73835391       0.30259170
C        2.07126151       0.34056795       0.71480620
O        2.44972320      -0.68768674       0.14140169
H       -2.38497004       0.44244266      -0.89237884
H       -1.61104921      -1.09099204      -1.32931125
H       -2.11708894      -0.79837712       0.34328734
H        0.07987655       0.69375227      -1.16740388
H       -0.10353984       2.06868800       0.43168725
H        0.60775845      -1.63912103      -0.31303305
H        0.29305821      -1.07432907       1.28518245
H        2.65073724       1.25594209       0.51099539
14
Frame=16 idx=002714 GeodesicLength=1.004153949386498 rxn_smarts="[C:1]([C@@:2]([O:3][H:11])([C:4]([C:5](=[O:6])[H:14])([H:12])[H:13])[H:10])([H:7])([H:8])[H:9]>>[C:1]([C@@:2]([O:3][H:11])([C:4]([O+:6]=[C-:5][H:14])([H:12])[H:13])[H:10])([H:7])([H:8])[H:9]"
C       -1.70073332      -0.33294388      -0.54849426
C       -0.34769917       0.28214476      -0.24440984
O       -0.53341116       1.27758349       0.74404189
C        0.64054827      -0.73793181       0.30474767
C        2.07133705       0.32574328       0.75987122
O        2.44487411      -0.63497206       0.07763761
H       -2.38553987       0.44084436      -0.89896859
H       -1.61883373      -1.10216818      -1.31865962
H       -2.12332052      -0.78744916       0.35006339
H        0.07882039       0.67911869      -1.17793252
H       -0.05233669       2.05218985       0.42968462
H        0.60938759      -1.64184604      -0.30741410
H        0.29110308      -1.07527494       1.28685133
H        2.62580395       1.25496163       0.54298120
