13
Frame=0 idx=010367 GeodesicLength=0.0 rxn_smarts="[N:1]#[C:2][C@@:3]1([H:8])[C:4]([H:9])([H:10])[C@@:5]2([H:11])[C:6]([H:12])([H:13])[N:7]12>>[N:1]#[C:2][C@@:3]1([H:8])[C:4]([H:9])([H:10])[C:5]([H:11])=[N+:7]1[C-:6]([H:12])[H:13]"
N        2.47598602      -1.14598788       1.22585922
C        1.66745472      -0.39198797       0.92207217
C        0.67234501       0.59010255       0.51572698
C        0.45011649       0.79579552      -1.02732616
C       -0.98709164       0.52931120      -0.68907373
C       -1.22948131      -1.15592727       0.54612088
N       -0.75579141       0.15346978       0.58748587
H        0.82630873       1.52039653       1.06315993
H        0.93936192      -0.00676198      -1.58966589
H        0.71680391       1.75681795      -1.46680355
H       -1.95166988       0.65984126      -1.14826482
H       -0.96837307      -1.78920953      -0.28928474
H       -1.85596949      -1.51586016       1.34999384
13
Frame=1 idx=010367 GeodesicLength=0.032568385833385616 rxn_smarts="[N:1]#[C:2][C@@:3]1([H:8])[C:4]([H:9])([H:10])[C@@:5]2([H:11])[C:6]([H:12])([H:13])[N:7]12>>[N:1]#[C:2][C@@:3]1([H:8])[C:4]([H:9])([H:10])[C:5]([H:11])=[N+:7]1[C-:6]([H:12])[H:13]"
N        2.46865970      -1.15390877       1.22468205
C        1.66362721      -0.39630871       0.92051511
C        0.67063648       0.58801310       0.51393833
C        0.44933687       0.79539188      -1.02752071
C       -0.98726685       0.51705509      -0.69475698
C       -1.23039436      -1.14806852       0.54123920
N       -0.75855402       0.16011270       0.59106350
H        0.82667547       1.51692634       1.06308636
H        0.94689619       0.00285105      -1.59619239
H        0.70827997       1.76315244      -1.45680232
H       -1.94928236       0.66018455      -1.15589404
H       -0.96414827      -1.79906060      -0.27859591
H       -1.84446602      -1.50634056       1.35523780
13
Frame=2 idx=010367 GeodesicLength=0.06519052264902736 rxn_smarts="[N:1]#[C:2][C@@:3]1([H:8])[C:4]([H:9])([H:10])[C@@:5]2([H:11])[C:6]([H:12])([H:13])[N:7]12>>[N:1]#[C:2][C@@:3]1([H:8])[C:4]([H:9])([H:10])[C:5]([H:11])=[N+:7]1[C-:6]([H:12])[H:13]"
N        2.46126656      -1.16189764       1.22338299
C        1.65986299      -0.40060250       0.91884963
C        0.66892812       0.58591105       0.51215887
C        0.44856507       0.79509310      -1.02770741
C       -0.98730786       0.50476818      -0.70037818
C       -1.23111724      -1.14033463       0.53649287
N       -0.76125098       0.16667006       0.59442148
H        0.82700050       1.51338501       1.06310094
H        0.95444289       0.01284452      -1.60271128
H        0.69955453       1.76945691      -1.44673204
H       -1.94652380       0.66020910      -1.16369698
H       -0.96040503      -1.80885479      -0.26745777
H       -1.83301573      -1.49664835       1.36027689
13
Frame=3 idx=010367 GeodesicLength=0.09779907334206306 rxn_smarts="[N:1]#[C:2][C@@:3]1([H:8])[C:4]([H:9])([H:10])[C@@:5]2([H:11])[C:6]([H:12])([H:13])[N:7]12>>[N:1]#[C:2][C@@:3]1([H:8])[C:4]([H:9])([H:10])[C:5]([H:11])=[N+:7]1[C-:6]([H:12])[H:13]"
N        2.45399046      -1.16976604       1.22198465
C        1.65616585      -0.40486760       0.91710626
C        0.66722931       0.58378890       0.51040222
C        0.44779361       0.79483490      -1.02787292
C       -0.98722440       0.49253601      -0.70584572
C       -1.23165029      -1.13275765       0.53183027
N       -0.76386854       0.17310491       0.59761038
H        0.82730388       1.50978205       1.06317599
H        0.96190595       0.02308870      -1.60916829
H        0.69069086       1.77560560      -1.43666415
H       -1.94344440       0.65998657      -1.17153978
H       -0.95711280      -1.81850779      -0.25597543
H       -1.82177950      -1.48682856       1.36495652
13
Frame=4 idx=010367 GeodesicLength=0.13037768827904855 rxn_smarts="[N:1]#[C:2][C@@:3]1([H:8])[C:4]([H:9])([H:10])[C@@:5]2([H:11])[C:6]([H:12])([H:13])[N:7]12>>[N:1]#[C:2][C@@:3]1([H:8])[C:4]([H:9])([H:10])[C:5]([H:11])=[N+:7]1[C-:6]([H:12])[H:13]"
N        2.44691413      -1.17751352       1.22050218
C        1.65261333      -0.40908337       0.91529544
C        0.66557426       0.58166727       0.50867788
C        0.44702395       0.79461678      -1.02801640
C       -0.98704470       0.48035352      -0.71116880
C       -1.23196215      -1.12535415       0.52727501
N       -0.76639218       0.17942649       0.60064896
H        0.82761275       1.50616249       1.06332640
H        0.96929305       0.03355984      -1.61557032
H        0.68169545       1.78161463      -1.42658304
H       -1.94010139       0.65948355      -1.17941926
H       -0.95435160      -1.82806586      -0.24421146
H       -1.81087489      -1.47686767       1.36924342
13
Frame=5 idx=010367 GeodesicLength=0.16295411814110966 rxn_smarts="[N:1]#[C:2][C@@:3]1([H:8])[C:4]([H:9])([H:10])[C@@:5]2([H:11])[C:6]([H:12])([H:13])[N:7]12>>[N:1]#[C:2][C@@:3]1([H:8])[C:4]([H:9])([H:10])[C:5]([H:11])=[N+:7]1[C-:6]([H:12])[H:13]"
N        2.43991061      -1.18523954       1.21890547
C        1.64919528      -0.41323761       0.91339456
C        0.66395986       0.57955158       0.50697635
C        0.44626069       0.79446848      -1.02814015
C       -0.98674267       0.46819971      -0.71636076
C       -1.23203767      -1.11811462       0.52284478
N       -0.76881558       0.18564090       0.60353687
H        0.82792109       1.50251646       1.06354989
H        0.97662396       0.04432504      -1.62192735
H        0.67254048       1.78752423      -1.41647869
H       -1.93646884       0.65862327      -1.18737196
H       -0.95206385      -1.83751763      -0.23212520
H       -1.80028337      -1.46674026       1.37319618
13
Frame=6 idx=010367 GeodesicLength=0.195543925387787 rxn_smarts="[N:1]#[C:2][C@@:3]1([H:8])[C:4]([H:9])([H:10])[C@@:5]2([H:11])[C:6]([H:12])([H:13])[N:7]12>>[N:1]#[C:2][C@@:3]1([H:8])[C:4]([H:9])([H:10])[C:5]([H:11])=[N+:7]1[C-:6]([H:12])[H:13]"
N        2.43290820      -1.19302026       1.21717493
C        1.64592126      -0.41732182       0.91139189
C        0.66239062       0.57745009       0.50529344
C        0.44550611       0.79440912      -1.02824499
C       -0.98631012       0.45606303      -0.72143535
C       -1.23187511      -1.11102873       0.51854626
N       -0.77113907       0.19176061       0.60627435
H        0.82823561       1.49884703       1.06384784
H        0.98391416       0.05542430      -1.62824378
H        0.66320745       1.79336099      -1.40633781
H       -1.93255081       0.65734884      -1.19542670
H       -0.95020232      -1.84686214      -0.21969221
H       -1.79000598      -1.45643106       1.37685216
13
Frame=7 idx=010367 GeodesicLength=0.2281249316885088 rxn_smarts="[N:1]#[C:2][C@@:3]1([H:8])[C:4]([H:9])([H:10])[C@@:5]2([H:11])[C:6]([H:12])([H:13])[N:7]12>>[N:1]#[C:2][C@@:3]1([H:8])[C:4]([H:9])([H:10])[C:5]([H:11])=[N+:7]1[C-:6]([H:12])[H:13]"
N        2.42600595      -1.20076002       1.21533453
C        1.64280699      -0.42132970       0.90930482
C        0.66087654       0.57536054       0.50363530
C        0.44476039       0.79440941      -1.02832838
C       -0.98575364       0.44396987      -0.72636638
C       -1.23145996      -1.10411338       0.51436453
N       -0.77334917       0.19776726       0.60888691
H        0.82856133       1.49516274       1.06421083
H        0.99112730       0.06679786      -1.63450354
H        0.65373136       1.79907558      -1.39618610
H       -1.92837919       0.65570283      -1.20351988
H       -0.94880501      -1.85607927      -0.20699326
H       -1.78012289      -1.44596372       1.38016062
13
Frame=8 idx=010367 GeodesicLength=0.26067831622948157 rxn_smarts="[N:1]#[C:2][C@@:3]1([H:8])[C:4]([H:9])([H:10])[C@@:5]2([H:11])[C:6]([H:12])([H:13])[N:7]12>>[N:1]#[C:2][C@@:3]1([H:8])[C:4]([H:9])([H:10])[C:5]([H:11])=[N+:7]1[C-:6]([H:12])[H:13]"
N        2.41928410      -1.20837051       1.21340959
C        1.63985193      -0.42525851       0.90715239
C        0.65941995       0.57328053       0.50200622
C        0.44402264       0.79443787      -1.02838746
C       -0.98508427       0.43195358      -0.73113060
C       -1.23079535      -1.09737693       0.51027321
N       -0.77544081       0.20364702       0.61139495
H        0.82889869       1.49147117       1.06462633
H        0.99822308       0.07837729      -1.64068658
H        0.64415610       1.80461601      -1.38605075
H       -1.92398468       0.65374637      -1.21159097
H       -0.94788460      -1.86514666      -0.19410423
H       -1.77066678      -1.43537724       1.38308790
13
Frame=9 idx=010367 GeodesicLength=0.2932182731211167 rxn_smarts="[N:1]#[C:2][C@@:3]1([H:8])[C:4]([H:9])([H:10])[C@@:5]2([H:11])[C:6]([H:12])([H:13])[N:7]12>>[N:1]#[C:2][C@@:3]1([H:8])[C:4]([H:9])([H:10])[C:5]([H:11])=[N+:7]1[C-:6]([H:12])[H:13]"
N        2.41266086      -1.21597148       1.21139272
C        1.63707876      -0.42910457       0.90493548
C        0.65802820       0.57122554       0.50040840
C        0.44329239       0.79452270      -1.02843088
C       -0.98430280       0.41999794      -0.73576260
C       -1.22988227      -1.09080535       0.50628457
N       -0.77741986       0.20942615       0.61379610
H        0.82925530       1.48779091       1.06511333
H        1.00523191       0.09020778      -1.64681108
H        0.63444959       1.81002916      -1.37592386
H       -1.91938671       0.65142960      -1.21970101
H       -0.94740600      -1.87408430      -0.18099903
H       -1.76159938      -1.42466407       1.38569786
13
Frame=10 idx=010367 GeodesicLength=0.32576599363817765 rxn_smarts="[N:1]#[C:2][C@@:3]1([H:8])[C:4]([H:9])([H:10])[C@@:5]2([H:11])[C:6]([H:12])([H:13])[N:7]12>>[N:1]#[C:2][C@@:3]1([H:8])[C:4]([H:9])([H:10])[C:5]([H:11])=[N+:7]1[C-:6]([H:12])[H:13]"
N        2.40603328      -1.22358281       1.20928991
C        1.63447645      -0.43284560       0.90261169
C        0.65669884       0.56919255       0.49881826
C        0.44258154       0.79468123      -1.02845510
C       -0.98337614       0.40807170      -0.74026529
C       -1.22869741      -1.08440318       0.50241381
N       -0.77927228       0.21509022       0.61608350
H        0.82962151       1.48409943       1.06564214
H        1.01216690       0.10235380      -1.65287878
H        0.62461520       1.81533487      -1.36577580
H       -1.91454614       0.64868957      -1.22784749
H       -0.94741998      -1.88286557      -0.16768094
H       -1.75288178      -1.41381620       1.38804408
13
Frame=11 idx=010367 GeodesicLength=0.3582760545323044 rxn_smarts="[N:1]#[C:2][C@@:3]1([H:8])[C:4]([H:9])([H:10])[C@@:5]2([H:11])[C:6]([H:12])([H:13])[N:7]12>>[N:1]#[C:2][C@@:3]1([H:8])[C:4]([H:9])([H:10])[C:5]([H:11])=[N+:7]1[C-:6]([H:12])[H:13]"
N        2.39964864      -1.23096199       1.20708649
C        1.63201853      -0.43649237       0.90024038
C        0.65542687       0.56716508       0.49725751
C        0.44188982       0.79483098      -1.02844569
C       -0.98233503       0.39625737      -0.74456896
C       -1.22727892      -1.07817348       0.49859609
N       -0.78100360       0.22060581       0.61829934
H        0.82999370       1.48039635       1.06619710
H        1.01894423       0.11463243      -1.65883161
H        0.61474769       1.82039756      -1.35568268
H       -1.90951852       0.64569577      -1.23587980
H       -0.94786982      -1.89145017      -0.15425097
H       -1.74466360      -1.40290333       1.38998280
13
Frame=12 idx=010367 GeodesicLength=0.390737255303236 rxn_smarts="[N:1]#[C:2][C@@:3]1([H:8])[C:4]([H:9])([H:10])[C@@:5]2([H:11])[C:6]([H:12])([H:13])[N:7]12>>[N:1]#[C:2][C@@:3]1([H:8])[C:4]([H:9])([H:10])[C:5]([H:11])=[N+:7]1[C-:6]([H:12])[H:13]"
N        2.39354179      -1.23814963       1.20487530
C        1.62975104      -0.44005456       0.89784434
C        0.65422883       0.56515523       0.49573488
C        0.44120933       0.79497825      -1.02841948
C       -0.98120671       0.38455961      -0.74871274
C       -1.22561324      -1.07212950       0.49483345
N       -0.78260820       0.22598925       0.62045402
H        0.83038859       1.47672054       1.06679815
H        1.02555984       0.12703049      -1.66470422
H        0.60483906       1.82525033      -1.34563949
H       -1.90436099       0.64246255      -1.24384624
H       -0.94885242      -1.89986830      -0.14079204
H       -1.73687692      -1.39194426       1.39157407
13
Frame=13 idx=010367 GeodesicLength=0.4231796954121798 rxn_smarts="[N:1]#[C:2][C@@:3]1([H:8])[C:4]([H:9])([H:10])[C@@:5]2([H:11])[C:6]([H:12])([H:13])[N:7]12>>[N:1]#[C:2][C@@:3]1([H:8])[C:4]([H:9])([H:10])[C:5]([H:11])=[N+:7]1[C-:6]([H:12])[H:13]"
N        2.38759486      -1.24523279       1.20259478
C        1.62765720      -0.44352530       0.89539601
C        0.65309841       0.56316414       0.49423783
C        0.44054933       0.79515322      -1.02837415
C       -0.97996206       0.37293899      -0.75271602
C       -1.22370667      -1.06625228       0.49114436
N       -0.78409196       0.23124977       0.62253381
H        0.83079803       1.47305340       1.06744075
H        1.03205340       0.13962684      -1.67049801
H        0.59486251       1.82993319      -1.33562204
H       -1.89903943       0.63891890      -1.25178099
H       -0.95030603      -1.90811810      -0.12722130
H       -1.72950759      -1.38090998       1.39286497
13
Frame=14 idx=010367 GeodesicLength=0.45561819245615653 rxn_smarts="[N:1]#[C:2][C@@:3]1([H:8])[C:4]([H:9])([H:10])[C@@:5]2([H:11])[C:6]([H:12])([H:13])[N:7]12>>[N:1]#[C:2][C@@:3]1([H:8])[C:4]([H:9])([H:10])[C:5]([H:11])=[N+:7]1[C-:6]([H:12])[H:13]"
N        2.38174448      -1.25232833       1.20019454
C        1.62574381      -0.44691941       0.89289666
C        0.65203614       0.56120060       0.49277269
C        0.43990788       0.79538442      -1.02831441
C       -0.97860174       0.36136925      -0.75662244
C       -1.22158287      -1.06052485       0.48753531
N       -0.78547409       0.23641965       0.62452796
H        0.83122943       1.46940347       1.06815576
H        1.03846387       0.15247421      -1.67622515
H        0.58477988       1.83449470      -1.32560861
H       -1.89356733       0.63501954      -1.25976332
H       -0.95214550      -1.91623025      -0.11346415
H       -1.72253396      -1.36976299       1.39391516
13
Frame=15 idx=010367 GeodesicLength=0.4880726736459373 rxn_smarts="[N:1]#[C:2][C@@:3]1([H:8])[C:4]([H:9])([H:10])[C@@:5]2([H:11])[C:6]([H:12])([H:13])[N:7]12>>[N:1]#[C:2][C@@:3]1([H:8])[C:4]([H:9])([H:10])[C:5]([H:11])=[N+:7]1[C-:6]([H:12])[H:13]"
N        2.37592996      -1.25938791       1.19771615
C        1.62400246      -0.45020678       0.89030432
C        0.65104641       0.55925700       0.49131157
C        0.43930046       0.79567523      -1.02823253
C       -0.97708475       0.34982191      -0.76040989
C       -1.21921163      -1.05495016       0.48402974
N       -0.78672603       0.24147083       0.62643583
H        0.83167684       1.46574759       1.06889295
H        1.04478789       0.16562279      -1.68188090
H        0.57460202       1.83893018      -1.31558045
H       -1.88788825       0.63070636      -1.26775086
H       -0.95452063      -1.92415637      -0.09957515
H       -1.71591474      -1.35853067       1.39473922
13
Frame=16 idx=010367 GeodesicLength=0.5205020338862765 rxn_smarts="[N:1]#[C:2][C@@:3]1([H:8])[C:4]([H:9])([H:10])[C@@:5]2([H:11])[C:6]([H:12])([H:13])[N:7]12>>[N:1]#[C:2][C@@:3]1([H:8])[C:4]([H:9])([H:10])[C:5]([H:11])=[N+:7]1[C-:6]([H:12])[H:13]"
N        2.37029258      -1.26626386       1.19512326
C        1.62238566      -0.45339728       0.88767342
C        0.65010892       0.55732392       0.48987106
C        0.43872117       0.79596556      -1.02812260
C       -0.97544521       0.33837596      -0.76403850
C       -1.21662706      -1.04953601       0.48056441
N       -0.78786066       0.24637768       0.62828800
H        0.83212438       1.46208510       1.06963903
H        1.05095515       0.17891072      -1.68741312
H        0.56441824       1.84314090      -1.30560973
H       -1.88205573       0.62616050      -1.27563157
H       -0.95727190      -1.93187116      -0.08558238
H       -1.70974553      -1.34727204       1.39523874
