14
Frame=0 idx=000827 GeodesicLength=0.0 rxn_smarts="[C:1]1([H:7])([H:8])[C@@:2]2([H:9])[C:3]([H:10])([H:11])[C:4]([H:12])=[C:5]([H:13])[C@@:6]12[H:14]>>[C:1]1([H:7])([H:8])[C@@:2]2([H:9])[C:3]([H:10])([H:11])[C:4]([H:12])([H:13])[C:5][C@@:6]12[H:14]"
C       -1.49845852       0.43049787       0.06322106
C       -0.30525155       0.45655182      -0.82687566
C        1.01710520       0.73928816      -0.14811137
C        1.12100905      -0.40246211       0.85188732
C        0.07420710      -1.33328658       0.83645787
C       -0.81405838      -0.87172078      -0.26476132
H       -1.40195039       0.81047044       1.07514386
H       -2.46878106       0.59550525      -0.38553229
H       -0.43728993       0.70622223      -1.87099692
H        1.03587278       1.69981498       0.37465197
H        1.85862431       0.73907855      -0.84464713
H        1.88799252      -0.41439915       1.62337969
H        1.29160111      -1.57153632       0.38374614
H       -1.36062222      -1.58402437      -0.86756326
14
Frame=1 idx=000827 GeodesicLength=0.04008106295987694 rxn_smarts="[C:1]1([H:7])([H:8])[C@@:2]2([H:9])[C:3]([H:10])([H:11])[C:4]([H:12])=[C:5]([H:13])[C@@:6]12[H:14]>>[C:1]1([H:7])([H:8])[C@@:2]2([H:9])[C:3]([H:10])([H:11])[C:4]([H:12])([H:13])[C:5][C@@:6]12[H:14]"
C       -1.49739174       0.43107883       0.06595792
C       -0.30678336       0.45899050      -0.82676926
C        1.01816653       0.73849138      -0.15124947
C        1.12428210      -0.40411220       0.84765147
C        0.07741370      -1.33464403       0.82615702
C       -0.81422037      -0.87150419      -0.26888740
H       -1.39836631       0.80743948       1.07888206
H       -2.46917119       0.59626702      -0.37961788
H       -0.44210061       0.71185004      -1.86973295
H        1.04016837       1.70026726       0.36903864
H        1.85646718       0.73605712      -0.85171224
H        1.86968838      -0.40104664       1.63987897
H        1.30506413      -1.58785225       0.39288594
H       -1.36321681      -1.58128232      -0.87248282
14
Frame=2 idx=000827 GeodesicLength=0.08019591369758719 rxn_smarts="[C:1]1([H:7])([H:8])[C@@:2]2([H:9])[C:3]([H:10])([H:11])[C:4]([H:12])=[C:5]([H:13])[C@@:6]12[H:14]>>[C:1]1([H:7])([H:8])[C@@:2]2([H:9])[C:3]([H:10])([H:11])[C:4]([H:12])([H:13])[C:5][C@@:6]12[H:14]"
C       -1.49622604       0.43160828       0.06880928
C       -0.30830581       0.46150027      -0.82664575
C        1.01929081       0.73767994      -0.15448157
C        1.12767306      -0.40575468       0.84338507
C        0.08083510      -1.33608745       0.81554159
C       -0.81432361      -0.87126701      -0.27311562
H       -1.39459994       0.80422590       1.08275556
H       -2.46949624       0.59700364      -0.37347908
H       -0.44698396       0.71765653      -1.86839306
H        1.04458268       1.70071115       0.36328624
H        1.85430640       0.73297020      -0.85890720
H        1.85042035      -0.38747770       1.65599564
H        1.31860385      -1.60430679       0.40277656
H       -1.36577665      -1.57846226      -0.87752766
14
Frame=3 idx=000827 GeodesicLength=0.12035607869704526 rxn_smarts="[C:1]1([H:7])([H:8])[C@@:2]2([H:9])[C:3]([H:10])([H:11])[C:4]([H:12])=[C:5]([H:13])[C@@:6]12[H:14]>>[C:1]1([H:7])([H:8])[C@@:2]2([H:9])[C:3]([H:10])([H:11])[C:4]([H:12])([H:13])[C:5][C@@:6]12[H:14]"
C       -1.49496144       0.43208393       0.07177373
C       -0.30981758       0.46408336      -0.82650121
C        1.02047601       0.73685797      -0.15780119
C        1.13117651      -0.40737949       0.83910535
C        0.08447594      -1.33761135       0.80460677
C       -0.81436689      -0.87100710      -0.27744449
H       -1.39065594       0.80082561       1.08676097
H       -2.46975333       0.59770900      -0.36712034
H       -0.45193462       0.72364221      -1.86697193
H        1.04911045       1.70115136       0.35739807
H        1.85214131       0.72982133      -0.86622188
H        1.83020948      -0.37372658       1.67164906
H        1.33219770      -1.62088732       0.41346310
H       -1.36829762      -1.57556293      -0.88269602
14
Frame=4 idx=000827 GeodesicLength=0.1605520338902553 rxn_smarts="[C:1]1([H:7])([H:8])[C@@:2]2([H:9])[C:3]([H:10])([H:11])[C:4]([H:12])=[C:5]([H:13])[C@@:6]12[H:14]>>[C:1]1([H:7])([H:8])[C@@:2]2([H:9])[C:3]([H:10])([H:11])[C:4]([H:12])([H:13])[C:5][C@@:6]12[H:14]"
C       -1.49359647       0.43250189       0.07485251
C       -0.31131639       0.46674238      -0.82633109
C        1.02172250       0.73602897      -0.16120255
C        1.13479048      -0.40897648       0.83483012
C        0.08834522      -1.33921189       0.79334293
C       -0.81434673      -0.87072205      -0.28187372
H       -1.38653597       0.79723131       1.09089841
H       -2.46994014       0.59837559      -0.36054156
H       -0.45694798       0.72980933      -1.86546318
H        1.05375068       1.70159232       0.35137595
H        1.84997308       0.72661261      -0.87364726
H        1.80905495      -0.35982755       1.68674265
H        1.34582184      -1.63757455       0.42500460
H       -1.37077507      -1.57258188      -0.88798782
14
Frame=5 idx=000827 GeodesicLength=0.20079170050879713 rxn_smarts="[C:1]1([H:7])([H:8])[C@@:2]2([H:9])[C:3]([H:10])([H:11])[C:4]([H:12])=[C:5]([H:13])[C@@:6]12[H:14]>>[C:1]1([H:7])([H:8])[C@@:2]2([H:9])[C:3]([H:10])([H:11])[C:4]([H:12])([H:13])[C:5][C@@:6]12[H:14]"
C       -1.49213524       0.43286058       0.07803922
C       -0.31280349       0.46948041      -0.82613343
C        1.02302410       0.73520084      -0.16467943
C        1.13850272      -0.41053322       0.83057290
C        0.09244379      -1.34088014       0.78174691
C       -0.81426422      -0.87040917      -0.28640285
H       -1.38225174       0.79344133       1.09515956
H       -2.47005684       0.59899644      -0.35375458
H       -0.46201984       0.73615777      -1.86386374
H        1.05849132       1.70204034       0.34522607
H        1.84779812       0.72335296      -0.88117237
H        1.78703609      -0.34583560       1.70120933
H        1.35944068      -1.65435390       0.43745517
H       -1.37320544      -1.56951863      -0.89340275
14
Frame=6 idx=000827 GeodesicLength=0.24108450238819942 rxn_smarts="[C:1]1([H:7])([H:8])[C@@:2]2([H:9])[C:3]([H:10])([H:11])[C:4]([H:12])=[C:5]([H:13])[C@@:6]12[H:14]>>[C:1]1([H:7])([H:8])[C@@:2]2([H:9])[C:3]([H:10])([H:11])[C:4]([H:12])([H:13])[C:5][C@@:6]12[H:14]"
C       -1.49058013       0.43315664       0.08133159
C       -0.31427836       0.47229994      -0.82590495
C        1.02437815       0.73438008      -0.16822547
C        1.14230369      -0.41203475       0.82635342
C        0.09677716      -1.34260954       0.76981214
C       -0.81411714      -0.87006632      -0.29103164
H       -1.37781114       0.78945006       1.09954076
H       -2.47010506       0.59956434      -0.34676516
H       -0.46714596       0.74268858      -1.86217015
H        1.06332641       1.70250367       0.33895159
H        1.84561625       0.72004665      -0.88878584
H        1.76420109      -0.33180061       1.71496388
H        1.37301810      -1.67120646       0.45087145
H       -1.37558307      -1.56637230      -0.89894161
14
Frame=7 idx=000827 GeodesicLength=0.28143807935725457 rxn_smarts="[C:1]1([H:7])([H:8])[C@@:2]2([H:9])[C:3]([H:10])([H:11])[C:4]([H:12])=[C:5]([H:13])[C@@:6]12[H:14]>>[C:1]1([H:7])([H:8])[C@@:2]2([H:9])[C:3]([H:10])([H:11])[C:4]([H:12])([H:13])[C:5][C@@:6]12[H:14]"
C       -1.48893392       0.43338752       0.08472525
C       -0.31574178       0.47520404      -0.82564375
C        1.02578004       0.73357473      -0.17183599
C        1.14618414      -0.41346987       0.82218269
C        0.10134931      -1.34439233       0.75753231
C       -0.81390457      -0.86969132      -0.29576070
H       -1.37322243       0.78525366       1.10403620
H       -2.47008473       0.60007127      -0.33958135
H       -0.47232367       0.74940295      -1.86037932
H        1.06824624       1.70298836       0.33255800
H        1.84342488       0.71670376      -0.89647899
H        1.74061786      -0.31777501       1.72793890
H        1.38651254      -1.68811532       0.46531139
H       -1.37790390      -1.56314242      -0.90460464
14
Frame=8 idx=000827 GeodesicLength=0.32183668102955726 rxn_smarts="[C:1]1([H:7])([H:8])[C@@:2]2([H:9])[C:3]([H:10])([H:11])[C:4]([H:12])=[C:5]([H:13])[C@@:6]12[H:14]>>[C:1]1([H:7])([H:8])[C@@:2]2([H:9])[C:3]([H:10])([H:11])[C:4]([H:12])([H:13])[C:5][C@@:6]12[H:14]"
C       -1.48719878       0.43354909       0.08821689
C       -0.31719414       0.47819637      -0.82534782
C        1.02722621       0.73279403      -0.17550616
C        1.15013549      -0.41482286       0.81807703
C        0.10617056      -1.34622142       0.74489663
C       -0.81362310      -0.86928123      -0.30059184
H       -1.36849291       0.78084572       1.10864268
H       -2.46999717       0.60050683      -0.33220900
H       -0.47755124       0.75630251      -1.85848722
H        1.07324243       1.70350321       0.32604893
H        1.84122315       0.71333343      -0.90424206
H        1.71634892      -0.30382271       1.74004497
H        1.39987238      -1.70505517       0.48085154
H       -1.38016180      -1.55982780      -0.91039457
14
Frame=9 idx=000827 GeodesicLength=0.36213127925683136 rxn_smarts="[C:1]1([H:7])([H:8])[C@@:2]2([H:9])[C:3]([H:10])([H:11])[C:4]([H:12])=[C:5]([H:13])[C@@:6]12[H:14]>>[C:1]1([H:7])([H:8])[C@@:2]2([H:9])[C:3]([H:10])([H:11])[C:4]([H:12])([H:13])[C:5][C@@:6]12[H:14]"
C       -1.48537454       0.43362891       0.09180349
C       -0.31864006       0.48128247      -0.82502198
C        1.02871435       0.73204468      -0.17924913
C        1.15416129      -0.41610366       0.81399691
C        0.11124880      -1.34809266       0.73187177
C       -0.81327077      -0.86883581      -0.30554306
H       -1.36361987       0.77619959       1.11335672
H       -2.46984398       0.60085648      -0.32464373
H       -0.48283850       0.76340190      -1.85649183
H        1.07831292       1.70404481       0.31943424
H        1.83900375       0.70995711      -0.91209268
H        1.69151954      -0.28995947       1.75132143
H        1.41298379      -1.72200069       0.49758736
H       -1.38235672      -1.55642364      -0.91632950
14
Frame=10 idx=000827 GeodesicLength=0.40246222808257115 rxn_smarts="[C:1]1([H:7])([H:8])[C@@:2]2([H:9])[C:3]([H:10])([H:11])[C:4]([H:12])=[C:5]([H:13])[C@@:6]12[H:14]>>[C:1]1([H:7])([H:8])[C@@:2]2([H:9])[C:3]([H:10])([H:11])[C:4]([H:12])([H:13])[C:5][C@@:6]12[H:14]"
C       -1.48346288       0.43362852       0.09548329
C       -0.32007796       0.48446327      -0.82466106
C        1.03024086       0.73133538      -0.18305279
C        1.15825039      -0.41728989       0.80997773
C        0.11659357      -1.34999648       0.71846413
C       -0.81284373      -0.86835357      -0.31060499
H       -1.35861185       0.77132206       1.11817522
H       -2.46962445       0.60111506      -0.31689414
H       -0.48817936       0.77069558      -1.85439055
H        1.08344557       1.70462589       0.31271398
H        1.83676840       0.70657935      -0.92001100
H        1.66615267      -0.27624900       1.76165903
H        1.42582826      -1.73894239       0.51554182
H       -1.38447949      -1.55293378      -0.92240065
14
Frame=11 idx=000827 GeodesicLength=0.44284505787605527 rxn_smarts="[C:1]1([H:7])([H:8])[C@@:2]2([H:9])[C:3]([H:10])([H:11])[C:4]([H:12])=[C:5]([H:13])[C@@:6]12[H:14]>>[C:1]1([H:7])([H:8])[C@@:2]2([H:9])[C:3]([H:10])([H:11])[C:4]([H:12])([H:13])[C:5][C@@:6]12[H:14]"
C       -1.48146395       0.43354115       0.09925464
C       -0.32150892       0.48774235      -0.82426466
C        1.03180406       0.73067571      -0.18691849
C        1.16240328      -0.41837568       0.80601269
C        0.12221662      -1.35192346       0.70465935
C       -0.81233675      -0.86783254      -0.31578094
H       -1.35347096       0.76620209       1.12309523
H       -2.46933925       0.60126930      -0.30896074
H       -0.49357635       0.77818799      -1.85217996
H        1.08863478       1.70525158       0.30589415
H        1.83451446       0.70321718      -0.92799781
H        1.64031561      -0.26272847       1.77102174
H        1.43833066      -1.75587034       0.53477575
H       -1.38652328      -1.54935685      -0.92861096
14
Frame=12 idx=000827 GeodesicLength=0.48329033290449563 rxn_smarts="[C:1]1([H:7])([H:8])[C@@:2]2([H:9])[C:3]([H:10])([H:11])[C:4]([H:12])=[C:5]([H:13])[C@@:6]12[H:14]>>[C:1]1([H:7])([H:8])[C@@:2]2([H:9])[C:3]([H:10])([H:11])[C:4]([H:12])([H:13])[C:5][C@@:6]12[H:14]"
C       -1.47937715       0.43335979       0.10311510
C       -0.32293471       0.49112307      -0.82383416
C        1.03340112       0.73007635      -0.19085018
C        1.16662167      -0.41935758       0.80208764
C        0.12812940      -1.35386384       0.69044222
C       -0.81174447      -0.86727219      -0.32107660
H       -1.34819662       0.76082759       1.12811345
H       -2.46898815       0.60130594      -0.30084366
H       -0.49903418       0.78588401      -1.84985778
H        1.09387190       1.70592731       0.29898127
H        1.83223791       0.69989177      -0.93605740
H        1.61408978      -0.24943566       1.77939350
H        1.45040520      -1.77277361       0.55535143
H       -1.38848169      -1.54569295      -0.93496484
14
Frame=13 idx=000827 GeodesicLength=0.5238109606439415 rxn_smarts="[C:1]1([H:7])([H:8])[C@@:2]2([H:9])[C:3]([H:10])([H:11])[C:4]([H:12])=[C:5]([H:13])[C@@:6]12[H:14]>>[C:1]1([H:7])([H:8])[C@@:2]2([H:9])[C:3]([H:10])([H:11])[C:4]([H:12])([H:13])[C:5][C@@:6]12[H:14]"
C       -1.47720026       0.43307620       0.10706303
C       -0.32435682       0.49460845      -0.82337045
C        1.03502975       0.72954810      -0.19485235
C        1.17091119      -0.42023573       0.79818342
C        0.13434466      -1.35580740       0.67579769
C       -0.81106062      -0.86667255      -0.32649681
H       -1.34278628       0.75518631       1.13322612
H       -2.46856956       0.60121029      -0.29254201
H       -0.50455783       0.79378814      -1.84742146
H        1.09914800       1.70665781       0.29198399
H        1.82993459       0.69662862      -0.94419570
H        1.58755468      -0.23640216       1.78676179
H        1.46195536      -1.78964281       0.57732901
H       -1.39034686      -1.54194328      -0.94146629
14
Frame=14 idx=000827 GeodesicLength=0.5643907392744734 rxn_smarts="[C:1]1([H:7])([H:8])[C@@:2]2([H:9])[C:3]([H:10])([H:11])[C:4]([H:12])=[C:5]([H:13])[C@@:6]12[H:14]>>[C:1]1([H:7])([H:8])[C@@:2]2([H:9])[C:3]([H:10])([H:11])[C:4]([H:12])([H:13])[C:5][C@@:6]12[H:14]"
C       -1.47492796       0.43267874       0.11110120
C       -0.32577537       0.49820250      -0.82287383
C        1.03669112       0.72910214      -0.19893117
C        1.17528319      -0.42100743       0.79428361
C        0.14088459      -1.35774692       0.66070194
C       -0.81027346      -0.86603377      -0.33204961
H       -1.33723152       0.74925775       1.13843610
H       -2.46808121       0.60096356      -0.28404681
H       -0.51015470       0.80190843      -1.84486572
H        1.10445945       1.70744884       0.28490648
H        1.82760251       0.69345179      -0.95242127
H        1.56076671      -0.22366166       1.79309143
H        1.47286481      -1.80645648       0.60079069
H       -1.39210817      -1.53810750      -0.94812304
14
Frame=15 idx=000827 GeodesicLength=0.6050495857071311 rxn_smarts="[C:1]1([H:7])([H:8])[C@@:2]2([H:9])[C:3]([H:10])([H:11])[C:4]([H:12])=[C:5]([H:13])[C@@:6]12[H:14]>>[C:1]1([H:7])([H:8])[C@@:2]2([H:9])[C:3]([H:10])([H:11])[C:4]([H:12])([H:13])[C:5][C@@:6]12[H:14]"
C       -1.47255548       0.43215629       0.11522971
C       -0.32719122       0.50190808      -0.82234526
C        1.03838448       0.72875054      -0.20309348
C        1.17974901      -0.42167328       0.79036425
C        0.14776699      -1.35967200       0.64513643
C       -0.80937291      -0.86535718      -0.33774173
H       -1.33152471       0.74302452       1.14374211
H       -2.46751982       0.60054692      -0.27535237
H       -0.51583199       0.81025030      -1.84218674
H        1.10979812       1.70830656       0.27775629
H        1.82523775       0.69039093      -0.96074410
H        1.53380354      -0.21124205       1.79837467
H        1.48301099      -1.82320178       0.62580082
H       -1.39375476      -1.53418786      -0.95494061
14
Frame=16 idx=000827 GeodesicLength=0.6457941793694453 rxn_smarts="[C:1]1([H:7])([H:8])[C@@:2]2([H:9])[C:3]([H:10])([H:11])[C:4]([H:12])=[C:5]([H:13])[C@@:6]12[H:14]>>[C:1]1([H:7])([H:8])[C@@:2]2([H:9])[C:3]([H:10])([H:11])[C:4]([H:12])([H:13])[C:5][C@@:6]12[H:14]"
C       -1.47007543       0.43149498       0.11945156
C       -0.32860437       0.50572795      -0.82178516
C        1.04011113       0.72850520      -0.20734750
C        1.18432499      -0.42223543       0.78639891
C        0.15501483      -1.36157336       0.62907857
C       -0.80834545      -0.86464483      -0.34358115
H       -1.32565390       0.73646502       1.14914594
H       -2.46688108       0.59993833      -0.26644837
H       -0.52159852       0.81882082      -1.83937912
H        1.11515848       1.70923686       0.27053979
H        1.82283721       0.68747699      -0.96917671
H        1.50673254      -0.19916745       1.80259916
H        1.49225270      -1.83985824       0.65242984
H       -1.39527313      -1.53018684      -0.96192576
