15
Frame=0 idx=006422 GeodesicLength=0.0 rxn_smarts="[C:1]([O:2][C:3](=[O:4])[C@@:5]([C:6]([H:12])([H:13])[H:14])([O:7][H:15])[H:11])([H:8])([H:9])[H:10]>>[C:1]([O:2][C:3](=[O:4])[C:6]([C:5](=[O:7])[H:11])([H:12])[H:14])([H:8])([H:9])[H:10].[H:13][H:15]"
C        2.58709524      -0.03875444       0.58403510
O        1.20163099       0.33340292       0.63069980
C        0.37869186      -0.48610291      -0.01036986
O        0.67006082      -1.45142387      -0.63262641
C       -1.22521096      -0.08625631       0.42804437
C       -1.19608363       0.66434258      -0.80640738
O       -2.01591738      -1.09356929       0.46033164
H        2.72653802      -1.01080211       1.05539713
H        3.11573846       0.73440461       1.13333097
H        2.92965394      -0.08420578      -0.44924379
H       -1.06716646       0.51820943       1.33328599
H       -0.80075392       1.67576905      -0.85217083
H       -3.02915363       0.47694519      -0.79251599
H       -1.23900612       0.09647775      -1.72767364
H       -3.03611716      -0.24843684      -0.35411716
15
Frame=1 idx=006422 GeodesicLength=0.08629937993441186 rxn_smarts="[C:1]([O:2][C:3](=[O:4])[C@@:5]([C:6]([H:12])([H:13])[H:14])([O:7][H:15])[H:11])([H:8])([H:9])[H:10]>>[C:1]([O:2][C:3](=[O:4])[C:6]([C:5](=[O:7])[H:11])([H:12])[H:14])([H:8])([H:9])[H:10].[H:13][H:15]"
C        2.58817018      -0.04160422       0.57835546
O        1.20537304       0.33952347       0.62024448
C        0.37749631      -0.47794392      -0.01786925
O        0.66648022      -1.45180079      -0.63007423
C       -1.23068040      -0.07817388       0.44401469
C       -1.19237320       0.66859582      -0.79691647
O       -2.02803001      -1.08123133       0.48093116
H        2.72136333      -1.01302865       1.05288735
H        3.12058596       0.72958695       1.12687084
H        2.93303769      -0.09245193      -0.45391912
H       -1.06602651       0.52500286       1.34872593
H       -0.80095987       1.68218540      -0.83077903
H       -3.02319399       0.45532879      -0.83077016
H       -1.22839892       0.11323975      -1.72598393
H       -3.04284382      -0.27722831      -0.36571773
15
Frame=2 idx=006422 GeodesicLength=0.17261144951577262 rxn_smarts="[C:1]([O:2][C:3](=[O:4])[C@@:5]([C:6]([H:12])([H:13])[H:14])([O:7][H:15])[H:11])([H:8])([H:9])[H:10]>>[C:1]([O:2][C:3](=[O:4])[C:6]([C:5](=[O:7])[H:11])([H:12])[H:14])([H:8])([H:9])[H:10].[H:13][H:15]"
C        2.58895871      -0.04447210       0.57251973
O        1.20885062       0.34538619       0.60995298
C        0.37598363      -0.47000779      -0.02513097
O        0.66250869      -1.45216102      -0.62743285
C       -1.23624928      -0.06976707       0.46006685
C       -1.18870611       0.67300482      -0.78738984
O       -2.04066394      -1.06815331       0.50165077
H        2.71613583      -1.01527082       1.05006067
H        3.12513719       0.72473468       1.12025330
H        2.93588377      -0.10054725      -0.45880978
H       -1.06491759       0.53203550       1.36425103
H       -0.80103629       1.68853966      -0.80945101
H       -3.01565584       0.43339030      -0.86864811
H       -1.21753987       0.13061927      -1.72426522
H       -3.04868952      -0.30733107      -0.37762754
15
Frame=3 idx=006422 GeodesicLength=0.25893665587344306 rxn_smarts="[C:1]([O:2][C:3](=[O:4])[C@@:5]([C:6]([H:12])([H:13])[H:14])([O:7][H:15])[H:11])([H:8])([H:9])[H:10]>>[C:1]([O:2][C:3](=[O:4])[C:6]([C:5](=[O:7])[H:11])([H:12])[H:14])([H:8])([H:9])[H:10].[H:13][H:15]"
C        2.58945889      -0.04737442       0.56654233
O        1.21206521       0.35101675       0.59979646
C        0.37415659      -0.46226338      -0.03218814
O        0.65814192      -1.45247940      -0.62474308
C       -1.24192077      -0.06101626       0.47618758
C       -1.18509964       0.67757706      -0.77784743
O       -2.05383269      -1.05429256       0.52246342
H        2.71081471      -1.01754781       1.04694723
H        3.12939545       0.71982351       1.11349890
H        2.93822198      -0.10852612      -0.46389379
H       -1.06384270       0.53932845       1.37984426
H       -0.80098508       1.69484019      -0.78822385
H       -3.00656298       0.41121127      -0.90605048
H       -1.20647033       0.14862993      -1.72251498
H       -3.05354057      -0.33892721      -0.38981843
15
Frame=4 idx=006422 GeodesicLength=0.34527612387059026 rxn_smarts="[C:1]([O:2][C:3](=[O:4])[C@@:5]([C:6]([H:12])([H:13])[H:14])([O:7][H:15])[H:11])([H:8])([H:9])[H:10]>>[C:1]([O:2][C:3](=[O:4])[C:6]([C:5](=[O:7])[H:11])([H:12])[H:14])([H:8])([H:9])[H:10].[H:13][H:15]"
C        2.58966703      -0.05032997       0.56043808
O        1.21501892       0.35644058       0.58974421
C        0.37201700      -0.45467723      -0.03907699
O        0.65337289      -1.45272950      -0.62204787
C       -1.24769662      -0.05189864       0.49236299
C       -1.18157049       0.68232529      -0.76830892
O       -2.06755180      -1.03959904       0.54333886
H        2.70535446      -1.01988068       1.04357705
H        3.13336289       0.71482509       1.10663001
H        2.94008099      -0.11642628      -0.46914762
H       -1.06280253       0.54690468       1.39548863
H       -0.80080844       1.70110176      -0.76713154
H       -2.99594822       0.38887161      -0.94288810
H       -1.19523588       0.16728871      -1.72072977
H       -3.05726019      -0.37221637      -0.40224903
15
Frame=5 idx=006422 GeodesicLength=0.43163097020508334 rxn_smarts="[C:1]([O:2][C:3](=[O:4])[C@@:5]([C:6]([H:12])([H:13])[H:14])([O:7][H:15])[H:11])([H:8])([H:9])[H:10]>>[C:1]([O:2][C:3](=[O:4])[C:6]([C:5](=[O:7])[H:11])([H:12])[H:14])([H:8])([H:9])[H:10].[H:13][H:15]"
C        2.58957684      -0.05335677       0.55421625
O        1.21771052       0.36167376       0.57977885
C        0.36956224      -0.44722099      -0.04582434
O        0.64818804      -1.45289116      -0.61937920
C       -1.25358239      -0.04238964       0.50858105
C       -1.17812958       0.68726661      -0.75879042
O       -2.08184963      -1.02401218       0.56423929
H        2.69971804      -1.02229100       1.03996678
H        3.13704042       0.70971188       1.09966171
H        2.94147543      -0.12427687      -0.47455704
H       -1.06180377       0.55478596       1.41117125
H       -0.80050058       1.70734301      -0.74619833
H       -2.98384438       0.36644753      -0.97909796
H       -1.18387467       0.18661560      -1.71890223
H       -3.05968653      -0.40740574      -0.41486567
15
Frame=6 idx=006422 GeodesicLength=0.5180059858363848 rxn_smarts="[C:1]([O:2][C:3](=[O:4])[C@@:5]([C:6]([H:12])([H:13])[H:14])([O:7][H:15])[H:11])([H:8])([H:9])[H:10]>>[C:1]([O:2][C:3](=[O:4])[C:6]([C:5](=[O:7])[H:11])([H:12])[H:14])([H:8])([H:9])[H:10].[H:13][H:15]"
C        2.58917970      -0.05647640       0.54788686
O        1.22013896       0.36673345       0.56987958
C        0.36678791      -0.43986253      -0.05246195
O        0.64256910      -1.45294205      -0.61677320
C       -1.25958278      -0.03246037       0.52482893
C       -1.17478891       0.69242611      -0.74930810
O       -2.09675972      -1.00746023       0.58512144
H        2.69386113      -1.02480376       1.03613432
H        3.14042783       0.70445080       1.09261169
H        2.94241939      -0.13211248      -0.48010606
H       -1.06085090       0.56299632       1.42688015
H       -0.80005734       1.71359148      -0.72544558
H       -2.97029036       0.34401032      -1.01462352
H       -1.17243043       0.20663578      -1.71702540
H       -3.06062356      -0.44472643      -0.42759918
15
Frame=7 idx=006422 GeodesicLength=0.6044131223708062 rxn_smarts="[C:1]([O:2][C:3](=[O:4])[C@@:5]([C:6]([H:12])([H:13])[H:14])([O:7][H:15])[H:11])([H:8])([H:9])[H:10]>>[C:1]([O:2][C:3](=[O:4])[C:6]([C:5](=[O:7])[H:11])([H:12])[H:14])([H:8])([H:9])[H:10].[H:13][H:15]"
C        2.58846446      -0.05971204       0.54145671
O        1.22230040       0.37163164       0.56003430
C        0.36368592      -0.43257253      -0.05901759
O        0.63649206      -1.45286640      -0.61426208
C       -1.26570585      -0.02207940       0.54109584
C       -1.17155954       0.69783785      -0.73987731
O       -2.11232908      -0.98985917       0.60593178
H        2.68774352      -1.02744832       1.03209112
H        3.14352397       0.69900843       1.08549379
H        2.94291678      -0.13996584      -0.48578642
H       -1.05995330       0.57155923       1.44261108
H       -0.79947401       1.71988567      -0.70488704
H       -2.95532276       0.32162149      -1.04943252
H       -1.16094360       0.22738103      -1.71509471
H       -3.05983896      -0.48442163      -0.44035695
15
Frame=8 idx=006422 GeodesicLength=0.6908978068623646 rxn_smarts="[C:1]([O:2][C:3](=[O:4])[C@@:5]([C:6]([H:12])([H:13])[H:14])([O:7][H:15])[H:11])([H:8])([H:9])[H:10]>>[C:1]([O:2][C:3](=[O:4])[C:6]([C:5](=[O:7])[H:11])([H:12])[H:14])([H:8])([H:9])[H:10].[H:13][H:15]"
C        2.58743247      -0.06309683       0.53494236
O        1.22419701       0.37638764       0.55023377
C        0.36025082      -0.42532218      -0.06552909
O        0.62993853      -1.45266781      -0.61189677
C       -1.27195935      -0.01120602       0.55737770
C       -1.16847710       0.70355785      -0.73052526
O       -2.12860606      -0.97111601       0.62661309
H        2.68134490      -1.03027690       1.02786588
H        3.14634197       0.69334940       1.07834356
H        2.94297973      -0.14788764      -0.49159411
H       -1.05911422       0.58051288       1.45838541
H       -0.79878205       1.72630081      -0.68454085
H       -2.93899981       0.29933341      -1.08351769
H       -1.14948562       0.24889620      -1.71313559
H       -3.05706124      -0.52676482      -0.45302241
15
Frame=9 idx=006422 GeodesicLength=0.7773038324910788 rxn_smarts="[C:1]([O:2][C:3](=[O:4])[C@@:5]([C:6]([H:12])([H:13])[H:14])([O:7][H:15])[H:11])([H:8])([H:9])[H:10]>>[C:1]([O:2][C:3](=[O:4])[C:6]([C:5](=[O:7])[H:11])([H:12])[H:14])([H:8])([H:9])[H:10].[H:13][H:15]"
C        2.58603662      -0.06661825       0.52831174
O        1.22579366       0.38095568       0.54050689
C        0.35645884      -0.41808808      -0.07198232
O        0.62286132      -1.45225841      -0.60963954
C       -1.27836670       0.00013956       0.57360817
C       -1.16546649       0.70955125      -0.72122561
O       -2.14572241      -0.95111185       0.64695819
H        2.67461010      -1.03325018       1.02335521
H        3.14883598       0.68743297       1.07111621
H        2.94255930      -0.15579887      -0.49751968
H       -1.05839779       0.58977115       1.47410392
H       -0.79785286       1.73274229      -0.66435924
H       -2.92122852       0.27709596      -1.11698283
H       -1.13798049       0.27117189      -1.71102853
H       -3.05214056      -0.57173511      -0.46522259
15
Frame=10 idx=006422 GeodesicLength=0.8637587321879255 rxn_smarts="[C:1]([O:2][C:3](=[O:4])[C@@:5]([C:6]([H:12])([H:13])[H:14])([O:7][H:15])[H:11])([H:8])([H:9])[H:10]>>[C:1]([O:2][C:3](=[O:4])[C:6]([C:5](=[O:7])[H:11])([H:12])[H:14])([H:8])([H:9])[H:10].[H:13][H:15]"
C        2.58433149      -0.07029203       0.52175551
O        1.22717227       0.38551052       0.53055294
C        0.35245634      -0.41079874      -0.07871728
O        0.61551188      -1.45160547      -0.60786882
C       -1.28480183       0.01179126       0.58965282
C       -1.16263629       0.71575967      -0.71214816
O       -2.16343577      -0.93012785       0.66673504
H        2.66736537      -1.03634612       1.01898327
H        3.15097865       0.68132653       1.06405145
H        2.94198849      -0.16395734      -0.50330415
H       -1.05768704       0.59916804       1.48969275
H       -0.79690575       1.73923637      -0.64451825
H       -2.90232230       0.25526923      -1.14969534
H       -1.12673957       0.29409438      -1.70896969
H       -3.04527594      -0.61902847      -0.47620209
15
Frame=11 idx=006422 GeodesicLength=0.9502674634673292 rxn_smarts="[C:1]([O:2][C:3](=[O:4])[C@@:5]([C:6]([H:12])([H:13])[H:14])([O:7][H:15])[H:11])([H:8])([H:9])[H:10]>>[C:1]([O:2][C:3](=[O:4])[C:6]([C:5](=[O:7])[H:11])([H:12])[H:14])([H:8])([H:9])[H:10].[H:13][H:15]"
C        2.58215325      -0.07418099       0.51503133
O        1.22817532       0.38981822       0.52077860
C        0.34799665      -0.40346605      -0.08536615
O        0.60744439      -1.45071358      -0.60619136
C       -1.29147292       0.02408505       0.60565324
C       -1.15985772       0.72242004      -0.70314427
O       -2.18227110      -0.90745184       0.68606476
H        2.65967979      -1.03973713       1.01413612
H        3.15273419       0.67478514       1.05692262
H        2.94075848      -0.17204214      -0.50929640
H       -1.05719576       0.60900274       1.50525796
H       -0.79560197       1.74591480      -0.62486738
H       -2.88191014       0.23360096      -1.18165438
H       -1.11547287       0.31790078      -1.70674100
H       -3.03515957      -0.66993599      -0.48658369
15
Frame=12 idx=006422 GeodesicLength=1.0368554593482255 rxn_smarts="[C:1]([O:2][C:3](=[O:4])[C@@:5]([C:6]([H:12])([H:13])[H:14])([O:7][H:15])[H:11])([H:8])([H:9])[H:10]>>[C:1]([O:2][C:3](=[O:4])[C:6]([C:5](=[O:7])[H:11])([H:12])[H:14])([H:8])([H:9])[H:10].[H:13][H:15]"
C        2.57963487      -0.07826572       0.50832076
O        1.22889429       0.39399314       0.51101819
C        0.34324531      -0.39608471      -0.09219994
O        0.59896569      -1.44960681      -0.60494933
C       -1.29828384       0.03679313       0.62145530
C       -1.15722908       0.72943310      -0.69437466
O       -2.20204112      -0.88340401       0.70454463
H        2.65159857      -1.04340234       1.00914740
H        3.15414590       0.66792792       1.04998546
H        2.93919602      -0.18018768      -0.51528931
H       -1.05688002       0.61903262       1.52074871
H       -0.79415828       1.75276472      -0.60550420
H       -2.86027170       0.21228132      -1.21312452
H       -1.10443054       0.34243337      -1.70453766
H       -3.02238607      -0.72370804      -0.49524083
15
Frame=13 idx=006422 GeodesicLength=1.1235152766573264 rxn_smarts="[C:1]([O:2][C:3](=[O:4])[C@@:5]([C:6]([H:12])([H:13])[H:14])([O:7][H:15])[H:11])([H:8])([H:9])[H:10]>>[C:1]([O:2][C:3](=[O:4])[C:6]([C:5](=[O:7])[H:11])([H:12])[H:14])([H:8])([H:9])[H:10].[H:13][H:15]"
C        2.57671623      -0.08255261       0.50161931
O        1.22929418       0.39801451       0.50127104
C        0.33819025      -0.38862289      -0.09926465
O        0.59005143      -1.44822719      -0.60418202
C       -1.30525705       0.04988693       0.63698073
C       -1.15470122       0.73681037      -0.68586774
O       -2.22284445      -0.85788433       0.72193779
H        2.64302222      -1.04734605       1.00396826
H        3.15514526       0.66070584       1.04325378
H        2.93727211      -0.18835403      -0.52126163
H       -1.05680600       0.62916431       1.53609935
H       -0.79250562       1.75977018      -0.58642636
H       -2.83734011       0.19141845      -1.24412684
H       -1.09358123       0.36769281      -1.70233815
H       -3.00665600      -0.78047628      -0.50166285
15
Frame=14 idx=006422 GeodesicLength=1.2102430664430772 rxn_smarts="[C:1]([O:2][C:3](=[O:4])[C@@:5]([C:6]([H:12])([H:13])[H:14])([O:7][H:15])[H:11])([H:8])([H:9])[H:10]>>[C:1]([O:2][C:3](=[O:4])[C:6]([C:5](=[O:7])[H:11])([H:12])[H:14])([H:8])([H:9])[H:10].[H:13][H:15]"
C        2.57340140      -0.08703236       0.49498668
O        1.22937891       0.40188402       0.49151275
C        0.33288608      -0.38106595      -0.10667297
O        0.58080502      -1.44653688      -0.60403647
C       -1.31238005       0.06326384       0.65211176
C       -1.15225141       0.74451353      -0.67770960
O       -2.24467063      -0.83093800       0.73794695
H        2.63391972      -1.05157651       0.99862405
H        3.15568686       0.65310832       1.03686116
H        2.93507211      -0.19648950      -0.52712959
H       -1.05702366       0.63924945       1.55123251
H       -0.79063702       1.76689326      -0.56768824
H       -2.81318002       0.17122894      -1.27475219
H       -1.08297782       0.39359308      -1.70020413
H       -2.98802947      -0.84009524      -0.50508268
15
Frame=15 idx=006422 GeodesicLength=1.2970524674371926 rxn_smarts="[C:1]([O:2][C:3](=[O:4])[C@@:5]([C:6]([H:12])([H:13])[H:14])([O:7][H:15])[H:11])([H:8])([H:9])[H:10]>>[C:1]([O:2][C:3](=[O:4])[C:6]([C:5](=[O:7])[H:11])([H:12])[H:14])([H:8])([H:9])[H:10].[H:13][H:15]"
C        2.56969379      -0.09169860       0.48846771
O        1.22914352       0.40558444       0.48176268
C        0.32737346      -0.37341113      -0.11450473
O        0.57130704      -1.44452079      -0.60462346
C       -1.31966604       0.07683756       0.66673405
C       -1.14984684       0.75252052      -0.66998441
O       -2.26753921      -0.80258023       0.75226718
H        2.62429115      -1.05611536       0.99310627
H        3.15573463       0.64512251       1.03092126
H        2.93264766      -0.20452540      -0.53284126
H       -1.05761353       0.64915858       1.56608076
H       -0.78852734       1.77411010      -0.54933677
H       -2.78788767       0.15203087      -1.30507181
H       -1.07265090       0.42005095      -1.69819820
H       -2.96645973      -0.90256401      -0.50477927
15
Frame=16 idx=006422 GeodesicLength=1.3839459717718219 rxn_smarts="[C:1]([O:2][C:3](=[O:4])[C@@:5]([C:6]([H:12])([H:13])[H:14])([O:7][H:15])[H:11])([H:8])([H:9])[H:10]>>[C:1]([O:2][C:3](=[O:4])[C:6]([C:5](=[O:7])[H:11])([H:12])[H:14])([H:8])([H:9])[H:10].[H:13][H:15]"
C        2.56560288      -0.09654058       0.48212239
O        1.22859024       0.40910054       0.47203246
C        0.32171065      -0.36565589      -0.12285862
O        0.56166944      -1.44215430      -0.60608383
C       -1.32712325       0.09049922       0.68071065
C       -1.14744446       0.76079200      -0.66279186
O       -2.29142756      -0.77287301       0.76457123
H        2.61413318      -1.06098304       0.98741281
H        3.15524513       0.63673510       1.02558040
H        2.93007778      -0.21237840      -0.53832169
H       -1.05866138       0.65873975       1.58055441
H       -0.78614864       1.78137842      -0.53143379
H       -2.76162649       0.13425135      -1.33517596
H       -1.06263036       0.44696107      -1.69640146
H       -2.94196715      -0.96787223      -0.49991714
