15
Frame=0 idx=007510 GeodesicLength=0.0 rxn_smarts="[O:1]([C:2]([C:3]([C:4](=[O:5])[C:6]([O:7][H:15])([H:13])[H:14])([H:11])[H:12])([H:9])[H:10])[H:8]>>[O:1]1[C:2]([H:9])([H:10])[C:3]([H:11])([H:12])[C@:4]1([O:5][H:8])[C:6]([O:7][H:15])([H:13])[H:14]"
O       -0.45739301       1.15745021      -0.68299015
C       -1.68123511       0.38680951      -0.53828119
C       -1.01115675      -0.83683348       0.07715558
C        0.36804047      -0.19377914      -0.13379614
O        0.97506018      -0.37698241      -1.28792200
C        1.25806224       0.05366458       1.05561776
O        2.45495500       0.66191434       0.68644835
H        0.21181340       0.62309755      -1.52391266
H       -2.16597695       0.23903784      -1.50328308
H       -2.35607710       0.91773040       0.13018351
H       -1.10698911      -1.76863617      -0.47552179
H       -1.25991917      -0.99728253       1.12620413
H        0.74360121       0.67335703       1.79307120
H        1.42038474      -0.93895964       1.50923952
H        2.60682994       0.39941197      -0.23221310
15
Frame=1 idx=007510 GeodesicLength=0.09002526462712897 rxn_smarts="[O:1]([C:2]([C:3]([C:4](=[O:5])[C:6]([O:7][H:15])([H:13])[H:14])([H:11])[H:12])([H:9])[H:10])[H:8]>>[O:1]1[C:2]([H:9])([H:10])[C:3]([H:11])([H:12])[C@:4]1([O:5][H:8])[C:6]([O:7][H:15])([H:13])[H:14]"
O       -0.48181196       1.17120327      -0.66875867
C       -1.69126532       0.37922911      -0.53433550
C       -1.00630272      -0.83946848       0.07417933
C        0.36836509      -0.18935852      -0.13710492
O        0.96953127      -0.35751355      -1.29524657
C        1.25817739       0.06257305       1.05165843
O        2.47024401       0.64015514       0.68074242
H        0.21786047       0.67203537      -1.52967738
H       -2.16818469       0.22566512      -1.50259444
H       -2.38110917       0.89058395       0.13447585
H       -1.09891826      -1.76908413      -0.48279877
H       -1.25088241      -1.00572158       1.12332022
H        0.75379182       0.70977727       1.77263740
H        1.39810905      -0.92008516       1.53245984
H        2.64239543       0.33000914      -0.21895725
15
Frame=2 idx=007510 GeodesicLength=0.1796815252981246 rxn_smarts="[O:1]([C:2]([C:3]([C:4](=[O:5])[C:6]([O:7][H:15])([H:13])[H:14])([H:11])[H:12])([H:9])[H:10])[H:8]>>[O:1]1[C:2]([H:9])([H:10])[C:3]([H:11])([H:12])[C@:4]1([O:5][H:8])[C:6]([O:7][H:15])([H:13])[H:14]"
O       -0.50645001       1.18440466      -0.65437904
C       -1.70107998       0.37134446      -0.53050277
C       -1.00132332      -0.84215832       0.07123641
C        0.36876273      -0.18514727      -0.14039981
O        0.96411546      -0.33703027      -1.30251433
C        1.25863214       0.07146443       1.04748954
O        2.48576529       0.61634488       0.67444414
H        0.22396755       0.72223078      -1.53418821
H       -2.16973040       0.21224885      -1.50217130
H       -2.40569171       0.86277338       0.13825632
H       -1.09056372      -1.76958517      -0.49001481
H       -1.24162119      -1.01399493       1.12047748
H        0.76562325       0.74660787       1.75090328
H        1.37554343      -0.89973646       1.55587096
H        2.67405048       0.26023312      -0.20450787
15
Frame=3 idx=007510 GeodesicLength=0.26901181242790245 rxn_smarts="[O:1]([C:2]([C:3]([C:4](=[O:5])[C:6]([O:7][H:15])([H:13])[H:14])([H:11])[H:12])([H:9])[H:10])[H:8]>>[O:1]1[C:2]([H:9])([H:10])[C:3]([H:11])([H:12])[C@:4]1([O:5][H:8])[C:6]([O:7][H:15])([H:13])[H:14]"
O       -0.53124511       1.19700477      -0.63991845
C       -1.71064626       0.36317680      -0.52676586
C       -0.99622310      -0.84491763       0.06832163
C        0.36925223      -0.18119825      -0.14367990
O        0.95882277      -0.31563992      -1.30967161
C        1.25940720       0.08031379       1.04312626
O        2.50135752       0.59053461       0.66777921
H        0.23012947       0.77358022      -1.53741804
H       -2.17064352       0.19883734      -1.50196416
H       -2.42972530       0.83436292       0.14155774
H       -1.08196838      -1.77014057      -0.49718674
H       -1.23214954      -1.02212998       1.11766899
H        0.77908511       0.78369336       1.72781139
H        1.35274024      -0.87782300       1.57942080
H        2.70180666       0.19034556      -0.18908128
15
Frame=4 idx=007510 GeodesicLength=0.3580531247496873 rxn_smarts="[O:1]([C:2]([C:3]([C:4](=[O:5])[C:6]([O:7][H:15])([H:13])[H:14])([H:11])[H:12])([H:9])[H:10])[H:8]>>[O:1]1[C:2]([H:9])([H:10])[C:3]([H:11])([H:12])[C@:4]1([O:5][H:8])[C:6]([O:7][H:15])([H:13])[H:14]"
O       -0.55615901       1.20897269      -0.62542688
C       -1.71994713       0.35473957      -0.52310832
C       -0.99100142      -0.84776137       0.06542459
C        0.36984795      -0.17754561      -0.14694909
O        0.95366373      -0.29342310      -1.31667169
C        1.26047649       0.08911803       1.03858292
O        2.51684116       0.56279773       0.66095888
H        0.23632616       0.82600863      -1.53933214
H       -2.17096899       0.18546284      -1.50192950
H       -2.45313695       0.80540126       0.14441773
H       -1.07315650      -1.77075291      -0.50434007
H       -1.22247016      -1.03016085       1.11488363
H        0.79418503       0.82089762       1.70329476
H        1.32975229      -0.85422702       1.60303184
H        2.72574733       0.12047249      -0.17283666
15
Frame=5 idx=007510 GeodesicLength=0.4468316307780333 rxn_smarts="[O:1]([C:2]([C:3]([C:4](=[O:5])[C:6]([O:7][H:15])([H:13])[H:14])([H:11])[H:12])([H:9])[H:10])[H:8]>>[O:1]1[C:2]([H:9])([H:10])[C:3]([H:11])([H:12])[C@:4]1([O:5][H:8])[C:6]([O:7][H:15])([H:13])[H:14]"
O       -0.58115178       1.22030128      -0.61093269
C       -1.72898410       0.34604372      -0.51952543
C       -0.98568024      -0.85069713       0.06254117
C        0.37055933      -0.17420753      -0.15022999
O        0.94862976      -0.27049989      -1.32345355
C        1.26184743       0.09787987       1.03385136
O        2.53211404       0.53313677       0.65406671
H        0.24252603       0.87942793      -1.53988050
H       -2.17072735       0.17215978      -1.50204653
H       -2.47591821       0.77593306       0.14686936
H       -1.06418498      -1.77142944      -0.51148273
H       -1.21260048      -1.03809609       1.11212166
H        0.81088200       0.85805537       1.67727034
H        1.30666632      -0.82887503       1.62662048
H        2.74602223       0.05086733      -0.15578966
15
Frame=6 idx=007510 GeodesicLength=0.5353787850420817 rxn_smarts="[O:1]([C:2]([C:3]([C:4](=[O:5])[C:6]([O:7][H:15])([H:13])[H:14])([H:11])[H:12])([H:9])[H:10])[H:8]>>[O:1]1[C:2]([H:9])([H:10])[C:3]([H:11])([H:12])[C@:4]1([O:5][H:8])[C:6]([O:7][H:15])([H:13])[H:14]"
O       -0.60619773       1.23096486      -0.59648126
C       -1.73773572       0.33710232      -0.51598224
C       -0.98023962      -0.85374511       0.05965406
C        0.37140239      -0.17122358      -0.15353227
O        0.94373903      -0.24690527      -1.32999613
C        1.26346861       0.10660560       1.02894392
O        2.54697007       0.50169057       0.64732064
H        0.24872240       0.93378428      -1.53905800
H       -2.16999060       0.15895537      -1.50224307
H       -2.49797808       0.74599785       0.14897045
H       -1.05505570      -1.77216930      -0.51865303
H       -1.20251091      -1.04599342       1.10936088
H        0.82917413       0.89507622       1.64967005
H        1.28348810      -0.80165235       1.65010128
H        2.76274363      -0.01848804      -0.13807529
15
Frame=7 idx=007510 GeodesicLength=0.623757092016336 rxn_smarts="[O:1]([C:2]([C:3]([C:4](=[O:5])[C:6]([O:7][H:15])([H:13])[H:14])([H:11])[H:12])([H:9])[H:10])[H:8]>>[O:1]1[C:2]([H:9])([H:10])[C:3]([H:11])([H:12])[C@:4]1([O:5][H:8])[C:6]([O:7][H:15])([H:13])[H:14]"
O       -0.63121302       1.24094233      -0.58212195
C       -1.74617071       0.32794817      -0.51245739
C       -0.97468470      -0.85690744       0.05676145
C        0.37240110      -0.16865097      -0.15687252
O        0.93901567      -0.22279967      -1.33625675
C        1.26531622       0.11526745       1.02387101
O        2.56126040       0.46859451       0.64083912
H        0.25492117       0.98894653      -1.53692270
H       -2.16880099       0.14589305      -1.50246324
H       -2.51923124       0.71570234       0.15077671
H       -1.04582846      -1.77296749      -0.52585179
H       -1.19220084      -1.05385966       1.10659856
H        0.84895173       0.93177504       1.62049366
H        1.26033528      -0.77258561       1.67334930
H        2.77592839      -0.08729858      -0.11974347
15
Frame=8 idx=007510 GeodesicLength=0.7120041882602662 rxn_smarts="[O:1]([C:2]([C:3]([C:4](=[O:5])[C:6]([O:7][H:15])([H:13])[H:14])([H:11])[H:12])([H:9])[H:10])[H:8]>>[O:1]1[C:2]([H:9])([H:10])[C:3]([H:11])([H:12])[C@:4]1([O:5][H:8])[C:6]([O:7][H:15])([H:13])[H:14]"
O       -0.65618103       1.25024208      -0.56786978
C       -1.75428810       0.31859031      -0.50892890
C       -0.96900941      -0.86019273       0.05385277
C        0.37356927      -0.16649780      -0.16027474
O        0.93446549      -0.19823152      -1.34221233
C        1.26736850       0.12389072       1.01862300
O        2.57481590       0.43401839       0.63472989
H        0.26109568       1.04488274      -1.53347670
H       -2.16721031       0.13299013      -1.50266516
H       -2.53965536       0.68507365       0.15234215
H       -1.03651960      -1.77382479      -0.53310012
H       -1.18164257      -1.06172218       1.10382635
H        0.87016116       0.96800753       1.58969117
H        1.23729186      -0.74159023       1.69622040
H        2.78573853      -0.15563629      -0.10075800
15
Frame=9 idx=007510 GeodesicLength=0.8001005072541041 rxn_smarts="[O:1]([C:2]([C:3]([C:4](=[O:5])[C:6]([O:7][H:15])([H:13])[H:14])([H:11])[H:12])([H:9])[H:10])[H:8]>>[O:1]1[C:2]([H:9])([H:10])[C:3]([H:11])([H:12])[C@:4]1([O:5][H:8])[C:6]([O:7][H:15])([H:13])[H:14]"
O       -0.68109349       1.25888394      -0.55374060
C       -1.76209534       0.30904125      -0.50537905
C       -0.96322285      -0.86360247       0.05092265
C        0.37491030      -0.16475672      -0.16377973
O        0.93007849      -0.17327579      -1.34784457
C        1.26963115       0.13251283       1.01316804
O        2.58752744       0.39813164       0.62899482
H        0.26717885       1.10156003      -1.52867815
H       -2.16525403       0.12026937      -1.50281946
H       -2.55924802       0.65413205       0.15371011
H       -1.02716833      -1.77474131      -0.54040481
H       -1.17081488      -1.06959197       1.10104579
H        0.89270861       1.00357790       1.55722783
H        1.21442843      -0.70859814       1.71853337
H        2.79243366      -0.22354262      -0.08095625
15
Frame=10 idx=007510 GeodesicLength=0.8881063130350737 rxn_smarts="[O:1]([C:2]([C:3]([C:4](=[O:5])[C:6]([O:7][H:15])([H:13])[H:14])([H:11])[H:12])([H:9])[H:10])[H:8]>>[O:1]1[C:2]([H:9])([H:10])[C:3]([H:11])([H:12])[C@:4]1([O:5][H:8])[C:6]([O:7][H:15])([H:13])[H:14]"
O       -0.70585846       1.26685182      -0.53976889
C       -1.76955983       0.29934393      -0.50178167
C       -0.95733325      -0.86713808       0.04797529
C        0.37644626      -0.16350782      -0.16740066
O        0.92587718      -0.14808246      -1.35313413
C        1.27205225       0.14108137       1.00751953
O        2.59921236       0.36115429       0.62381040
H        0.27322127       1.15884362      -1.52264365
H       -2.16299375       0.10776724      -1.50286690
H       -2.57792649       0.62300197       0.15493695
H       -1.01784549      -1.77571544      -0.54775563
H       -1.15971353      -1.07746600       1.09826169
H        0.91650154       1.03828528       1.52313088
H        1.19187579      -0.67370851       1.74011658
H        2.79604413      -0.29071120      -0.06039980
15
Frame=11 idx=007510 GeodesicLength=0.9760517656533514 rxn_smarts="[O:1]([C:2]([C:3]([C:4](=[O:5])[C:6]([O:7][H:15])([H:13])[H:14])([H:11])[H:12])([H:9])[H:10])[H:8]>>[O:1]1[C:2]([H:9])([H:10])[C:3]([H:11])([H:12])[C@:4]1([O:5][H:8])[C:6]([O:7][H:15])([H:13])[H:14]"
O       -0.73041697       1.27415713      -0.52597783
C       -1.77667211       0.28953607      -0.49811583
C       -0.95136135      -0.87079513       0.04501969
C        0.37818902      -0.16279147      -0.17116692
O        0.92186141      -0.12278630      -1.35807144
C        1.27460830       0.14958578       1.00166832
O        2.60975319       0.32335740       0.61923367
H        0.27923256       1.21664717      -1.51544657
H       -2.16047509       0.09551308      -1.50276678
H       -2.59566231       0.59177387       0.15607084
H       -1.00862912      -1.77674888      -0.55513142
H       -1.14833637      -1.08532991       1.09548865
H        0.94138276       1.07189026       1.48745163
H        1.16975319      -0.63701708       1.76076139
H        2.79677290      -0.35699198      -0.03901738
15
Frame=12 idx=007510 GeodesicLength=1.0639458266296398 rxn_smarts="[O:1]([C:2]([C:3]([C:4](=[O:5])[C:6]([O:7][H:15])([H:13])[H:14])([H:11])[H:12])([H:9])[H:10])[H:8]>>[O:1]1[C:2]([H:9])([H:10])[C:3]([H:11])([H:12])[C@:4]1([O:5][H:8])[C:6]([O:7][H:15])([H:13])[H:14]"
O       -0.75468461       1.28081024      -0.51240733
C       -1.78341587       0.27967033      -0.49435960
C       -0.94533606      -0.87456457       0.04206857
C        0.38015184      -0.16266742      -0.17511110
O        0.91802925      -0.09757342      -1.36266303
C        1.27727739       0.15798782       0.99559838
O        2.61904262       0.28506985       0.61529448
H        0.28523449       1.27485220      -1.50720234
H       -2.15774899       0.08354646      -1.50247627
H       -2.61240726       0.56058350       0.15716519
H       -0.99962095      -1.77784402      -0.56249782
H       -1.13669308      -1.09315318       1.09274683
H        0.96713507       1.10411410       1.45032043
H        1.14821481      -0.59870239       1.78023933
H        2.79482136      -0.42212950      -0.01671570
15
Frame=13 idx=007510 GeodesicLength=1.1517673277955212 rxn_smarts="[O:1]([C:2]([C:3]([C:4](=[O:5])[C:6]([O:7][H:15])([H:13])[H:14])([H:11])[H:12])([H:9])[H:10])[H:8]>>[O:1]1[C:2]([H:9])([H:10])[C:3]([H:11])([H:12])[C@:4]1([O:5][H:8])[C:6]([O:7][H:15])([H:13])[H:14]"
O       -0.77861734       1.28684334      -0.49907203
C       -1.78979415       0.26979319      -0.49050496
C       -0.93929416      -0.87842576       0.03914293
C        0.38232813      -0.16316088      -0.17926819
O        0.91435301      -0.07261500      -1.36693053
C        1.28005534       0.16626873       0.98927409
O        2.62703331       0.24661026       0.61195009
H        0.29121867       1.33337897      -1.49797458
H       -2.15483839       0.07189743      -1.50198322
H       -2.62816914       0.52951998       0.15823745
H       -0.99091881      -1.77900152      -0.56979810
H       -1.12480298      -1.10088249       1.09006686
H        0.99354600       1.13470055       1.41190046
H        1.12737446      -0.55896546       1.79831742
H        2.79052605      -0.48596135       0.00664232
15
Frame=14 idx=007510 GeodesicLength=1.2395600248548229 rxn_smarts="[O:1]([C:2]([C:3]([C:4](=[O:5])[C:6]([O:7][H:15])([H:13])[H:14])([H:11])[H:12])([H:9])[H:10])[H:8]>>[O:1]1[C:2]([H:9])([H:10])[C:3]([H:11])([H:12])[C@:4]1([O:5][H:8])[C:6]([O:7][H:15])([H:13])[H:14]"
O       -0.80211633       1.29226869      -0.48600026
C       -1.79579195       0.25996285      -0.48653063
C       -0.93327299      -0.88237350       0.03626290
C        0.38473555      -0.16436083      -0.18366240
O        0.91081892      -0.04809582      -1.37089962
C        1.28289625       0.17436203       0.98269861
O        2.63367988       0.20833378       0.60924390
H        0.29728966       1.39211995      -1.48795271
H       -2.15179919       0.06059833      -1.50124813
H       -2.64291538       0.49874292       0.15933590
H       -0.98264240      -1.78023674      -0.57698386
H       -1.11269812      -1.10847981       1.08747456
H        1.02035580       1.16342768       1.37238004
H        1.10740172      -0.51812233       1.81480980
H        2.78405859      -0.54814720       0.03107189
15
Frame=15 idx=007510 GeodesicLength=1.3273331601488068 rxn_smarts="[O:1]([C:2]([C:3]([C:4](=[O:5])[C:6]([O:7][H:15])([H:13])[H:14])([H:11])[H:12])([H:9])[H:10])[H:8]>>[O:1]1[C:2]([H:9])([H:10])[C:3]([H:11])([H:12])[C@:4]1([O:5][H:8])[C:6]([O:7][H:15])([H:13])[H:14]"
O       -0.82513186       1.29712013      -0.47320253
C       -1.80141662       0.25022649      -0.48243065
C       -0.92731552      -0.88639126       0.03345358
C        0.38737207      -0.16631314      -0.18832229
O        0.90738578      -0.02418079      -1.37461078
C        1.28578046       0.18222740       0.97585019
O        2.63900693       0.17055321       0.60712108
H        0.30351302       1.45102615      -1.47725498
H       -2.14865793       0.04966888      -1.50026123
H       -2.65667048       0.46835642       0.16047486
H       -0.97489765      -1.78156167      -0.58398826
H       -1.10041917      -1.11588855       1.08500282
H        1.04730403       1.19011272       1.33197732
H        1.08840465      -0.47648059       1.82955107
H        2.77574229      -0.60847540       0.05663981
15
Frame=16 idx=007510 GeodesicLength=1.4150741374174416 rxn_smarts="[O:1]([C:2]([C:3]([C:4](=[O:5])[C:6]([O:7][H:15])([H:13])[H:14])([H:11])[H:12])([H:9])[H:10])[H:8]>>[O:1]1[C:2]([H:9])([H:10])[C:3]([H:11])([H:12])[C@:4]1([O:5][H:8])[C:6]([O:7][H:15])([H:13])[H:14]"
O       -0.84761480       1.30143386      -0.46069746
C       -1.80667899       0.24063248      -0.47820246
C       -0.92146878      -0.89046187       0.03074094
C        0.39023331      -0.16906765      -0.19327778
O        0.90400561      -0.00104365      -1.37811952
C        1.28868934       0.18981679       0.96870221
O        2.64306293       0.13358492       0.60549779
H        0.30996669       1.51005790      -1.46600369
H       -2.14544408       0.03912447      -1.49901771
H       -2.66946041       0.43847809       0.16166528
H       -0.96779461      -1.78299261      -0.59073838
H       -1.08801902      -1.12304659       1.08268517
H        1.07411887       1.21459926       1.29094392
H        1.07049930      -0.43440313       1.84238977
H        2.76590466      -0.66671228       0.08343190
