13
Frame=0 idx=008947 GeodesicLength=0.0 rxn_smarts="[O:1]=[C:2]1[C:3]([H:8])([H:9])[C:4]2([C:5]([H:10])([H:11])[O:6]2)[C:7]1([H:12])[H:13]>>[O:1]=[C:2]([C:7]([C@@:4]1([C:3][H:8])[C:5]([H:10])([H:11])[O:6]1)([H:12])[H:13])[H:9]"
O       -2.73162139      -0.73117370      -1.00429152
C       -1.78567757      -0.37172358      -0.40213976
C       -0.42548568       1.18758911       0.83789357
C        0.38498801       0.21892020       0.10394770
C        1.84521377       0.22653328       0.22307056
O        1.24302369       0.59012415      -0.99902035
C       -0.44751026      -1.01734223      -0.13169982
H       -0.35256211       2.17996511       0.36245449
H       -1.78237187       0.66924395       0.18203735
H        2.33189504       1.03249128       0.76674201
H        2.37483973      -0.72314845       0.23779011
H       -0.11378967      -1.64644124      -0.95520949
H       -0.54094169      -1.61503785       0.77842511
13
Frame=1 idx=008947 GeodesicLength=0.07248678554223117 rxn_smarts="[O:1]=[C:2]1[C:3]([H:8])([H:9])[C:4]2([C:5]([H:10])([H:11])[O:6]2)[C:7]1([H:12])[H:13]>>[O:1]=[C:2]([C:7]([C@@:4]1([C:3][H:8])[C:5]([H:10])([H:11])[O:6]1)([H:12])[H:13])[H:9]"
O       -2.76917705      -0.78172461      -0.90775545
C       -1.79208430      -0.37626265      -0.38641680
C       -0.43539195       1.18224429       0.81240132
C        0.38378704       0.21909939       0.08273560
C        1.84143868       0.22805246       0.24068123
O        1.26880357       0.58630876      -0.99684097
C       -0.44540688      -1.01864660      -0.15307246
H       -0.31788915       2.19123778       0.38576332
H       -1.78386370       0.72427109       0.10894364
H        2.31752858       1.03602192       0.79060787
H        2.36846382      -0.72264313       0.27342532
H       -0.12617616      -1.63050474      -0.99553765
H       -0.51003249      -1.63745395       0.74506503
13
Frame=2 idx=008947 GeodesicLength=0.14470132229178037 rxn_smarts="[O:1]=[C:2]1[C:3]([H:8])([H:9])[C:4]2([C:5]([H:10])([H:11])[O:6]2)[C:7]1([H:12])[H:13]>>[O:1]=[C:2]([C:7]([C@@:4]1([C:3][H:8])[C:5]([H:10])([H:11])[O:6]1)([H:12])[H:13])[H:9]"
O       -2.80408779      -0.82564105      -0.79723244
C       -1.79821053      -0.38136416      -0.36649657
C       -0.44716026       1.17793895       0.78211118
C        0.38287501       0.21878847       0.06114268
C        1.83642776       0.22966252       0.26043514
O        1.29610220       0.58122674      -0.99314752
C       -0.44286580      -1.02034908      -0.17670346
H       -0.28525426       2.20011775       0.40738560
H       -1.78072229       0.77425697       0.02695744
H        2.30046074       1.04025474       0.81653911
H        2.36030889      -0.72180326       0.31301527
H       -0.14153534      -1.61118844      -1.04076846
H       -0.47633834      -1.66190015       0.70676204
13
Frame=3 idx=008947 GeodesicLength=0.21668190977959303 rxn_smarts="[O:1]=[C:2]1[C:3]([H:8])([H:9])[C:4]2([C:5]([H:10])([H:11])[O:6]2)[C:7]1([H:12])[H:13]>>[O:1]=[C:2]([C:7]([C@@:4]1([C:3][H:8])[C:5]([H:10])([H:11])[O:6]1)([H:12])[H:13])[H:9]"
O       -2.83219218      -0.86069172      -0.68208020
C       -1.80340011      -0.38597869      -0.34345123
C       -0.45930968       1.17595199       0.74721837
C        0.38248438       0.21832202       0.03918818
C        1.83055863       0.23107785       0.28139191
O        1.32467815       0.57446936      -0.98845156
C       -0.44022524      -1.02215423      -0.20149965
H       -0.25653430       2.20737066       0.42442545
H       -1.77692127       0.81451741      -0.05168167
H        2.28192934       1.04488415       0.84307658
H        2.35026865      -0.72124631       0.35534509
H       -0.15963198      -1.58944254      -1.08831827
H       -0.44170440      -1.68707994       0.66483700
13
Frame=4 idx=008947 GeodesicLength=0.28827168322214336 rxn_smarts="[O:1]=[C:2]1[C:3]([H:8])([H:9])[C:4]2([C:5]([H:10])([H:11])[O:6]2)[C:7]1([H:12])[H:13]>>[O:1]=[C:2]([C:7]([C@@:4]1([C:3][H:8])[C:5]([H:10])([H:11])[O:6]1)([H:12])[H:13])[H:9]"
O       -2.85166605      -0.88860868      -0.56636647
C       -1.80690650      -0.38956285      -0.31904294
C       -0.47064201       1.17627792       0.70854182
C        0.38266724       0.21794171       0.01669839
C        1.82370286       0.23201210       0.30290189
O        1.35418304       0.56606950      -0.98301840
C       -0.43761186      -1.02354536      -0.22694504
H       -0.23165130       2.21335697       0.43643799
H       -1.77495965       0.84549208      -0.12202132
H        2.26226155       1.04918586       0.86961290
H        2.33776063      -0.72130750       0.39942927
H       -0.17982025      -1.56563382      -1.13638816
H       -0.40731770      -1.71167793       0.62016008
13
Frame=5 idx=008947 GeodesicLength=0.359940546802729 rxn_smarts="[O:1]=[C:2]1[C:3]([H:8])([H:9])[C:4]2([C:5]([H:10])([H:11])[O:6]2)[C:7]1([H:12])[H:13]>>[O:1]=[C:2]([C:7]([C@@:4]1([C:3][H:8])[C:5]([H:10])([H:11])[O:6]1)([H:12])[H:13])[H:9]"
O       -2.86320974      -0.91063386      -0.45163261
C       -1.80879448      -0.39266256      -0.29381263
C       -0.48109077       1.17836142       0.66694755
C        0.38337924       0.21752097      -0.00621212
C        1.81593638       0.23269494       0.32455100
O        1.38417996       0.55615820      -0.97695354
C       -0.43512947      -1.02480257      -0.25265419
H       -0.20930289       2.21836079       0.44585006
H       -1.77526416       0.86928628      -0.18557433
H        2.24177569       1.05363807       0.89534923
H        2.32307637      -0.72164915       0.44464918
H       -0.20173350      -1.54067510      -1.18391915
H       -0.37382265      -1.73559742       0.57341154
13
Frame=6 idx=008947 GeodesicLength=0.4320081558031958 rxn_smarts="[O:1]=[C:2]1[C:3]([H:8])([H:9])[C:4]2([C:5]([H:10])([H:11])[O:6]2)[C:7]1([H:12])[H:13]>>[O:1]=[C:2]([C:7]([C@@:4]1([C:3][H:8])[C:5]([H:10])([H:11])[O:6]1)([H:12])[H:13])[H:9]"
O       -2.86739833      -0.92754823      -0.33419064
C       -1.80879158      -0.39565943      -0.26866230
C       -0.49085249       1.18175715       0.62202153
C        0.38459193       0.21696734      -0.02981157
C        1.80692856       0.23325207       0.34658137
O        1.41480828       0.54472246      -0.97003977
C       -0.43262081      -1.02592390      -0.27929705
H       -0.18844035       2.22209259       0.45427854
H       -1.77730529       0.88717448      -0.24549242
H        2.21981100       1.05838576       0.92066852
H        2.30561448      -0.72201442       0.49170156
H       -0.22528501      -1.51427226      -1.23155044
H       -0.34106040      -1.75893361       0.52379266
13
Frame=7 idx=008947 GeodesicLength=0.5041727471679294 rxn_smarts="[O:1]=[C:2]1[C:3]([H:8])([H:9])[C:4]2([C:5]([H:10])([H:11])[O:6]2)[C:7]1([H:12])[H:13]>>[O:1]=[C:2]([C:7]([C@@:4]1([C:3][H:8])[C:5]([H:10])([H:11])[O:6]1)([H:12])[H:13])[H:9]"
O       -2.86352164      -0.94064609      -0.21894729
C       -1.80706914      -0.39838048      -0.24240008
C       -0.49940555       1.18658121       0.57439175
C        0.38636115       0.21640697      -0.05395669
C        1.79687380       0.23354788       0.36846784
O        1.44575609       0.53168903      -0.96247884
C       -0.43030205      -1.02680598      -0.30600456
H       -0.16934582       2.22480465       0.46174957
H       -1.78211543       0.90043284      -0.29982404
H        2.19708299       1.06319157       0.94486741
H        2.28543555      -0.72260899       0.53963415
H       -0.25041623      -1.48689606      -1.27794046
H       -0.30933371      -1.78131655       0.47244124
13
Frame=8 idx=008947 GeodesicLength=0.576525370917206 rxn_smarts="[O:1]=[C:2]1[C:3]([H:8])([H:9])[C:4]2([C:5]([H:10])([H:11])[O:6]2)[C:7]1([H:12])[H:13]>>[O:1]=[C:2]([C:7]([C@@:4]1([C:3][H:8])[C:5]([H:10])([H:11])[O:6]1)([H:12])[H:13])[H:9]"
O       -2.85152417      -0.95095538      -0.10431712
C       -1.80347227      -0.40068154      -0.21518080
C       -0.50671907       1.19277968       0.52369125
C        0.38877302       0.21586124      -0.07877053
C        1.78565403       0.23347227       0.39041428
O        1.47728182       0.51704874      -0.95399709
C       -0.42818162      -1.02730431      -0.33309797
H       -0.15207846       2.22645123       0.46841587
H       -1.78959824       0.91003108      -0.34972800
H        2.17340931       1.06780161       0.96841573
H        2.26218742      -0.72353048       0.58859790
H       -0.27714627      -1.45827517      -1.32336118
H       -0.27858551      -1.80269898       0.41891766
13
Frame=9 idx=008947 GeodesicLength=0.6490404363192669 rxn_smarts="[O:1]=[C:2]1[C:3]([H:8])([H:9])[C:4]2([C:5]([H:10])([H:11])[O:6]2)[C:7]1([H:12])[H:13]>>[O:1]=[C:2]([C:7]([C@@:4]1([C:3][H:8])[C:5]([H:10])([H:11])[O:6]1)([H:12])[H:13])[H:9]"
O       -2.83175783      -0.95695964       0.01081610
C       -1.79768219      -0.40278964      -0.18838539
C       -0.51310008       1.19963465       0.46984950
C        0.39179862       0.21510465      -0.10432361
C        1.77317583       0.23340150       0.41206666
O        1.50894413       0.50095758      -0.94472740
C       -0.42607934      -1.02779892      -0.36058048
H       -0.13654737       2.22589941       0.47702634
H       -1.79891815       0.91625208      -0.39727294
H        2.14852782       1.07278787       0.99079289
H        2.23578134      -0.72417153       0.63829780
H       -0.30489045      -1.42934952      -1.36740842
H       -0.24925233      -1.82296848       0.36384896
13
Frame=10 idx=008947 GeodesicLength=0.7217230813325601 rxn_smarts="[O:1]=[C:2]1[C:3]([H:8])([H:9])[C:4]2([C:5]([H:10])([H:11])[O:6]2)[C:7]1([H:12])[H:13]>>[O:1]=[C:2]([C:7]([C@@:4]1([C:3][H:8])[C:5]([H:10])([H:11])[O:6]1)([H:12])[H:13])[H:9]"
O       -2.80337228      -0.96089868       0.12426763
C       -1.78964395      -0.40400999      -0.16010130
C       -0.51789581       1.20759602       0.41258387
C        0.39567128       0.21430614      -0.13068119
C        1.75945695       0.23291723       0.43363840
O        1.54118886       0.48304253      -0.93438641
C       -0.42426825      -1.02778225      -0.38826011
H       -0.12365122       2.22357050       0.48556387
H       -1.81071502       0.92010476      -0.44081512
H        2.12267739       1.07749910       1.01235883
H        2.20587615      -0.72505112       0.68871074
H       -0.33426234      -1.39941326      -1.40996136
H       -0.22106178      -1.84188097       0.30708217
13
Frame=11 idx=008947 GeodesicLength=0.7948755683061146 rxn_smarts="[O:1]=[C:2]1[C:3]([H:8])([H:9])[C:4]2([C:5]([H:10])([H:11])[O:6]2)[C:7]1([H:12])[H:13]>>[O:1]=[C:2]([C:7]([C@@:4]1([C:3][H:8])[C:5]([H:10])([H:11])[O:6]1)([H:12])[H:13])[H:9]"
O       -2.76674303      -0.96004702       0.23808738
C       -1.77909468      -0.40465972      -0.13234497
C       -0.52153626       1.21592585       0.35168355
C        0.40040016       0.21320863      -0.15800075
C        1.74451845       0.23251501       0.45467375
O        1.57368056       0.46363495      -0.92318234
C       -0.42245041      -1.02783657      -0.41630728
H       -0.11376185       2.21769238       0.49742571
H       -1.82400282       0.92160770      -0.48260466
H        2.09549871       1.08268888       1.03262459
H        2.17239728      -0.72547675       0.73958872
H       -0.36447948      -1.36966593      -1.45088332
H       -0.19442663      -1.85958741       0.24923961
13
Frame=12 idx=008947 GeodesicLength=0.8683239880857504 rxn_smarts="[O:1]=[C:2]1[C:3]([H:8])([H:9])[C:4]2([C:5]([H:10])([H:11])[O:6]2)[C:7]1([H:12])[H:13]>>[O:1]=[C:2]([C:7]([C@@:4]1([C:3][H:8])[C:5]([H:10])([H:11])[O:6]1)([H:12])[H:13])[H:9]"
O       -2.72151547      -0.95648167       0.34891705
C       -1.76590329      -0.40372388      -0.10373119
C       -0.52324072       1.22449443       0.28803709
C        0.40623213       0.21185046      -0.18604517
C        1.72849562       0.23179250       0.47524877
O        1.60645783       0.44258302      -0.91083565
C       -0.42094083      -1.02749493      -0.44417331
H       -0.10862265       2.20850503       0.50993396
H       -1.83878988       0.92204933      -0.52061095
H        2.06754836       1.08770265       1.05167062
H        2.13560175      -0.72583762       0.79015041
H       -0.39579630      -1.33981199      -1.48955966
H       -0.16952657      -1.87562732       0.19099803
13
Frame=13 idx=008947 GeodesicLength=0.9427904235988366 rxn_smarts="[O:1]=[C:2]1[C:3]([H:8])([H:9])[C:4]2([C:5]([H:10])([H:11])[O:6]2)[C:7]1([H:12])[H:13]>>[O:1]=[C:2]([C:7]([C@@:4]1([C:3][H:8])[C:5]([H:10])([H:11])[O:6]1)([H:12])[H:13])[H:9]"
O       -2.66750225      -0.94685080       0.45905397
C       -1.74982391      -0.40171689      -0.07619168
C       -0.52339687       1.23244602       0.22189032
C        0.41309801       0.21002493      -0.21497750
C        1.71138266       0.23123220       0.49490035
O        1.63904354       0.42023269      -0.89756359
C       -0.41934973      -1.02722230      -0.47221995
H       -0.10868923       2.19359090       0.52557521
H       -1.85404688       0.92130769      -0.55648104
H        2.03825607       1.09317192       1.06914581
H        2.09494717      -0.72540872       0.84055324
H       -0.42755462      -1.31057927      -1.52628349
H       -0.14636396      -1.89022836       0.13259835
13
Frame=14 idx=008947 GeodesicLength=1.0184831144509177 rxn_smarts="[O:1]=[C:2]1[C:3]([H:8])([H:9])[C:4]2([C:5]([H:10])([H:11])[O:6]2)[C:7]1([H:12])[H:13]>>[O:1]=[C:2]([C:7]([C@@:4]1([C:3][H:8])[C:5]([H:10])([H:11])[O:6]1)([H:12])[H:13])[H:9]"
O       -2.60494776      -0.93299662       0.56591968
C       -1.73127618      -0.39803124      -0.04940175
C       -0.52169362       1.23934555       0.15553249
C        0.42112814       0.20771162      -0.24421724
C        1.69349947       0.23045819       0.51376110
O        1.67139529       0.39691689      -0.88305631
C       -0.41796990      -1.02683078      -0.49999146
H       -0.11535426       2.17403826       0.54070456
H       -1.86943794       0.92094944      -0.58845366
H        2.00815131       1.09850858       1.08543372
H        2.05130627      -0.72472128       0.88961848
H       -0.45951659      -1.28202425      -1.56064250
H       -0.12528423      -1.90332437       0.07479288
13
Frame=15 idx=008947 GeodesicLength=1.095667355888119 rxn_smarts="[O:1]=[C:2]1[C:3]([H:8])([H:9])[C:4]2([C:5]([H:10])([H:11])[O:6]2)[C:7]1([H:12])[H:13]>>[O:1]=[C:2]([C:7]([C@@:4]1([C:3][H:8])[C:5]([H:10])([H:11])[O:6]1)([H:12])[H:13])[H:9]"
O       -2.53584219      -0.91434110       0.66700234
C       -1.71077345      -0.39289351      -0.02428098
C       -0.51852457       1.24452820       0.09118537
C        0.43003802       0.20487836      -0.27319349
C        1.67530692       0.22974569       0.53118168
O        1.70247169       0.37338863      -0.86784660
C       -0.41673248      -1.02659639      -0.52668512
H       -0.12838494       2.14906716       0.55631200
H       -1.88398664       0.92162091      -0.61705830
H        1.97791237       1.10397193       1.09978412
H        2.00584004      -0.72338637       0.93599109
H       -0.49082991      -1.25512366      -1.59183213
H       -0.10649488      -1.91485985       0.01944002
13
Frame=16 idx=008947 GeodesicLength=1.1745615351702958 rxn_smarts="[O:1]=[C:2]1[C:3]([H:8])([H:9])[C:4]2([C:5]([H:10])([H:11])[O:6]2)[C:7]1([H:12])[H:13]>>[O:1]=[C:2]([C:7]([C@@:4]1([C:3][H:8])[C:5]([H:10])([H:11])[O:6]1)([H:12])[H:13])[H:9]"
O       -2.46134254      -0.89228224       0.76116674
C       -1.68890687      -0.38660027      -0.00080912
C       -0.51425769       1.24767078       0.03089050
C        0.43955996       0.20155609      -0.30126617
C        1.65697178       0.22894986       0.54733443
O        1.73179576       0.35015939      -0.85184025
C       -0.41574274      -1.02644433      -0.55204681
H       -0.14677382       2.12018832       0.56985811
H       -1.89734378       0.92386272      -0.64197421
H        1.94779228       1.10920506       1.11262021
H        1.95941707      -0.72165048       0.97906408
H       -0.52128562      -1.22967001      -1.61986417
H       -0.08988378      -1.92494489      -0.03313334
