16
Frame=0 idx=011770 GeodesicLength=0.0 rxn_smarts="[C:1]([C:2]1([C:3]([H:11])([H:12])[H:13])[C:4]([H:14])([H:15])[N:5]([H:16])[C:6]1=[O:7])([H:8])([H:9])[H:10]>>[C:1]([C:2]([C:3]([H:11])([H:12])[H:13])=[C:6]=[O:7])([H:8])([H:9])[H:10].[C:4](=[N:5][H:16])([H:14])[H:15]"
C        1.29538943       0.71320130       0.13313259
C        0.25401490      -0.37633267       0.18297792
C        0.68080076      -1.58311010       0.95759195
C       -1.50788956       1.37287794      -0.12889709
N       -1.28725440       0.62704196      -1.19712606
C       -0.69792332      -0.62223225      -0.85884855
O       -1.06822006      -1.68613052      -1.33356362
H        2.25046002       0.28618393      -0.20119547
H        1.47865450       1.13959968       1.12266831
H        1.04408100       1.52800936      -0.54437035
H        1.03824272      -1.29378477       1.94930684
H        1.51239774      -2.09489862       0.45599746
H       -0.13034192      -2.30342335       1.05630218
H       -1.87064797       0.92064315       0.77738609
H       -1.52578050       2.45482930      -0.22428118
H       -1.46598341       0.91752568      -2.14708105
16
Frame=1 idx=011770 GeodesicLength=0.09599307287389382 rxn_smarts="[C:1]([C:2]1([C:3]([H:11])([H:12])[H:13])[C:4]([H:14])([H:15])[N:5]([H:16])[C:6]1=[O:7])([H:8])([H:9])[H:10]>>[C:1]([C:2]([C:3]([H:11])([H:12])[H:13])=[C:6]=[O:7])([H:8])([H:9])[H:10].[C:4](=[N:5][H:16])([H:14])[H:15]"
C        1.31275695       0.70447806       0.11607069
C        0.25894112      -0.37297256       0.18184961
C        0.67427722      -1.57414227       0.97404787
C       -1.51598024       1.36044700      -0.11452874
N       -1.29280301       0.64217121      -1.20341977
C       -0.67555085      -0.62635198      -0.87344853
O       -1.04766777      -1.68394601      -1.35470536
H        2.26019599       0.26773140      -0.22609197
H        1.50954150       1.13485375       1.10129244
H        1.05989208       1.51858749      -0.56181608
H        1.02297115      -1.27612792       1.96625115
H        1.50814956      -2.09543825       0.48683770
H       -0.14063818      -2.29048614       1.07175135
H       -1.91350353       0.88683525       0.76697177
H       -1.54949071       2.44427231      -0.18631810
H       -1.47109127       0.96008867      -2.14474404
16
Frame=2 idx=011770 GeodesicLength=0.19167537323360384 rxn_smarts="[C:1]([C:2]1([C:3]([H:11])([H:12])[H:13])[C:4]([H:14])([H:15])[N:5]([H:16])[C:6]1=[O:7])([H:8])([H:9])[H:10]>>[C:1]([C:2]([C:3]([H:11])([H:12])[H:13])=[C:6]=[O:7])([H:8])([H:9])[H:10].[C:4](=[N:5][H:16])([H:14])[H:15]"
C        1.32991629       0.69554555       0.09938575
C        0.26388952      -0.36958033       0.18068273
C        0.66795597      -1.56492169       0.99012574
C       -1.52434336       1.34753659      -0.10062748
N       -1.29835760       0.65769667      -1.20965431
C       -0.65340086      -0.63068255      -0.88731041
O       -1.02789314      -1.68170556      -1.37506841
H        2.26972931       0.24916129      -0.25011320
H        1.53980478       1.12967030       1.08026105
H        1.07586837       1.50889459      -0.57909480
H        1.00812346      -1.25822809       1.98259287
H        1.50388447      -2.09536243       0.51714297
H       -0.15055275      -2.27743558       1.08696977
H       -1.95518050       0.85374988       0.75488186
H       -1.57307668       2.43253958      -0.14876255
H       -1.47636728       1.00312176      -2.14141156
16
Frame=3 idx=011770 GeodesicLength=0.2870518012288272 rxn_smarts="[C:1]([C:2]1([C:3]([H:11])([H:12])[H:13])[C:4]([H:14])([H:15])[N:5]([H:16])[C:6]1=[O:7])([H:8])([H:9])[H:10]>>[C:1]([C:2]([C:3]([H:11])([H:12])[H:13])=[C:6]=[O:7])([H:8])([H:9])[H:10].[C:4](=[N:5][H:16])([H:14])[H:15]"
C        1.34683301       0.68641767       0.08309257
C        0.26882948      -0.36616544       0.17950128
C        0.66187345      -1.55547556       1.00582539
C       -1.53300355       1.33416352      -0.08725981
N       -1.30391775       0.67366013      -1.21586076
C       -0.63147331      -0.63528928      -0.90045142
O       -1.00898928      -1.67944873      -1.39463523
H        2.27907066       0.23051552      -0.27319881
H        1.56933821       1.12412869       1.05959532
H        1.09200130       1.49890080      -0.59625422
H        0.99378048      -1.24013782       1.99833071
H        1.49963605      -2.09469420       0.54686223
H       -0.16003491      -2.26431669       1.10199228
H       -1.99573184       0.82142446       0.74119164
H       -1.59640204       2.41967149      -0.11164234
H       -1.48180997       1.04664544      -2.13708884
16
Frame=4 idx=011770 GeodesicLength=0.3821371827747798 rxn_smarts="[C:1]([C:2]1([C:3]([H:11])([H:12])[H:13])[C:4]([H:14])([H:15])[N:5]([H:16])[C:6]1=[O:7])([H:8])([H:9])[H:10]>>[C:1]([C:2]([C:3]([H:11])([H:12])[H:13])=[C:6]=[O:7])([H:8])([H:9])[H:10].[C:4](=[N:5][H:16])([H:14])[H:15]"
C        1.36347487       0.67711817       0.06721053
C        0.27372877      -0.36273928       0.17833097
C        0.65606360      -1.54584378       1.02115296
C       -1.54197642       1.32035560      -0.07449464
N       -1.30949705       0.69009962      -1.22207374
C       -0.60977108      -0.64024108      -0.91289235
O       -0.99103232      -1.67722199      -1.41341668
H        2.28823593       0.21184888      -0.29528875
H        1.59804217       1.11832202       1.03932921
H        1.10828046       1.48858940      -0.61334009
H        0.98001913      -1.22192633       2.01348231
H        1.49543828      -2.09346737       0.57594701
H       -0.16903985      -2.25119584       1.11685339
H       -2.03518693       0.78991166       0.72599542
H       -1.61932917       2.40572764      -0.07499982
H       -1.48745040       1.09066268      -2.13179574
16
Frame=5 idx=011770 GeodesicLength=0.4768780308029502 rxn_smarts="[C:1]([C:2]1([C:3]([H:11])([H:12])[H:13])[C:4]([H:14])([H:15])[N:5]([H:16])[C:6]1=[O:7])([H:8])([H:9])[H:10]>>[C:1]([C:2]([C:3]([H:11])([H:12])[H:13])=[C:6]=[O:7])([H:8])([H:9])[H:10].[C:4](=[N:5][H:16])([H:14])[H:15]"
C        1.37984044       0.66763014       0.05179207
C        0.27859341      -0.35930672       0.17718062
C        0.65055372      -1.53604980       1.03608866
C       -1.55119381       1.30618190      -0.06240731
N       -1.31501718       0.70710226      -1.22830158
C       -0.58821850      -0.64556061      -0.92465707
O       -0.97400364      -1.67499660      -1.43142013
H        2.29727592       0.19315822      -0.31625735
H        1.62580751       1.11228881       1.01951374
H        1.12474335       1.47790255      -0.63033706
H        0.96687037      -1.20366158       2.02802421
H        1.49132347      -2.09172268       0.60436293
H       -0.17753023      -2.23808082       1.13153150
H       -2.07354820       0.75931359       0.70930853
H       -1.64179740       2.39078028      -0.03893307
H       -1.49369924       1.13502106      -2.12548867
16
Frame=6 idx=011770 GeodesicLength=0.571344713491407 rxn_smarts="[C:1]([C:2]1([C:3]([H:11])([H:12])[H:13])[C:4]([H:14])([H:15])[N:5]([H:16])[C:6]1=[O:7])([H:8])([H:9])[H:10]>>[C:1]([C:2]([C:3]([H:11])([H:12])[H:13])=[C:6]=[O:7])([H:8])([H:9])[H:10].[C:4](=[N:5][H:16])([H:14])[H:15]"
C        1.39592637       0.65798352       0.03676435
C        0.28340180      -0.35587503       0.17603523
C        0.64532779      -1.52609247       1.05069094
C       -1.56072028       1.29158116      -0.05099915
N       -1.32056131       0.72468210      -1.23456024
C       -0.56681972      -0.65132791      -0.93580560
O       -0.95793303      -1.67283338      -1.44874175
H        2.30620286       0.17447514      -0.33619385
H        1.65266172       1.10612424       1.00008673
H        1.14135515       1.46683768      -0.64736380
H        0.95431064      -1.18530628       2.04204004
H        1.48730081      -2.08947427       0.63218777
H       -0.18553520      -2.22499082       1.14610286
H       -2.11092155       0.72951625       0.69123810
H       -1.66369333       2.37480712      -0.00330497
H       -1.50030272       1.17989293      -2.11817664
16
Frame=7 idx=011770 GeodesicLength=0.6655591302959292 rxn_smarts="[C:1]([C:2]1([C:3]([H:11])([H:12])[H:13])[C:4]([H:14])([H:15])[N:5]([H:16])[C:6]1=[O:7])([H:8])([H:9])[H:10]>>[C:1]([C:2]([C:3]([H:11])([H:12])[H:13])=[C:6]=[O:7])([H:8])([H:9])[H:10].[C:4](=[N:5][H:16])([H:14])[H:15]"
C        1.41177440       0.64816091       0.02208545
C        0.28817829      -0.35244587       0.17486165
C        0.64036254      -1.51595146       1.06499276
C       -1.57053244       1.27653231      -0.04027764
N       -1.32609802       0.74291795      -1.24083712
C       -0.54549926      -0.65757580      -0.94639865
O       -0.94277621      -1.67071635      -1.46545980
H        2.31507180       0.15575962      -0.35512685
H        1.67864503       1.09985503       0.98099900
H        1.15814756       1.45535395      -0.66447367
H        0.94227072      -1.16681102       2.05556653
H        1.48337324      -2.08674185       0.65951694
H       -0.19309586      -2.21188132       1.16059135
H       -2.14737939       0.70044765       0.67178845
H       -1.68505222       2.35778226       0.03195561
H       -1.50739018       1.22531399      -2.10978401
16
Frame=8 idx=011770 GeodesicLength=0.7595432912538123 rxn_smarts="[C:1]([C:2]1([C:3]([H:11])([H:12])[H:13])[C:4]([H:14])([H:15])[N:5]([H:16])[C:6]1=[O:7])([H:8])([H:9])[H:10]>>[C:1]([C:2]([C:3]([H:11])([H:12])[H:13])=[C:6]=[O:7])([H:8])([H:9])[H:10].[C:4](=[N:5][H:16])([H:14])[H:15]"
C        1.42741820       0.63815306       0.00772135
C        0.29294022      -0.34902321       0.17363053
C        0.63563596      -1.50561101       1.07902502
C       -1.58060671       1.26101464      -0.03025879
N       -1.33161261       0.76188224      -1.24711950
C       -0.52419653      -0.66434343      -0.95649122
O       -0.92849707      -1.66863336      -1.48165961
H        2.32393254       0.13698760      -0.37307243
H        1.70378580       1.09351734       0.96221520
H        1.17514661       1.44341513      -0.68172112
H        0.93068968      -1.14813419       2.06864251
H        1.47954083      -2.08353821       0.68643448
H       -0.20024885      -2.19872347       1.17501762
H       -2.18297121       0.67205682       0.65097047
H       -1.70586669       2.33967456       0.06691409
H       -1.51509018       1.27130550      -2.10024861
16
Frame=9 idx=011770 GeodesicLength=0.8533188675332845 rxn_smarts="[C:1]([C:2]1([C:3]([H:11])([H:12])[H:13])[C:4]([H:14])([H:15])[N:5]([H:16])[C:6]1=[O:7])([H:8])([H:9])[H:10]>>[C:1]([C:2]([C:3]([H:11])([H:12])[H:13])=[C:6]=[O:7])([H:8])([H:9])[H:10].[C:4](=[N:5][H:16])([H:14])[H:15]"
C        1.44287975       0.62795180      -0.00635910
C        0.29769656      -0.34561433       0.17231867
C        0.63113120      -1.49506030       1.09281402
C       -1.59092451       1.24501422      -0.02096600
N       -1.33710297       0.78164266      -1.25338758
C       -0.50286399      -0.67167875      -0.96612210
O       -0.91506588      -1.66657568      -1.49741679
H        2.33282495       0.11814004      -0.39004552
H        1.72810080       1.08714981       0.94370089
H        1.19236505       1.43098366      -0.69915924
H        0.91951749      -1.12924186       2.08129972
H        1.47580797      -2.07987217       0.71301073
H       -0.20701940      -2.18550148       1.18940065
H       -2.21773519       0.64431744       0.62879951
H       -1.72613382       2.32045136       0.10161843
H       -1.52347802       1.31789357      -2.08950628
16
Frame=10 idx=011770 GeodesicLength=0.9469350662295294 rxn_smarts="[C:1]([C:2]1([C:3]([H:11])([H:12])[H:13])[C:4]([H:14])([H:15])[N:5]([H:16])[C:6]1=[O:7])([H:8])([H:9])[H:10]>>[C:1]([C:2]([C:3]([H:11])([H:12])[H:13])=[C:6]=[O:7])([H:8])([H:9])[H:10].[C:4](=[N:5][H:16])([H:14])[H:15]"
C        1.45824995       0.61755634      -0.02016901
C        0.30248489      -0.34222027       0.17089131
C        0.62680565      -1.48428229       1.10639466
C       -1.60142264       1.22852436      -0.01240361
N       -1.34250990       0.80230525      -1.25962901
C       -0.48142787      -0.67961500      -0.97537230
O       -0.90245632      -1.66451584      -1.51286986
H        2.34185626       0.09919850      -0.40604933
H        1.75168167       1.08079107       0.92546591
H        1.20990768       1.41804239      -0.71681915
H        0.90865948      -1.11008434       2.09360402
H        1.47215764      -2.07575169       0.73933941
H       -0.21348839      -2.17219303       1.20374487
H       -2.25171411       0.61718625       0.60525811
H       -1.74583400       2.30007559       0.13614865
H       -1.53294999       1.36498272      -2.07753466
16
Frame=11 idx=011770 GeodesicLength=1.0402968354991253 rxn_smarts="[C:1]([C:2]1([C:3]([H:11])([H:12])[H:13])[C:4]([H:14])([H:15])[N:5]([H:16])[C:6]1=[O:7])([H:8])([H:9])[H:10]>>[C:1]([C:2]([C:3]([H:11])([H:12])[H:13])=[C:6]=[O:7])([H:8])([H:9])[H:10].[C:4](=[N:5][H:16])([H:14])[H:15]"
C        1.47336991       0.60691255      -0.03378105
C        0.30724494      -0.33886694       0.16935324
C        0.62270624      -1.47325914       1.11975812
C       -1.61216633       1.21152148      -0.00465472
N       -1.34794113       0.82387753      -1.26575555
C       -0.45991182      -0.68824102      -0.98413227
O       -0.89063113      -1.66244179      -1.52791414
H        2.35086137       0.08011075      -0.42113692
H        1.77438094       1.07443198       0.90734749
H        1.22753953       1.40447392      -0.73477676
H        0.89816313      -1.09063539       2.10546910
H        1.46864098      -2.07114618       0.76544413
H       -0.21952515      -2.15877401       1.21808309
H       -2.28486877       0.59068725       0.58037015
H       -1.76510517       2.27846119       0.17043040
H       -1.54275753       1.41288781      -2.06410431
16
Frame=12 idx=011770 GeodesicLength=1.1335614038615114 rxn_smarts="[C:1]([C:2]1([C:3]([H:11])([H:12])[H:13])[C:4]([H:14])([H:15])[N:5]([H:16])[C:6]1=[O:7])([H:8])([H:9])[H:10]>>[C:1]([C:2]([C:3]([H:11])([H:12])[H:13])=[C:6]=[O:7])([H:8])([H:9])[H:10].[C:4](=[N:5][H:16])([H:14])[H:15]"
C        1.48847629       0.59602911      -0.04723559
C        0.31207846      -0.33554576       0.16761108
C        0.61871298      -1.46192967       1.13297968
C       -1.62305927       1.19394459       0.00233676
N       -1.35328001       0.84652448      -1.27175513
C       -0.43819093      -0.69757513      -0.99259059
O       -0.87953376      -1.66030716      -1.54285185
H        2.36008884       0.06083377      -0.43534605
H        1.79646713       1.06810758       0.88937073
H        1.24553825       1.39029122      -0.75309190
H        0.88779523      -1.07073773       2.11703888
H        1.46518717      -2.06604872       0.79153668
H       -0.22536158      -2.14516416       1.23242554
H       -2.31731015       0.56467318       0.55406847
H       -1.78388431       2.25548895       0.20471682
H       -1.55372434       1.46141545      -2.04921353
16
Frame=13 idx=011770 GeodesicLength=1.2267598337759527 rxn_smarts="[C:1]([C:2]1([C:3]([H:11])([H:12])[H:13])[C:4]([H:14])([H:15])[N:5]([H:16])[C:6]1=[O:7])([H:8])([H:9])[H:10]>>[C:1]([C:2]([C:3]([H:11])([H:12])[H:13])=[C:6]=[O:7])([H:8])([H:9])[H:10].[C:4](=[N:5][H:16])([H:14])[H:15]"
C        1.50357953       0.58485147      -0.06065010
C        0.31700461      -0.33226381       0.16559921
C        0.61478314      -1.45020218       1.14610229
C       -1.63413316       1.17567092       0.00856379
N       -1.35854188       0.87034054      -1.27752681
C       -0.41621354      -0.70768338      -1.00076460
O       -0.86909661      -1.65806671      -1.55774776
H        2.36952594       0.04126456      -0.44877611
H        1.81800243       1.06180196       0.87136357
H        1.26387065       1.37539619      -0.77189040
H        0.87744120      -1.05020659       2.12830955
H        1.46177214      -2.06039837       0.81779275
H       -0.23103926      -2.13123782       1.24681970
H       -2.34911705       0.53899953       0.52624255
H       -1.80227292       2.23092305       0.23917110
H       -1.56556522       1.51081064      -2.03260872
16
Frame=14 idx=011770 GeodesicLength=1.3199355909809645 rxn_smarts="[C:1]([C:2]1([C:3]([H:11])([H:12])[H:13])[C:4]([H:14])([H:15])[N:5]([H:16])[C:6]1=[O:7])([H:8])([H:9])[H:10]>>[C:1]([C:2]([C:3]([H:11])([H:12])[H:13])=[C:6]=[O:7])([H:8])([H:9])[H:10].[C:4](=[N:5][H:16])([H:14])[H:15]"
C        1.51870593       0.57333107      -0.07416319
C        0.32202779      -0.32903084       0.16325698
C        0.61086878      -1.43797266       1.15917791
C       -1.64545874       1.15657053       0.01402086
N       -1.36377710       0.89539521      -1.28296143
C       -0.39397701      -0.71867466      -1.00866781
O       -0.85930739      -1.65571564      -1.57270357
H        2.37917077       0.02130181      -0.46157551
H        1.83910008       1.05552005       0.85314159
H        1.28251617       1.35968885      -0.79132542
H        0.86700275      -1.02882355       2.13929658
H        1.45837216      -2.05410718       0.84437419
H       -0.23662162      -2.11687582       1.26133703
H       -2.38034672       0.51348805       0.49683722
H       -1.82055815       2.20448719       0.27392071
H       -1.57771770       1.56141758      -2.01396615
16
Frame=15 idx=011770 GeodesicLength=1.4131573350801485 rxn_smarts="[C:1]([C:2]1([C:3]([H:11])([H:12])[H:13])[C:4]([H:14])([H:15])[N:5]([H:16])[C:6]1=[O:7])([H:8])([H:9])[H:10]>>[C:1]([C:2]([C:3]([H:11])([H:12])[H:13])=[C:6]=[O:7])([H:8])([H:9])[H:10].[C:4](=[N:5][H:16])([H:14])[H:15]"
C        1.53396627       0.56141042      -0.08783572
C        0.32722517      -0.32584128       0.16048633
C        0.60687392      -1.42512433       1.17224136
C       -1.65695414       1.13652468       0.01868398
N       -1.36886108       0.92189955      -1.28792984
C       -0.37134563      -0.73057564      -1.01637580
O       -0.85002855      -1.65313004      -1.58787926
H        2.38911630       0.00082685      -0.47373077
H        1.85987182       1.04922808       0.83461649
H        1.30160937       1.34307544      -0.81147985
H        0.85626506      -1.00637055       2.14999515
H        1.45490128      -2.04709977       0.87150373
H       -0.24223955      -2.10191025       1.27597258
H       -2.41105956       0.48804366       0.46557808
H       -1.83854343       2.17589750       0.30920494
H       -1.59079726       1.61314569      -1.99305140
16
Frame=16 idx=011770 GeodesicLength=1.5063479747612196 rxn_smarts="[C:1]([C:2]1([C:3]([H:11])([H:12])[H:13])[C:4]([H:14])([H:15])[N:5]([H:16])[C:6]1=[O:7])([H:8])([H:9])[H:10]>>[C:1]([C:2]([C:3]([H:11])([H:12])[H:13])=[C:6]=[O:7])([H:8])([H:9])[H:10].[C:4](=[N:5][H:16])([H:14])[H:15]"
C        1.54926980       0.54906953      -0.10165734
C        0.33253450      -0.32274420       0.15732240
C        0.60284580      -1.41169723       1.18527341
C       -1.66857648       1.11565525       0.02244119
N       -1.37383554       0.94991702      -1.29231937
C       -0.34838332      -0.74352494      -1.02378474
O       -0.84128901      -1.65028222      -1.60329202
H        2.39930789      -0.02013562      -0.48519129
H        1.88017164       1.04298432       0.81577193
H        1.32105078       1.32545973      -0.83239244
H        0.84529811      -0.98291105       2.16036648
H        1.45141733      -2.03933623       0.89911309
H       -0.24778457      -2.08645315       1.29072625
H       -2.44105075       0.46285066       0.43261017
H       -1.85648462       2.14513712       0.34472056
H       -1.60449157       1.66601101      -1.96970829
