13
Frame=0 idx=000521 GeodesicLength=0.0 rxn_smarts="[C:1]1([H:6])([H:7])[C:2]([H:8])([H:9])[C:3]([H:10])([H:11])[O:4][C:5]1([H:12])[H:13]>>[C:1](=[C:5]([H:12])[H:13])([H:6])[H:7].[C:2]1([H:8])([H:9])[C:3]([H:10])([H:11])[O:4]1"
C        1.36129319       0.71041612      -0.11270934
C       -1.25835656       0.73560323       0.15714006
C       -1.29376064      -0.61263970      -0.36776123
O       -0.43567127      -0.92440271       0.71288758
C        1.23709625      -0.61843359       0.28395242
H        1.43166282       0.96627206      -1.16301703
H        1.67236992       1.46316942       0.60003383
H       -0.80854479       1.57517025      -0.34181779
H       -1.78604698       0.90908641       1.08407343
H       -2.23860177      -1.15241756      -0.29614900
H       -0.84027787      -0.74307996      -1.35151891
H        1.60549714      -0.91229886       1.26163125
H        1.35334054      -1.39644513      -0.46674529
13
Frame=1 idx=000521 GeodesicLength=0.05030407365995429 rxn_smarts="[C:1]1([H:6])([H:7])[C:2]([H:8])([H:9])[C:3]([H:10])([H:11])[O:4][C:5]1([H:12])[H:13]>>[C:1](=[C:5]([H:12])[H:13])([H:6])[H:7].[C:2]1([H:8])([H:9])[C:3]([H:10])([H:11])[O:4]1"
C        1.35155054       0.71270097      -0.11131413
C       -1.24076288       0.72989962       0.16800278
C       -1.30075558      -0.61348931      -0.37214171
O       -0.44470553      -0.93816775       0.70599530
C        1.24223025      -0.61949038       0.28509351
H        1.43854893       0.96316148      -1.16201653
H        1.67145764       1.46516933       0.59817747
H       -0.82247702       1.57413656      -0.35098155
H       -1.77415450       0.91015060       1.09083230
H       -2.25302397      -1.13954400      -0.29874071
H       -0.85120835      -0.74442495      -1.35751699
H        1.60514946      -0.90368982       1.26796378
H        1.37815100      -1.39641234      -0.46335353
13
Frame=2 idx=000521 GeodesicLength=0.10058587134956973 rxn_smarts="[C:1]1([H:6])([H:7])[C:2]([H:8])([H:9])[C:3]([H:10])([H:11])[O:4][C:5]1([H:12])[H:13]>>[C:1](=[C:5]([H:12])[H:13])([H:6])[H:7].[C:2]1([H:8])([H:9])[C:3]([H:10])([H:11])[O:4]1"
C        1.34208831       0.71472844      -0.11028324
C       -1.22329303       0.72398836       0.17839130
C       -1.30782619      -0.61412048      -0.37666381
O       -0.45386882      -0.95172033       0.69883213
C        1.24744314      -0.62050472       0.28633172
H        1.44523745       0.95983138      -1.16113941
H        1.67072052       1.46713634       0.59566576
H       -0.83657476       1.57271405      -0.35843518
H       -1.76220532       0.91096121       1.09719179
H       -2.26729657      -1.12637686      -0.30133935
H       -0.86231310      -0.74554225      -1.36368523
H        1.60442910      -0.89483633       1.27446593
H        1.40345927      -1.39625880      -0.45933242
13
Frame=3 idx=000521 GeodesicLength=0.15083234633111073 rxn_smarts="[C:1]1([H:6])([H:7])[C:2]([H:8])([H:9])[C:3]([H:10])([H:11])[O:4][C:5]1([H:12])[H:13]>>[C:1](=[C:5]([H:12])[H:13])([H:6])[H:7].[C:2]1([H:8])([H:9])[C:3]([H:10])([H:11])[O:4]1"
C        1.33290319       0.71650990      -0.10959082
C       -1.20598082       0.71787795       0.18829369
C       -1.31497949      -0.61454437      -0.38131649
O       -0.46316509      -0.96503755       0.69141791
C        1.25273156      -0.62148351       0.28765861
H        1.45174732       0.95629564      -1.16037939
H        1.67010466       1.46906790       0.59256026
H       -0.85079118       1.57092311      -0.36429025
H       -1.75016031       0.91153074       1.10317736
H       -2.28141063      -1.11295933      -0.30391864
H       -0.87360283      -0.74643977      -1.37001497
H        1.60335643      -0.88578588       1.28109377
H        1.42924719      -1.39595484      -0.45469105
13
Frame=4 idx=000521 GeodesicLength=0.20104859195569455 rxn_smarts="[C:1]1([H:6])([H:7])[C:2]([H:8])([H:9])[C:3]([H:10])([H:11])[O:4][C:5]1([H:12])[H:13]>>[C:1](=[C:5]([H:12])[H:13])([H:6])[H:7].[C:2]1([H:8])([H:9])[C:3]([H:10])([H:11])[O:4]1"
C        1.32398332       0.71804894      -0.10923008
C       -1.18885955       0.71155962       0.19771076
C       -1.32222524      -0.61477174      -0.38610556
O       -0.47260525      -0.97812131       0.68374973
C        1.25809167      -0.62242994       0.28907692
H        1.45808909       0.95253849      -1.15975076
H        1.66956527       1.47097152       0.58888458
H       -0.86508022       1.56881451      -0.36861491
H       -1.73795206       0.91184118       1.10884608
H       -2.29537254      -1.09931305      -0.30648428
H       -0.88508822      -0.74711644      -1.37651120
H        1.60192748      -0.87654256       1.28783856
H        1.45552627      -1.39547923      -0.44940985
13
Frame=5 idx=000521 GeodesicLength=0.2512447645408291 rxn_smarts="[C:1]1([H:6])([H:7])[C:2]([H:8])([H:9])[C:3]([H:10])([H:11])[O:4][C:5]1([H:12])[H:13]>>[C:1](=[C:5]([H:12])[H:13])([H:6])[H:7].[C:2]1([H:8])([H:9])[C:3]([H:10])([H:11])[O:4]1"
C        1.31531266       0.71934945      -0.10919708
C       -1.17194949       0.70502543       0.20662968
C       -1.32956907      -0.61481221      -0.39104023
O       -0.48220264      -0.99097612       0.67582174
C        1.26351532      -0.62334764       0.29058989
H        1.46427213       0.94854548      -1.15926800
H        1.66905085       1.47285289       0.58465724
H       -0.87939992       1.56644024      -0.37148309
H       -1.72551220       0.91187285       1.11428282
H       -2.30918560      -1.08545570      -0.30904067
H       -0.89677241      -0.74757226      -1.38318110
H        1.60013224      -0.86711114       1.29468960
H        1.48230813      -1.39481126      -0.44346081
13
Frame=6 idx=000521 GeodesicLength=0.3014092048160542 rxn_smarts="[C:1]1([H:6])([H:7])[C:2]([H:8])([H:9])[C:3]([H:10])([H:11])[O:4][C:5]1([H:12])[H:13]>>[C:1](=[C:5]([H:12])[H:13])([H:6])[H:7].[C:2]1([H:8])([H:9])[C:3]([H:10])([H:11])[O:4]1"
C        1.30688557       0.72042065      -0.10945987
C       -1.15526083       0.69828420       0.21502839
C       -1.33701645      -0.61467942      -0.39610564
O       -0.49195945      -1.00357958       0.66765923
C        1.26899815      -0.62424496       0.29218358
H        1.47032310       0.94434325      -1.15891009
H        1.66852157       1.47470191       0.57994519
H       -0.89372450       1.56381919      -0.37301693
H       -1.71281931       0.91164378       1.11950398
H       -2.32284756      -1.07142291      -0.31155173
H       -0.90866378      -0.74783202      -1.39000891
H        1.59800191      -0.85754623       1.30159159
H        1.50956158      -1.39390787      -0.43685878
13
Frame=7 idx=000521 GeodesicLength=0.3515463676241641 rxn_smarts="[C:1]1([H:6])([H:7])[C:2]([H:8])([H:9])[C:3]([H:10])([H:11])[O:4][C:5]1([H:12])[H:13]>>[C:1](=[C:5]([H:12])[H:13])([H:6])[H:7].[C:2]1([H:8])([H:9])[C:3]([H:10])([H:11])[O:4]1"
C        1.29869614       0.72126451      -0.10998912
C       -1.13881561       0.69133802       0.22289214
C       -1.34457364      -0.61439439      -0.40128984
O       -0.50187775      -1.01591692       0.65929964
C        1.27454353      -0.62513491       0.29384431
H        1.47626970       0.93995372      -1.15866252
H        1.66794285       1.47650284       0.57481711
H       -0.90803326       1.56100920      -0.37333866
H       -1.69987127       0.91118896       1.12453561
H       -2.33636027      -1.05724835      -0.31398628
H       -0.92076459      -0.74793785      -1.39699092
H        1.59557750      -0.84790423       1.30850155
H        1.53726668      -1.39272061      -0.42963302
13
Frame=8 idx=000521 GeodesicLength=0.40155975499759966 rxn_smarts="[C:1]1([H:6])([H:7])[C:2]([H:8])([H:9])[C:3]([H:10])([H:11])[O:4][C:5]1([H:12])[H:13]>>[C:1](=[C:5]([H:12])[H:13])([H:6])[H:7].[C:2]1([H:8])([H:9])[C:3]([H:10])([H:11])[O:4]1"
C        1.29072248       0.72194577      -0.11075607
C       -1.12263467       0.68426558       0.23029156
C       -1.35227271      -0.61393901      -0.40653523
O       -0.51196692      -1.02796261       0.65076213
C        1.28014634      -0.62599031       0.29554511
H        1.48209793       0.93544530      -1.15846223
H        1.66728005       1.47826360       0.56937132
H       -0.92216610       1.55772534      -0.37254948
H       -1.68655350       0.91047848       1.12916874
H       -2.34973519      -1.04296972      -0.31631869
H       -0.93314742      -0.74783078      -1.40405182
H        1.59288602      -0.83819992       1.31537311
H        1.56534369      -1.39123170      -0.42183844
13
Frame=9 idx=000521 GeodesicLength=0.45152949950390764 rxn_smarts="[C:1]1([H:6])([H:7])[C:2]([H:8])([H:9])[C:3]([H:10])([H:11])[O:4][C:5]1([H:12])[H:13]>>[C:1](=[C:5]([H:12])[H:13])([H:6])[H:7].[C:2]1([H:8])([H:9])[C:3]([H:10])([H:11])[O:4]1"
C        1.28296131       0.72238587      -0.11176419
C       -1.10670559       0.67700010       0.23714870
C       -1.36009051      -0.61334136      -0.41189533
O       -0.52222107      -1.03973217       0.64204076
C        1.28581001      -0.62685279       0.29730877
H        1.48784481       0.93074572      -1.15836655
H        1.66653149       1.47997084       0.56356210
H       -0.93622386       1.55429916      -0.37071665
H       -1.67297251       0.90949937       1.13370058
H       -2.36297780      -1.02855693      -0.31855841
H       -0.94575535      -0.74758457      -1.41125599
H        1.58992576      -0.82843465       1.32221655
H        1.59387331      -1.38939859      -0.41342034
13
Frame=10 idx=000521 GeodesicLength=0.5015055084218092 rxn_smarts="[C:1]1([H:6])([H:7])[C:2]([H:8])([H:9])[C:3]([H:10])([H:11])[O:4][C:5]1([H:12])[H:13]>>[C:1](=[C:5]([H:12])[H:13])([H:6])[H:7].[C:2]1([H:8])([H:9])[C:3]([H:10])([H:11])[O:4]1"
C        1.27540591       0.72262823      -0.11303129
C       -1.09101564       0.66954935       0.24349084
C       -1.36804876      -0.61260012      -0.41737151
O       -0.53267569      -1.05127606       0.63311491
C        1.29152776      -0.62771490       0.29913257
H        1.49352123       0.92585679      -1.15839614
H        1.66566883       1.48164042       0.55738762
H       -0.95016812       1.55067751      -0.36787302
H       -1.65904016       0.90822247       1.13815918
H       -2.37611844      -1.01400690      -0.32072133
H       -0.95861211      -0.74716752      -1.41861093
H        1.58667486      -0.81860053       1.32903004
H        1.62288033      -1.38720872      -0.40431095
13
Frame=11 idx=000521 GeodesicLength=0.5514516092215203 rxn_smarts="[C:1]1([H:6])([H:7])[C:2]([H:8])([H:9])[C:3]([H:10])([H:11])[O:4][C:5]1([H:12])[H:13]>>[C:1](=[C:5]([H:12])[H:13])([H:6])[H:7].[C:2]1([H:8])([H:9])[C:3]([H:10])([H:11])[O:4]1"
C        1.26802322       0.72263091      -0.11457742
C       -1.07556995       0.66189191       0.24935133
C       -1.37615384      -0.61169070      -0.42297940
O       -0.54330989      -1.06259331       0.62393540
C        1.29730077      -0.62857147       0.30103413
H        1.49910083       0.92070771      -1.15857197
H        1.66468227       1.48326565       0.55080523
H       -0.96396486       1.54686573      -0.36402995
H       -1.64470312       0.90654070       1.14258699
H       -2.38916203      -0.99927469      -0.32284009
H       -0.97175750      -0.74652271      -1.42611823
H        1.58309846      -0.80863406       1.33584411
H        1.65241564      -1.38461568      -0.39444014
13
Frame=12 idx=000521 GeodesicLength=0.6014232764345498 rxn_smarts="[C:1]1([H:6])([H:7])[C:2]([H:8])([H:9])[C:3]([H:10])([H:11])[O:4][C:5]1([H:12])[H:13]>>[C:1](=[C:5]([H:12])[H:13])([H:6])[H:7].[C:2]1([H:8])([H:9])[C:3]([H:10])([H:11])[O:4]1"
C        1.26082419       0.72242181      -0.11640046
C       -1.06036950       0.65404812       0.25474749
C       -1.38442403      -0.61063168      -0.42871511
O       -0.55415923      -1.07372384       0.61451615
C        1.30313262      -0.62943446       0.30300640
H        1.50463371       0.91532080      -1.15891274
H        1.66357222       1.48487294       0.54383449
H       -0.97759734       1.54287746      -0.35924268
H       -1.62996272       0.90446809       1.14702722
H       -2.40214146      -0.98438701      -0.32490267
H       -0.98518782      -0.74566911      -1.43379850
H        1.57919611      -0.79855624       1.34264416
H        1.68248326      -1.38160689      -0.38380375
13
Frame=13 idx=000521 GeodesicLength=0.6513696828567412 rxn_smarts="[C:1]1([H:6])([H:7])[C:2]([H:8])([H:9])[C:3]([H:10])([H:11])[O:4][C:5]1([H:12])[H:13]>>[C:1](=[C:5]([H:12])[H:13])([H:6])[H:7].[C:2]1([H:8])([H:9])[C:3]([H:10])([H:11])[O:4]1"
C        1.25378145       0.72198462      -0.11849524
C       -1.04539213       0.64601229       0.25966965
C       -1.39285145      -0.60939728      -0.43457706
O       -0.56519800      -1.08465256       0.60484584
C        1.30902227      -0.63029922       0.30505085
H        1.51008312       0.90967380      -1.15939798
H        1.66230283       1.48641307       0.53648360
H       -0.99106646       1.53867884      -0.35356715
H       -1.61477387       0.90195621       1.15146699
H       -2.41503479      -0.96931138      -0.32690655
H       -0.99892427      -0.74456925      -1.44163154
H        1.57499813      -0.78836719       1.34939394
H        1.71305316      -1.37812197      -0.37233534
13
Frame=14 idx=000521 GeodesicLength=0.7013468069085003 rxn_smarts="[C:1]1([H:6])([H:7])[C:2]([H:8])([H:9])[C:3]([H:10])([H:11])[O:4][C:5]1([H:12])[H:13]>>[C:1](=[C:5]([H:12])[H:13])([H:6])[H:7].[C:2]1([H:8])([H:9])[C:3]([H:10])([H:11])[O:4]1"
C        1.24689997       0.72131033      -0.12088573
C       -1.03064200       0.63776057       0.26414625
C       -1.40145886      -0.60799736      -0.44057848
O       -0.57645868      -1.09541727       0.59488140
C        1.31497244      -0.63116862       0.30717541
H        1.51548528       0.90372959      -1.16007280
H        1.66089547       1.48792257       0.52870356
H       -1.00432773       1.53430333      -0.34698376
H       -1.59912765       0.89895397       1.15598516
H       -2.42788360      -0.95404070      -0.32886417
H       -1.01298020      -0.74321274      -1.44963907
H        1.57043789      -0.77802513       1.35612334
H        1.74418768      -1.37411853      -0.35999109
13
Frame=15 idx=000521 GeodesicLength=0.7513777091851269 rxn_smarts="[C:1]1([H:6])([H:7])[C:2]([H:8])([H:9])[C:3]([H:10])([H:11])[O:4][C:5]1([H:12])[H:13]>>[C:1](=[C:5]([H:12])[H:13])([H:6])[H:7].[C:2]1([H:8])([H:9])[C:3]([H:10])([H:11])[O:4]1"
C        1.24016265       0.72038697      -0.12360793
C       -1.01610274       0.62928745       0.26820308
C       -1.41025694      -0.60641362      -0.44674594
O       -0.58793613      -1.10606873       0.58457235
C        1.32098570      -0.63204866       0.30940041
H        1.52082744       0.89743092      -1.16098931
H        1.65933350       1.48940835       0.52044127
H       -1.01738710       1.52976662      -0.33947538
H       -1.58295669       0.89538272       1.16065655
H       -2.44070029      -0.93853823      -0.33079700
H       -1.02738933      -0.74154441      -1.45786766
H        1.56547351      -0.76748445       1.36285952
H        1.77594642      -1.36956492      -0.34664995
13
Frame=16 idx=000521 GeodesicLength=0.8014327847160534 rxn_smarts="[C:1]1([H:6])([H:7])[C:2]([H:8])([H:9])[C:3]([H:10])([H:11])[O:4][C:5]1([H:12])[H:13]>>[C:1](=[C:5]([H:12])[H:13])([H:6])[H:7].[C:2]1([H:8])([H:9])[C:3]([H:10])([H:11])[O:4]1"
C        1.23356710       0.71920632      -0.12663811
C       -1.00176758       0.62059129       0.27182303
C       -1.41924649      -0.60464104      -0.45305296
O       -0.59962756      -1.11657057       0.57393766
C        1.32707022      -0.63293943       0.31170450
H        1.52611509       0.89079460      -1.16210546
H        1.65760716       1.49082793       0.51174100
H       -1.03022038       1.52503248      -0.33111300
H       -1.56628696       0.89124567       1.16542373
H       -2.45347612      -0.92281038      -0.33267080
H       -1.04215825      -0.73956678      -1.46627123
H        1.56014869      -0.75678323       1.36953534
H        1.80827507      -1.36438686      -0.33231369
