11
Frame=0 idx=006230 GeodesicLength=0.0 rxn_smarts="[O:1]=[C:2]1[C:3]([H:7])([H:8])[C:4]([H:9])=[C:5]([H:10])[N:6]1[H:11]>>[O:1]([C+:2]1[C:3]([H:7])([H:8])[C:4]([H:9])=[C-:5][N:6]1[H:11])[H:10]"
O        0.03625257       1.05678921       1.36852635
C       -0.27692164       0.76164223       0.14878955
C       -1.11186408      -0.43618599      -0.31596296
C        0.19944067      -1.17561287      -0.21993982
C        1.18502689      -0.22994267      -0.19152260
N        0.66284580       1.04977863      -0.82258763
H       -1.56696518      -0.30098731      -1.29510273
H       -1.83720838      -0.76826873       0.42172315
H        0.32417099      -2.13971787       0.25514258
H        1.12177743       0.38399015       1.14751996
H        1.26344492       1.79851522      -0.49658580
11
Frame=1 idx=006230 GeodesicLength=0.3702029453359477 rxn_smarts="[O:1]=[C:2]1[C:3]([H:7])([H:8])[C:4]([H:9])=[C:5]([H:10])[N:6]1[H:11]>>[O:1]([C+:2]1[C:3]([H:7])([H:8])[C:4]([H:9])=[C-:5][N:6]1[H:11])[H:10]"
O       -0.03209546       1.14829681       1.33231757
C       -0.29894334       0.76417398       0.12745736
C       -1.11906495      -0.44935052      -0.30501403
C        0.19098283      -1.19062430      -0.21872545
C        1.18594686      -0.26013143      -0.17496812
N        0.70125064       1.03730534      -0.77554221
H       -1.59257399      -0.32703565      -1.27780783
H       -1.84103492      -0.77690638       0.43896533
H        0.30503692      -2.19762266       0.16516300
H        1.21844427       0.45064586       1.13785186
H        1.28205115       1.80124894      -0.44969747
11
Frame=2 idx=006230 GeodesicLength=0.7349750990996325 rxn_smarts="[O:1]=[C:2]1[C:3]([H:7])([H:8])[C:4]([H:9])=[C:5]([H:10])[N:6]1[H:11]>>[O:1]([C+:2]1[C:3]([H:7])([H:8])[C:4]([H:9])=[C-:5][N:6]1[H:11])[H:10]"
O       -0.11459920       1.25152365       1.28574118
C       -0.31903607       0.76834640       0.10506451
C       -1.12774602      -0.46198345      -0.29148520
C        0.18282631      -1.20806314      -0.21487657
C        1.18821156      -0.29190833      -0.15240593
N        0.74165824       1.02294663      -0.72236911
H       -1.62202058      -0.35812046      -1.25880011
H       -1.84558697      -0.78223021       0.46038356
H        0.28799317      -2.25740849       0.06067427
H        1.32707728       0.51263629       1.12866234
H        1.30122229       1.80426111      -0.40058894
11
Frame=3 idx=006230 GeodesicLength=1.0776717579153103 rxn_smarts="[O:1]=[C:2]1[C:3]([H:7])([H:8])[C:4]([H:9])=[C:5]([H:10])[N:6]1[H:11]>>[O:1]([C+:2]1[C:3]([H:7])([H:8])[C:4]([H:9])=[C-:5][N:6]1[H:11])[H:10]"
O       -0.20899951       1.35750237       1.22252260
C       -0.33831259       0.76844087       0.08039467
C       -1.13279262      -0.47282504      -0.27571622
C        0.17435827      -1.22145288      -0.20460829
C        1.18469668      -0.32264721      -0.12781310
N        0.77622840       1.00431343      -0.66414076
H       -1.64352100      -0.39032278      -1.23939190
H       -1.84619007      -0.78209252       0.48566895
H        0.27045758      -2.30118264      -0.05146410
H        1.45447945       0.55541315       1.12745936
H        1.30959542       1.80485326      -0.35291121
11
Frame=4 idx=006230 GeodesicLength=1.4235208259054737 rxn_smarts="[O:1]=[C:2]1[C:3]([H:7])([H:8])[C:4]([H:9])=[C:5]([H:10])[N:6]1[H:11]>>[O:1]([C+:2]1[C:3]([H:7])([H:8])[C:4]([H:9])=[C-:5][N:6]1[H:11])[H:10]"
O       -0.32317840       1.46999267       1.13900008
C       -0.35999354       0.76741347       0.05507927
C       -1.13623435      -0.48516385      -0.26248773
C        0.16426399      -1.23633652      -0.19331811
C        1.17909997      -0.35061114      -0.11295978
N        0.80228128       0.99386289      -0.59767103
H       -1.65878632      -0.42280734      -1.21894857
H       -1.84707263      -0.78634669       0.50593272
H        0.24601904      -2.32812951      -0.14430795
H        1.62581761       0.56042366       1.13011302
H        1.30778333       1.81770237      -0.30043192
11
Frame=5 idx=006230 GeodesicLength=1.8365056749822881 rxn_smarts="[O:1]=[C:2]1[C:3]([H:7])([H:8])[C:4]([H:9])=[C:5]([H:10])[N:6]1[H:11]>>[O:1]([C+:2]1[C:3]([H:7])([H:8])[C:4]([H:9])=[C-:5][N:6]1[H:11])[H:10]"
O       -0.47225953       1.58319047       1.04029783
C       -0.38549496       0.76188719       0.03687060
C       -1.14507292      -0.49969235      -0.25573638
C        0.14837002      -1.25366271      -0.18825953
C        1.17198630      -0.37829241      -0.12498058
N        0.82300513       0.99066332      -0.51828046
H       -1.67465059      -0.45729473      -1.20629852
H       -1.85838275      -0.79544260       0.51553895
H        0.21406293      -2.33977673      -0.20373042
H        1.88446582       0.52799774       1.16641163
H        1.29397056       1.86042281      -0.26183312
11
Frame=6 idx=006230 GeodesicLength=2.168644400939265 rxn_smarts="[O:1]=[C:2]1[C:3]([H:7])([H:8])[C:4]([H:9])=[C:5]([H:10])[N:6]1[H:11]>>[O:1]([C+:2]1[C:3]([H:7])([H:8])[C:4]([H:9])=[C-:5][N:6]1[H:11])[H:10]"
O       -0.70333322       1.71180417       0.90143390
C       -0.43884919       0.76463970       0.03649112
C       -1.16084981      -0.51151247      -0.26665195
C        0.13142119      -1.26000484      -0.15834202
C        1.15256997      -0.39216459      -0.08747804
N        0.82517429       0.99745966      -0.35779027
H       -1.66548635      -0.49266881      -1.23471525
H       -1.89933501      -0.80519155       0.47990721
H        0.19553576      -2.34105510      -0.17692894
H        2.28544318       0.43555102       0.96981868
H        1.27770919       1.89314281      -0.10574444
11
Frame=7 idx=006230 GeodesicLength=2.548000918309214 rxn_smarts="[O:1]=[C:2]1[C:3]([H:7])([H:8])[C:4]([H:9])=[C:5]([H:10])[N:6]1[H:11]>>[O:1]([C+:2]1[C:3]([H:7])([H:8])[C:4]([H:9])=[C-:5][N:6]1[H:11])[H:10]"
O       -0.90604431       1.83847017       0.68835722
C       -0.47783380       0.77758325       0.05980421
C       -1.15261931      -0.51630931      -0.27292722
C        0.13190523      -1.26029320      -0.08275271
C        1.15371251      -0.39962120      -0.00436017
N        0.83266348       1.00398103      -0.10890074
H       -1.60240008      -0.52443850      -1.27215127
H       -1.93485244      -0.80399771       0.42888823
H        0.19527671      -2.34078842      -0.11435709
H        2.46162327       0.34967246       0.46599914
H        1.29856874       1.87574143       0.21240039
11
Frame=8 idx=006230 GeodesicLength=2.6854729769630086 rxn_smarts="[O:1]=[C:2]1[C:3]([H:7])([H:8])[C:4]([H:9])=[C:5]([H:10])[N:6]1[H:11]>>[O:1]([C+:2]1[C:3]([H:7])([H:8])[C:4]([H:9])=[C-:5][N:6]1[H:11])[H:10]"
O       -0.97493818       1.93398746       0.41669070
C       -0.48868053       0.78852781       0.06169009
C       -1.13997553      -0.51608635      -0.26722216
C        0.13280330      -1.26861134      -0.03590469
C        1.16550675      -0.41819668       0.01642832
N        0.82743526       0.97159631       0.15958756
H       -1.56224753      -0.54946003      -1.27692303
H       -1.94646412      -0.78259675       0.41580686
H        0.18622001      -2.35140533      -0.07805003
H        2.51154747       0.38738747       0.03624569
H        1.28879311       1.80485743       0.55165067
11
Frame=9 idx=006230 GeodesicLength=2.8420108357475287 rxn_smarts="[O:1]=[C:2]1[C:3]([H:7])([H:8])[C:4]([H:9])=[C:5]([H:10])[N:6]1[H:11]>>[O:1]([C+:2]1[C:3]([H:7])([H:8])[C:4]([H:9])=[C-:5][N:6]1[H:11])[H:10]"
O       -0.90697279       1.99854016       0.14839799
C       -0.47617026       0.79122490       0.07480415
C       -1.12345340      -0.51435005      -0.25679317
C        0.13735848      -1.28831344      -0.01776775
C        1.17782144      -0.44860803       0.07021220
N        0.80198808       0.89601459       0.41688443
H       -1.53368013      -0.55378538      -1.27120423
H       -1.94704685      -0.75674246       0.41511753
H        0.17602887      -2.37094636      -0.07153695
H        2.43280617       0.52582764      -0.31085954
H        1.26132038       1.72113844       0.80274534
11
Frame=10 idx=006230 GeodesicLength=2.996117830270614 rxn_smarts="[O:1]=[C:2]1[C:3]([H:7])([H:8])[C:4]([H:9])=[C:5]([H:10])[N:6]1[H:11]>>[O:1]([C+:2]1[C:3]([H:7])([H:8])[C:4]([H:9])=[C-:5][N:6]1[H:11])[H:10]"
O       -0.76669923       2.02331949      -0.08774609
C       -0.46109584       0.79696507       0.09722488
C       -1.10534150      -0.51047795      -0.24129981
C        0.14932155      -1.30339871      -0.01689024
C        1.19484551      -0.46992107       0.09949522
N        0.77656628       0.82474887       0.58146042
H       -1.51698556      -0.54800231      -1.25553087
H       -1.93581971      -0.73517907       0.42902515
H        0.17530641      -2.38533620      -0.07214254
H        2.25125616       0.67760464      -0.51566452
H        1.23864593       1.62967723       0.98206841
11
Frame=11 idx=006230 GeodesicLength=3.1624200883620053 rxn_smarts="[O:1]=[C:2]1[C:3]([H:7])([H:8])[C:4]([H:9])=[C:5]([H:10])[N:6]1[H:11]>>[O:1]([C+:2]1[C:3]([H:7])([H:8])[C:4]([H:9])=[C-:5][N:6]1[H:11])[H:10]"
O       -0.62141644       2.01038025      -0.27558006
C       -0.45418032       0.80889039       0.11850276
C       -1.08953183      -0.50339726      -0.22547327
C        0.16168459      -1.31165338      -0.02033235
C        1.21102745      -0.48125818       0.11113866
N        0.75191941       0.76627364       0.68563879
H       -1.50570902      -0.53692652      -1.23677569
H       -1.92261262      -0.71721858       0.44579246
H        0.17958760      -2.39251804      -0.07701679
H        2.06263776       0.80411600      -0.62525834
H        1.22659342       1.55331169       1.09936382
11
Frame=12 idx=006230 GeodesicLength=3.339496451995504 rxn_smarts="[O:1]=[C:2]1[C:3]([H:7])([H:8])[C:4]([H:9])=[C:5]([H:10])[N:6]1[H:11]>>[O:1]([C+:2]1[C:3]([H:7])([H:8])[C:4]([H:9])=[C-:5][N:6]1[H:11])[H:10]"
O       -0.49867243       1.97710185      -0.41498991
C       -0.45209751       0.82598674       0.13359047
C       -1.07529883      -0.49380422      -0.21179490
C        0.17257933      -1.31478345      -0.02058268
C        1.22420815      -0.48612458       0.12295593
N        0.72581499       0.72023426       0.75899999
H       -1.49397665      -0.52452288      -1.22109234
H       -1.91097606      -0.69963197       0.45893945
H        0.18747108      -2.39355251      -0.08558519
H        1.90230845       0.89770425      -0.69994081
H        1.21863948       1.49139252       1.17949999
11
Frame=13 idx=006230 GeodesicLength=3.5232971654603915 rxn_smarts="[O:1]=[C:2]1[C:3]([H:7])([H:8])[C:4]([H:9])=[C:5]([H:10])[N:6]1[H:11]>>[O:1]([C+:2]1[C:3]([H:7])([H:8])[C:4]([H:9])=[C-:5][N:6]1[H:11])[H:10]"
O       -0.40153322       1.93879484      -0.51690442
C       -0.45121755       0.84705013       0.14407532
C       -1.06112076      -0.48273455      -0.20087111
C        0.18293216      -1.31520537      -0.01782611
C        1.23585302      -0.48800202       0.13807989
N        0.69906265       0.68365805       0.81552134
H       -1.47879539      -0.51181653      -1.21053852
H       -1.90087266      -0.68164016       0.46712224
H        0.19786871      -2.39159558      -0.09417592
H        1.76506558       0.96276518      -0.76482573
H        1.21275744       1.43872602       1.24034302
11
Frame=14 idx=006230 GeodesicLength=3.7121030478387382 rxn_smarts="[O:1]=[C:2]1[C:3]([H:7])([H:8])[C:4]([H:9])=[C:5]([H:10])[N:6]1[H:11]>>[O:1]([C+:2]1[C:3]([H:7])([H:8])[C:4]([H:9])=[C-:5][N:6]1[H:11])[H:10]"
O       -0.32594815       1.90177691      -0.59403020
C       -0.45030231       0.87094507       0.15203922
C       -1.04630124      -0.47037209      -0.19191760
C        0.19350279      -1.31408908      -0.01236279
C        1.24763320      -0.48820705       0.15622730
N        0.67262209       0.65363755       0.86212868
H       -1.45930349      -0.49859587      -1.20370384
H       -1.89184390      -0.66254460       0.47115645
H        0.21017564      -2.38852092      -0.10325390
H        1.64213904       1.00467987      -0.82805788
H        1.20762633       1.39129022       1.29177456
11
Frame=15 idx=006230 GeodesicLength=3.9027306706564877 rxn_smarts="[O:1]=[C:2]1[C:3]([H:7])([H:8])[C:4]([H:9])=[C:5]([H:10])[N:6]1[H:11]>>[O:1]([C+:2]1[C:3]([H:7])([H:8])[C:4]([H:9])=[C-:5][N:6]1[H:11])[H:10]"
O       -0.26659101       1.86670169      -0.65630229
C       -0.44868174       0.89663024       0.15828625
C       -1.03077913      -0.45679167      -0.18324098
C        0.20453435      -1.31132958      -0.00371415
C        1.25966990      -0.48643466       0.17777660
N        0.64620015       0.62881628       0.90265350
H       -1.43688459      -0.48524983      -1.19786007
H       -1.88313436      -0.64172205       0.47361956
H        0.22526728      -2.38286953      -0.11889134
H        1.52957700       1.02405881      -0.89117126
H        1.20082214       1.34819032       1.33884420
11
Frame=16 idx=006230 GeodesicLength=4.092479017195695 rxn_smarts="[O:1]=[C:2]1[C:3]([H:7])([H:8])[C:4]([H:9])=[C:5]([H:10])[N:6]1[H:11]>>[O:1]([C+:2]1[C:3]([H:7])([H:8])[C:4]([H:9])=[C-:5][N:6]1[H:11])[H:10]"
O       -0.21934793       1.83537186      -0.70790207
C       -0.44560188       0.92350619       0.16267576
C       -1.01474980      -0.44252045      -0.17524049
C        0.21643558      -1.30725236       0.00398057
C        1.27193220      -0.48294622       0.19888265
N        0.62007359       0.60690038       0.93800545
H       -1.41432146      -0.47141028      -1.19292419
H       -1.87344627      -0.62030098       0.47568248
H        0.24205372      -2.37554418      -0.13495551
H        1.42558012       1.02670596      -0.95251430
H        1.19139212       1.30749008       1.38430966
