14
Frame=0 idx=000556 GeodesicLength=0.0 rxn_smarts="[C:1]([C:2]([C:3]#[C:4][C:5]([O:6][H:14])([H:12])[H:13])([H:10])[H:11])([H:7])([H:8])[H:9]>>[C:1]1([H:7])([H:8])[C:2]([H:10])([H:11])[C:3]1=[C:4]([C:5]([O:6][H:14])([H:12])[H:13])[H:9]"
C       -1.89354132       0.64310234       0.10148955
C       -1.56417315      -0.45035528      -0.86678084
C       -0.12882288      -0.60223145      -0.94123306
C        0.57399290      -0.43072415       0.12172278
C        1.99753907      -0.41194538       0.56034900
O        2.45718504       0.89401109       0.85247961
H       -1.20155257       1.47305275       0.16239985
H       -2.93730836       0.95059228       0.17851618
H       -0.26272812      -0.10486212       0.91689707
H       -2.01959474      -1.41408643      -0.63303947
H       -2.07248049      -0.10719592      -1.78967741
H        2.60671322      -0.88956662      -0.21399378
H        2.11724188      -0.98190200       1.48220022
H        2.32752947       1.43211090       0.06867032
14
Frame=1 idx=000556 GeodesicLength=0.09867466014042493 rxn_smarts="[C:1]([C:2]([C:3]#[C:4][C:5]([O:6][H:14])([H:12])[H:13])([H:10])[H:11])([H:7])([H:8])[H:9]>>[C:1]1([H:7])([H:8])[C:2]([H:10])([H:11])[C:3]1=[C:4]([C:5]([O:6][H:14])([H:12])[H:13])[H:9]"
C       -1.89826773       0.63749102       0.09472835
C       -1.57465408      -0.46334073      -0.86840407
C       -0.13412006      -0.55654338      -0.92919689
C        0.57754312      -0.40553182       0.12948674
C        2.00505480      -0.41808960       0.55258627
O        2.49118484       0.87457424       0.86107037
H       -1.23665505       1.48981714       0.18007045
H       -2.94318440       0.94949478       0.13991396
H       -0.27905788      -0.06515570       0.93372034
H       -2.00648097      -1.43255781      -0.61571972
H       -2.08246558      -0.14156168      -1.79756291
H        2.59993497      -0.89310998      -0.23460699
H        2.12518055      -1.00551895       1.46348060
H        2.35598748       1.43003247       0.09043351
14
Frame=2 idx=000556 GeodesicLength=0.19697605969404797 rxn_smarts="[C:1]([C:2]([C:3]#[C:4][C:5]([O:6][H:14])([H:12])[H:13])([H:10])[H:11])([H:7])([H:8])[H:9]>>[C:1]1([H:7])([H:8])[C:2]([H:10])([H:11])[C:3]1=[C:4]([C:5]([O:6][H:14])([H:12])[H:13])[H:9]"
C       -1.90262103       0.63248858       0.08758817
C       -1.58377066      -0.47628257      -0.86964603
C       -0.14028359      -0.51271187      -0.91538933
C        0.58105745      -0.38042056       0.13785667
C        2.01204020      -0.42403220       0.54429433
O        2.52432043       0.85474668       0.86848126
H       -1.27291492       1.50577798       0.19957031
H       -2.94810275       0.94770165       0.10090363
H       -0.29614958      -0.02481664       0.95130862
H       -1.99362810      -1.44964365      -0.59864446
H       -2.08878811      -0.17559634      -1.80577844
H        2.59224857      -0.89584649      -0.25590961
H        2.13258209      -1.02877113       1.44388132
H        2.38401000       1.42740656       0.11148356
14
Frame=3 idx=000556 GeodesicLength=0.29497833654152134 rxn_smarts="[C:1]([C:2]([C:3]#[C:4][C:5]([O:6][H:14])([H:12])[H:13])([H:10])[H:11])([H:7])([H:8])[H:9]>>[C:1]1([H:7])([H:8])[C:2]([H:10])([H:11])[C:3]1=[C:4]([C:5]([O:6][H:14])([H:12])[H:13])[H:9]"
C       -1.90647818       0.62810931       0.08015253
C       -1.59155442      -0.48910901      -0.87052062
C       -0.14720704      -0.47094840      -0.89991603
C        0.58458828      -0.35549859       0.14678079
C        2.01850385      -0.42973534       0.53551412
O        2.55647956       0.83465852       0.87468272
H       -1.31027498       1.52076201       0.22075449
H       -2.95192487       0.94535329       0.06160356
H       -0.31410488       0.01591409       0.96961105
H       -1.98125846      -1.46533023      -0.58182766
H       -2.09146655      -0.20913165      -1.81428254
H        2.58373813      -0.89776568      -0.27775277
H        2.13943984      -1.05153812       1.42348959
H        2.41151973       1.42425978       0.13171079
14
Frame=4 idx=000556 GeodesicLength=0.39275012143310295 rxn_smarts="[C:1]([C:2]([C:3]#[C:4][C:5]([O:6][H:14])([H:12])[H:13])([H:10])[H:11])([H:7])([H:8])[H:9]>>[C:1]1([H:7])([H:8])[C:2]([H:10])([H:11])[C:3]1=[C:4]([C:5]([O:6][H:14])([H:12])[H:13])[H:9]"
C       -1.90973627       0.62438587       0.07247955
C       -1.59808949      -0.50179042      -0.87099682
C       -0.15479289      -0.43144791      -0.88289118
C        0.58819690      -0.33085209       0.15617800
C        2.02447647      -0.43516958       0.52624440
O        2.58759819       0.81438740       0.87979673
H       -1.34866700       1.53462189       0.24337158
H       -2.95447767       0.94272332       0.02196041
H       -0.33299989       0.05685099       0.98855538
H       -1.96959819      -1.47964834      -0.56514133
H       -2.09066142      -0.24217361      -1.82295059
H        2.57450087      -0.89874092      -0.30011161
H        2.14579479      -1.07383413       1.40226257
H        2.43845561       1.42068753       0.15124292
14
Frame=5 idx=000556 GeodesicLength=0.49031720408860135 rxn_smarts="[C:1]([C:2]([C:3]#[C:4][C:5]([O:6][H:14])([H:12])[H:13])([H:10])[H:11])([H:7])([H:8])[H:9]>>[C:1]1([H:7])([H:8])[C:2]([H:10])([H:11])[C:3]1=[C:4]([C:5]([O:6][H:14])([H:12])[H:13])[H:9]"
C       -1.91230571       0.62136169       0.06462230
C       -1.60345395      -0.51424681      -0.87109817
C       -0.16292008      -0.39429168      -0.86449384
C        0.59193739      -0.30657545       0.16597716
C        2.02998953      -0.44031256       0.51655970
O        2.61761044       0.79407218       0.88376093
H       -1.38806466       1.54719244       0.26729069
H       -2.95569651       0.93988138      -0.01780492
H       -0.35296089       0.09773132       1.00807043
H       -1.95881785      -1.49258961      -0.54864440
H       -2.08642848      -0.27453715      -1.83173731
H        2.56468994      -0.89885903      -0.32277342
H        2.15163606      -1.09550541       1.38038628
H        2.46478479       1.41667868       0.16988457
14
Frame=6 idx=000556 GeodesicLength=0.5877870200291582 rxn_smarts="[C:1]([C:2]([C:3]#[C:4][C:5]([O:6][H:14])([H:12])[H:13])([H:10])[H:11])([H:7])([H:8])[H:9]>>[C:1]1([H:7])([H:8])[C:2]([H:10])([H:11])[C:3]1=[C:4]([C:5]([O:6][H:14])([H:12])[H:13])[H:9]"
C       -1.91412300       0.61905430       0.05663291
C       -1.60779021      -0.52649775      -0.87074391
C       -0.17151254      -0.35966021      -0.84476457
C        0.59587240      -0.28278998       0.17611243
C        2.03511548      -0.44514746       0.50641645
O        2.64651355       0.77374633       0.88678517
H       -1.42841365       1.55834403       0.29217098
H       -2.95534633       0.93725809      -0.05791894
H       -0.37404780       0.13844284       1.02811294
H       -1.94917259      -1.50420997      -0.53213831
H       -2.07900848      -0.30636536      -1.84047402
H        2.55440475      -0.89789270      -0.34583618
H        2.15711182      -1.11667495       1.35768556
H        2.49039661       1.41239279       0.18795949
14
Frame=7 idx=000556 GeodesicLength=0.6851847006523781 rxn_smarts="[C:1]([C:2]([C:3]#[C:4][C:5]([O:6][H:14])([H:12])[H:13])([H:10])[H:11])([H:7])([H:8])[H:9]>>[C:1]1([H:7])([H:8])[C:2]([H:10])([H:11])[C:3]1=[C:4]([C:5]([O:6][H:14])([H:12])[H:13])[H:9]"
C       -1.91514968       0.61748662       0.04855892
C       -1.61118291      -0.53848636      -0.86994847
C       -0.18047681      -0.32757799      -0.82381359
C        0.60005502      -0.25957626       0.18652405
C        2.03990776      -0.44966894       0.49585592
O        2.67429584       0.75350369       0.88886881
H       -1.46972905       1.56790212       0.31783358
H       -2.95331185       0.93502386      -0.09829824
H       -0.39635778       0.17882954       1.04863706
H       -1.94080831      -1.51451654      -0.51563210
H       -2.06855023      -0.33760846      -1.84906647
H        2.54379076      -0.89587643      -0.36918430
H        2.16226029      -1.13728334       1.33424975
H        2.51525697       1.40784848       0.20541508
14
Frame=8 idx=000556 GeodesicLength=0.7826262766497363 rxn_smarts="[C:1]([C:2]([C:3]#[C:4][C:5]([O:6][H:14])([H:12])[H:13])([H:10])[H:11])([H:7])([H:8])[H:9]>>[C:1]1([H:7])([H:8])[C:2]([H:10])([H:11])[C:3]1=[C:4]([C:5]([O:6][H:14])([H:12])[H:13])[H:9]"
C       -1.91533194       0.61669465       0.04041782
C       -1.61378097      -0.55021349      -0.86864872
C       -0.18975246      -0.29813331      -0.80165709
C        0.60453309      -0.23706242       0.19716853
C        2.04445439      -0.45387292       0.48484935
O        2.70099136       0.73337494       0.89014915
H       -1.51206597       1.57573379       0.34401311
H       -2.94936139       0.93351701      -0.13912248
H       -0.41997708       0.21880973       1.06961358
H       -1.93394838      -1.52352644      -0.49898494
H       -2.05525980      -0.36840382      -1.85735071
H        2.53295871      -0.89265512      -0.39287915
H        2.16724050      -1.15741736       1.30995181
H        2.53929994       1.40315477       0.22247975
14
Frame=9 idx=000556 GeodesicLength=0.8803389000279235 rxn_smarts="[C:1]([C:2]([C:3]#[C:4][C:5]([O:6][H:14])([H:12])[H:13])([H:10])[H:11])([H:7])([H:8])[H:9]>>[C:1]1([H:7])([H:8])[C:2]([H:10])([H:11])[C:3]1=[C:4]([C:5]([O:6][H:14])([H:12])[H:13])[H:9]"
C       -1.91467081       0.61652240       0.03238122
C       -1.61559933      -0.56164807      -0.86693255
C       -0.19933907      -0.27143159      -0.77806672
C        0.60931762      -0.21542563       0.20814841
C        2.04881418      -0.45774662       0.47350290
O        2.72654151       0.71356584       0.89032544
H       -1.55551397       1.58194719       0.37069235
H       -2.94328997       0.93299284      -0.18031944
H       -0.44519354       0.25790126       1.09120316
H       -1.92870620      -1.53120982      -0.48272789
H       -2.03901158      -0.39848236      -1.86520581
H        2.52196720      -0.88843078      -0.41673870
H        2.17227415      -1.17682041       1.28512893
H        2.56240981       1.39826575       0.23860869
14
Frame=10 idx=000556 GeodesicLength=0.9780960147160056 rxn_smarts="[C:1]([C:2]([C:3]#[C:4][C:5]([O:6][H:14])([H:12])[H:13])([H:10])[H:11])([H:7])([H:8])[H:9]>>[C:1]1([H:7])([H:8])[C:2]([H:10])([H:11])[C:3]1=[C:4]([C:5]([O:6][H:14])([H:12])[H:13])[H:9]"
C       -1.91318973       0.61713743       0.02435192
C       -1.61686598      -0.57275947      -0.86468643
C       -0.20905962      -0.24723272      -0.75338673
C        0.61449342      -0.19459045       0.21927494
C        2.05307651      -0.46131668       0.46174632
O        2.75119791       0.69393113       0.88980330
H       -1.60014419       1.58627688       0.39740738
H       -2.93515234       0.93342395      -0.22192904
H       -0.47189443       0.29650040       1.11317235
H       -1.92520446      -1.53769800      -0.46629338
H       -2.02032137      -0.42815575      -1.87252187
H        2.51093140      -0.88302784      -0.44085107
H        2.17730489      -1.19576852       1.25946717
H        2.58482799       1.39327964       0.25444512
14
Frame=11 idx=000556 GeodesicLength=1.0758856684488878 rxn_smarts="[C:1]([C:2]([C:3]#[C:4][C:5]([O:6][H:14])([H:12])[H:13])([H:10])[H:11])([H:7])([H:8])[H:9]>>[C:1]1([H:7])([H:8])[C:2]([H:10])([H:11])[C:3]1=[C:4]([C:5]([O:6][H:14])([H:12])[H:13])[H:9]"
C       -1.91088781       0.61852956       0.01641435
C       -1.61765915      -0.58347985      -0.86194199
C       -0.21887019      -0.22551722      -0.72759609
C        0.62007716      -0.17469130       0.23057579
C        2.05731564      -0.46459953       0.44963897
O        2.77499301       0.67458887       0.88846091
H       -1.64604411       1.58857728       0.42403160
H       -2.92485799       0.93491927      -0.26386847
H       -0.50021555       0.33447844       1.13556287
H       -1.92358678      -1.54295532      -0.44983804
H       -1.99920078      -0.45728932      -1.87924457
H        2.49997185      -0.87659197      -0.46509651
H        2.18246053      -1.21415895       1.23313580
H        2.60650418       1.38819005       0.26976539
14
Frame=12 idx=000556 GeodesicLength=1.1737087028880164 rxn_smarts="[C:1]([C:2]([C:3]#[C:4][C:5]([O:6][H:14])([H:12])[H:13])([H:10])[H:11])([H:7])([H:8])[H:9]>>[C:1]1([H:7])([H:8])[C:2]([H:10])([H:11])[C:3]1=[C:4]([C:5]([O:6][H:14])([H:12])[H:13])[H:9]"
C       -1.90775335       0.62071931       0.00857531
C       -1.61812677      -0.59382211      -0.85861487
C       -0.22873827      -0.20628242      -0.70062652
C        0.62610222      -0.15586925       0.24206738
C        2.06162234      -0.46762017       0.43711284
O        2.79801815       0.65548497       0.88647763
H       -1.69327100       1.58880843       0.45012226
H       -2.91218098       0.93766575      -0.30629060
H       -0.53020027       0.37199755       1.15832359
H       -1.92404292      -1.54698339      -0.43320424
H       -1.97590019      -0.48611161      -1.88514132
H        2.48914093      -0.86890009      -0.48962740
H        2.18794604      -1.23218274       1.20586505
H        2.62738407       1.38309578       0.28496089
14
Frame=13 idx=000556 GeodesicLength=1.2716570601783768 rxn_smarts="[C:1]([C:2]([C:3]#[C:4][C:5]([O:6][H:14])([H:12])[H:13])([H:10])[H:11])([H:7])([H:8])[H:9]>>[C:1]1([H:7])([H:8])[C:2]([H:10])([H:11])[C:3]1=[C:4]([C:5]([O:6][H:14])([H:12])[H:13])[H:9]"
C       -1.90388273       0.62359962       0.00095754
C       -1.61826763      -0.60375748      -0.85474013
C       -0.23864756      -0.18947004      -0.67212915
C        0.63260413      -0.13813719       0.25389167
C        2.06605899      -0.47041371       0.42419133
O        2.82036755       0.63665326       0.88365768
H       -1.74208483       1.58705312       0.47538946
H       -2.89707466       0.94169173      -0.34906214
H       -0.56203474       0.40905206       1.18161019
H       -1.92662121      -1.54984644      -0.41669571
H       -1.95025051      -0.51443504      -1.89017028
H        2.47840820      -0.86013002      -0.51441813
H        2.19391156      -1.24978603       1.17775872
H        2.64751346       1.37792618       0.29975895
14
Frame=14 idx=000556 GeodesicLength=1.3695369726326674 rxn_smarts="[C:1]([C:2]([C:3]#[C:4][C:5]([O:6][H:14])([H:12])[H:13])([H:10])[H:11])([H:7])([H:8])[H:9]>>[C:1]1([H:7])([H:8])[C:2]([H:10])([H:11])[C:3]1=[C:4]([C:5]([O:6][H:14])([H:12])[H:13])[H:9]"
C       -1.89918029       0.62730832      -0.00647619
C       -1.61826905      -0.61324044      -0.85023515
C       -0.24853915      -0.17507920      -0.64222517
C        0.63958507      -0.12173210       0.26603942
C        2.07072400      -0.47300283       0.41083433
O        2.84214940       0.61809507       0.88015161
H       -1.79256152       1.58301075       0.49954011
H       -2.87931452       0.94710851      -0.39225774
H       -0.59574699       0.44584583       1.20526772
H       -1.93160441      -1.55146023      -0.40007321
H       -1.92248869      -0.54244115      -1.89414076
H        2.46786900      -0.85009255      -0.53952635
H        2.20053604      -1.26709416       1.14861107
H        2.66684111       1.37277419       0.31449032
14
Frame=15 idx=000556 GeodesicLength=1.4672498910144536 rxn_smarts="[C:1]([C:2]([C:3]#[C:4][C:5]([O:6][H:14])([H:12])[H:13])([H:10])[H:11])([H:7])([H:8])[H:9]>>[C:1]1([H:7])([H:8])[C:2]([H:10])([H:11])[C:3]1=[C:4]([C:5]([O:6][H:14])([H:12])[H:13])[H:9]"
C       -1.89366343       0.63183752      -0.01365198
C       -1.61817618      -0.62220813      -0.84511684
C       -0.25838018      -0.16307984      -0.61069466
C        0.64705703      -0.10679476       0.27865511
C        2.07568804      -0.47542967       0.39705487
O        2.86344346       0.59986257       0.87582663
H       -1.84487335       1.57657126       0.52228201
H       -2.85879678       0.95394261      -0.43576776
H       -0.63146913       0.48247640       1.22934717
H       -1.93914748      -1.55180447      -0.38348969
H       -1.89254401      -0.57002287      -1.89698138
H        2.45751788      -0.83888196      -0.56493581
H        2.20801079      -1.28410086       1.11845082
H        2.68533332       1.36763220       0.32902152
14
Frame=16 idx=000556 GeodesicLength=1.5647104925322413 rxn_smarts="[C:1]([C:2]([C:3]#[C:4][C:5]([O:6][H:14])([H:12])[H:13])([H:10])[H:11])([H:7])([H:8])[H:9]>>[C:1]1([H:7])([H:8])[C:2]([H:10])([H:11])[C:3]1=[C:4]([C:5]([O:6][H:14])([H:12])[H:13])[H:9]"
C       -1.88730066       0.63723974      -0.02055246
C       -1.61811215      -0.63069541      -0.83926214
C       -0.26819296      -0.15363280      -0.57720996
C        0.65501675      -0.09362539       0.29193931
C        2.08106014      -0.47773616       0.38273992
O        2.88430233       0.58193320       0.87074016
H       -1.89914509       1.56770980       0.54308019
H       -2.83518210       0.96242192      -0.47972796
H       -0.66930003       0.51920634       1.25383506
H       -1.94960262      -1.55085605      -0.36683142
H       -1.86039675      -0.59734529      -1.89845897
H        2.44735693      -0.82619090      -0.59088486
H        2.21670514      -1.30102189       1.08688367
H        2.70279104       1.36259288       0.34370946
