12
Frame=0 idx=003836 GeodesicLength=0.0 rxn_smarts="[N:1]#[C:2][C:3]([C@@:4]1([H:9])[C:5]([H:10])([H:11])[N:6]1[H:12])([H:7])[H:8]>>[N+:1](=[C-:2][C:3](/[C:4](=[N:6]/[H:12])[H:9])([H:7])[H:8])=[C:5]([H:10])[H:11]"
N       -0.97699532      -0.75181454      -1.26380943
C       -1.63644941       0.18774415      -0.91287000
C       -0.88630182       0.98507521       0.13810362
C        0.29570303       0.03362096       0.60125189
C        0.30479138      -1.08132935      -0.86475720
N        1.43084407       0.67049507       0.77121407
H       -0.48130527       1.87306635      -0.35140218
H       -1.47389536       1.30387666       0.99883808
H       -0.03573732      -0.67599374       1.37418723
H        1.07820976      -0.76196530      -1.56115429
H        0.44370066      -2.10127370      -0.51149470
H        1.93743564       0.31849823       1.58189290
12
Frame=1 idx=003836 GeodesicLength=0.11036388701084897 rxn_smarts="[N:1]#[C:2][C:3]([C@@:4]1([H:9])[C:5]([H:10])([H:11])[N:6]1[H:12])([H:7])[H:8]>>[N+:1](=[C-:2][C:3](/[C:4](=[N:6]/[H:12])[H:9])([H:7])[H:8])=[C:5]([H:10])[H:11]"
N       -0.98762055      -0.74940174      -1.27245623
C       -1.63634418       0.19386145      -0.91281564
C       -0.89176242       0.98947407       0.14172886
C        0.28123981       0.04221567       0.61828914
C        0.32148057      -1.08223757      -0.85928520
N        1.43398360       0.65769726       0.75694076
H       -0.48264671       1.87791686      -0.34325440
H       -1.49135509       1.30640194       0.99484144
H       -0.04917344      -0.66766480       1.39004291
H        1.08914886      -0.76846437      -1.56437019
H        0.46336338      -2.10322353      -0.51027894
H        1.94968618       0.30342476       1.56061747
12
Frame=2 idx=003836 GeodesicLength=0.22068896579111547 rxn_smarts="[N:1]#[C:2][C:3]([C@@:4]1([H:9])[C:5]([H:10])([H:11])[N:6]1[H:12])([H:7])[H:8]>>[N+:1](=[C-:2][C:3](/[C:4](=[N:6]/[H:12])[H:9])([H:7])[H:8])=[C:5]([H:10])[H:11]"
N       -0.99898365      -0.74702071      -1.28116637
C       -1.63629814       0.20000062      -0.91237619
C       -0.89693329       0.99382544       0.14546737
C        0.26757428       0.05114571       0.63484941
C        0.33860810      -1.08324141      -0.85384985
N        1.43672999       0.64470522       0.74293107
H       -0.48396843       1.88276962      -0.33506850
H       -1.50821725       1.30885446       0.99096690
H       -0.06207087      -0.65895906       1.40543125
H        1.09976288      -0.77548802      -1.56846951
H        0.48326007      -2.10526106      -0.50906903
H        1.96053628       0.28866919       1.54035346
12
Frame=3 idx=003836 GeodesicLength=0.3309922617933385 rxn_smarts="[N:1]#[C:2][C:3]([C@@:4]1([H:9])[C:5]([H:10])([H:11])[N:6]1[H:12])([H:7])[H:8]>>[N+:1](=[C-:2][C:3](/[C:4](=[N:6]/[H:12])[H:9])([H:7])[H:8])=[C:5]([H:10])[H:11]"
N       -1.01114654      -0.74466000      -1.28997405
C       -1.63631820       0.20615916      -0.91157407
C       -0.90182030       0.99811948       0.14930239
C        0.25467249       0.06037838       0.65095605
C        0.35618766      -1.08435791      -0.84847107
N        1.43908848       0.63157040       0.72924446
H       -0.48526223       1.88760901      -0.32686772
H       -1.52447637       1.31123842       0.98720735
H       -0.07445215      -0.64991874       1.42036618
H        1.11005448      -0.78301323      -1.57338998
H        0.50336723      -2.10742018      -0.50791911
H        1.97010544       0.27429521       1.52111958
12
Frame=4 idx=003836 GeodesicLength=0.4412811556241243 rxn_smarts="[N:1]#[C:2][C:3]([C@@:4]1([H:9])[C:5]([H:10])([H:11])[N:6]1[H:12])([H:7])[H:8]>>[N+:1](=[C-:2][C:3](/[C:4](=[N:6]/[H:12])[H:9])([H:7])[H:8])=[C:5]([H:10])[H:11]"
N       -1.02417209      -0.74231324      -1.29891159
C       -1.63641326       0.21233036      -0.91042635
C       -0.90642895       1.00234886       0.15321778
C        0.24250073       0.06988352       0.66663300
C        0.37423724      -1.08560049      -0.84316442
N        1.44106560       0.61833936       0.71593417
H       -0.48651929       1.89241791      -0.31868022
H       -1.54012694       1.31356542       0.98355465
H       -0.08634097      -0.64058265       1.43486236
H        1.12002578      -0.79100521      -1.57906905
H        0.52367031      -2.10973087      -0.50687652
H        1.97850181       0.26034704       1.50292618
12
Frame=5 idx=003836 GeodesicLength=0.5515871782879614 rxn_smarts="[N:1]#[C:2][C:3]([C@@:4]1([H:9])[C:5]([H:10])([H:11])[N:6]1[H:12])([H:7])[H:8]>>[N+:1](=[C-:2][C:3](/[C:4](=[N:6]/[H:12])[H:9])([H:7])[H:8])=[C:5]([H:10])[H:11]"
N       -1.03813523      -0.73997218      -1.30800223
C       -1.63658978       0.21850356      -0.90895268
C       -0.91076463       1.00650767       0.15719582
C        0.23102472       0.07963371       0.68190705
C        0.39278376      -1.08698054      -0.83793774
N        1.44266803       0.60505114       0.70304867
H       -0.48772922       1.89718036      -0.31053652
H       -1.55517065       1.31585305       0.97999965
H       -0.09776654      -0.63098864       1.44893279
H        1.12967799      -0.79942389      -1.58544398
H        0.54416726      -2.11222006      -0.50598705
H        1.98583429       0.24685581       1.48577622
12
Frame=6 idx=003836 GeodesicLength=0.6619072238555661 rxn_smarts="[N:1]#[C:2][C:3]([C@@:4]1([H:9])[C:5]([H:10])([H:11])[N:6]1[H:12])([H:7])[H:8]>>[N+:1](=[C-:2][C:3](/[C:4](=[N:6]/[H:12])[H:9])([H:7])[H:8])=[C:5]([H:10])[H:11]"
N       -1.05310392      -0.73763128      -1.31727074
C       -1.63685733       0.22466801      -0.90716685
C       -0.91483216       1.01058953       0.16121883
C        0.22020952       0.08960328       0.69680207
C        0.41185493      -1.08850733      -0.83279710
N        1.44390531       0.59173828       0.69063166
H       -0.48888088       1.90187796      -0.30246972
H       -1.56960348       1.31811922       0.97653372
H       -0.10875548      -0.62117028       1.46259201
H        1.13901021      -0.80821980      -1.59245374
H        0.56485733      -2.11491273      -0.50528844
H        1.99219595       0.23384515       1.46966830
12
Frame=7 idx=003836 GeodesicLength=0.7722477830389309 rxn_smarts="[N:1]#[C:2][C:3]([C@@:4]1([H:9])[C:5]([H:10])([H:11])[N:6]1[H:12])([H:7])[H:8]>>[N+:1](=[C-:2][C:3](/[C:4](=[N:6]/[H:12])[H:9])([H:7])[H:8])=[C:5]([H:10])[H:11]"
N       -1.06915262      -0.73527317      -1.32673993
C       -1.63721834       0.23081370      -0.90509109
C       -0.91863605       1.01458552       0.16527069
C        0.21001675       0.09976848       0.71134268
C        0.43148212      -1.09018873      -0.82774117
N        1.44479276       0.57843053       0.67871697
H       -0.48996418       1.90649411      -0.29450577
H       -1.58342840       1.32037601       0.97314823
H       -0.11933643      -0.61116216       1.47585435
H        1.14802226      -0.81735254      -1.60003416
H        0.58574266      -2.11782935      -0.50481284
H        1.99767946       0.22133760       1.45459205
12
Frame=8 idx=003836 GeodesicLength=0.8826052105206156 rxn_smarts="[N:1]#[C:2][C:3]([C@@:4]1([H:9])[C:5]([H:10])([H:11])[N:6]1[H:12])([H:7])[H:8]>>[N+:1](=[C-:2][C:3](/[C:4](=[N:6]/[H:12])[H:9])([H:7])[H:8])=[C:5]([H:10])[H:11]"
N       -1.08636760      -0.73291035      -1.33641783
C       -1.63768574       0.23692356      -0.90273071
C       -0.92217868       1.01849576       0.16932979
C        0.20041588       0.11010371       0.72555262
C        0.45170845      -1.09202531      -0.82277190
N        1.44534292       0.56514841       0.66734392
H       -0.49096201       1.91101076      -0.28669086
H       -1.59664142       1.32265990       0.96982991
H       -0.12954158      -0.60099709       1.48873139
H        1.15669578      -0.82676079      -1.60813132
H        0.60685309      -2.12097921      -0.50460116
H        2.00236091       0.20933067       1.44055614
12
Frame=9 idx=003836 GeodesicLength=0.992974197564631 rxn_smarts="[N:1]#[C:2][C:3]([C@@:4]1([H:9])[C:5]([H:10])([H:11])[N:6]1[H:12])([H:7])[H:8]>>[N+:1](=[C-:2][C:3](/[C:4](=[N:6]/[H:12])[H:9])([H:7])[H:8])=[C:5]([H:10])[H:11]"
N       -1.10481398      -0.73047046      -1.34632706
C       -1.63823190       0.24298320      -0.90013417
C       -0.92546916       1.02230330       0.17338588
C        0.19136803       0.12060046       0.73945620
C        0.47257617      -1.09402276      -0.81787449
N        1.44557219       0.55191564       0.65652984
H       -0.49187687       1.91541889      -0.27902136
H       -1.60927673       1.32494713       0.96657584
H       -0.13939321      -0.59069831       1.50123393
H        1.16504195      -0.83644136      -1.61668011
H        0.62815701      -2.12439055      -0.50466215
H        2.00634650       0.19785482       1.42751765
12
Frame=10 idx=003836 GeodesicLength=1.1033787332687948 rxn_smarts="[N:1]#[C:2][C:3]([C@@:4]1([H:9])[C:5]([H:10])([H:11])[N:6]1[H:12])([H:7])[H:8]>>[N+:1](=[C-:2][C:3](/[C:4](=[N:6]/[H:12])[H:9])([H:7])[H:8])=[C:5]([H:10])[H:11]"
N       -1.12462042      -0.72798554      -1.35646225
C       -1.63888289       0.24897260      -0.89729136
C       -0.92850298       1.02600971       0.17741359
C        0.18284211       0.13122656       0.75307469
C        0.49413619      -1.09617814      -0.81304500
N        1.44550035       0.53874447       0.64631474
H       -0.49267837       1.91968959      -0.27156391
H       -1.62130983       1.32729873       0.96336175
H       -0.14892924      -0.58030555       1.51337121
H        1.17303590      -0.84630449      -1.62564497
H        0.64972347      -2.12806269      -0.50504029
H        2.00968570       0.18689475       1.41551178
12
Frame=11 idx=003836 GeodesicLength=1.2138139975722868 rxn_smarts="[N:1]#[C:2][C:3]([C@@:4]1([H:9])[C:5]([H:10])([H:11])[N:6]1[H:12])([H:7])[H:8]>>[N+:1](=[C-:2][C:3](/[C:4](=[N:6]/[H:12])[H:9])([H:7])[H:8])=[C:5]([H:10])[H:11]"
N       -1.14589952      -0.72544711      -1.36682586
C       -1.63964392       0.25487548      -0.89421045
C       -0.93127711       1.02960744       0.18139405
C        0.17480750       0.14196207       0.76643069
C        0.51643923      -1.09849137      -0.80827249
N        1.44514358       0.52563837       0.63673308
H       -0.49334286       1.92379591      -0.26436128
H       -1.63273434       1.32974468       0.96017121
H       -0.15818302      -0.56984786       1.52514975
H        1.18066364      -0.85628730      -1.63498710
H        0.67159510      -2.13200369      -0.50576049
H        2.01243171       0.17645338       1.40453889
12
Frame=12 idx=003836 GeodesicLength=1.324298509536036 rxn_smarts="[N:1]#[C:2][C:3]([C@@:4]1([H:9])[C:5]([H:10])([H:11])[N:6]1[H:12])([H:7])[H:8]>>[N+:1](=[C-:2][C:3](/[C:4](=[N:6]/[H:12])[H:9])([H:7])[H:8])=[C:5]([H:10])[H:11]"
N       -1.16878708      -0.72283587      -1.37740865
C       -1.64051468       0.26066887      -0.89090525
C       -0.93378763       1.03308698       0.18530533
C        0.16723277       0.15278592       0.77954591
C        0.53955042      -1.10095709      -0.80354233
N        1.44452256       0.51260149       0.62781783
H       -0.49384468       1.92770871      -0.25745875
H       -1.64354621       1.33231328       0.95698283
H       -0.16718892      -0.55935623       1.53657457
H        1.18790677      -0.86633011      -1.64467150
H        0.69381698      -2.13621657      -0.50684882
H        2.01463970       0.16653060       1.39460882
12
Frame=13 idx=003836 GeodesicLength=1.4348002088673992 rxn_smarts="[N:1]#[C:2][C:3]([C@@:4]1([H:9])[C:5]([H:10])([H:11])[N:6]1[H:12])([H:7])[H:8]>>[N+:1](=[C-:2][C:3](/[C:4](=[N:6]/[H:12])[H:9])([H:7])[H:8])=[C:5]([H:10])[H:11]"
N       -1.19341482      -0.72014580      -1.38819738
C       -1.64149765       0.26632783      -0.88738331
C       -0.93602774       1.03644133       0.18912520
C        0.16008912       0.16367469       0.79244052
C        0.56353441      -1.10356810      -0.79884216
N        1.44366012       0.49963203       0.61960250
H       -0.49415348       1.93140001      -0.25090491
H       -1.65373759       1.33504244       0.95377338
H       -0.17598095      -0.54886392       1.54765191
H        1.19474093      -0.87636419      -1.65466981
H        0.71643989      -2.14070019      -0.50833083
H        2.01634778       0.15712386       1.38573490
12
Frame=14 idx=003836 GeodesicLength=1.5453296759751458 rxn_smarts="[N:1]#[C:2][C:3]([C@@:4]1([H:9])[C:5]([H:10])([H:11])[N:6]1[H:12])([H:7])[H:8]>>[N+:1](=[C-:2][C:3](/[C:4](=[N:6]/[H:12])[H:9])([H:7])[H:8])=[C:5]([H:10])[H:11]"
N       -1.21995081      -0.71736209      -1.39917168
C       -1.64259362       0.27182586      -0.88365533
C       -0.93799021       1.03966083       0.19282834
C        0.15334780       0.17460673       0.80513405
C        0.58847200      -1.10631035      -0.79415451
N        1.44257576       0.48672595       0.61212462
H       -0.49423673       1.93483682      -0.24475467
H       -1.66330077       1.33797057       0.95051591
H       -0.18459839      -0.53840385       1.55838056
H        1.20113969      -0.88632637      -1.66495677
H        0.73953079      -2.14544632      -0.51023165
H        2.01760448       0.14822222       1.37794113
12
Frame=15 idx=003836 GeodesicLength=1.6558649012925604 rxn_smarts="[N:1]#[C:2][C:3]([C@@:4]1([H:9])[C:5]([H:10])([H:11])[N:6]1[H:12])([H:7])[H:8]>>[N+:1](=[C-:2][C:3](/[C:4](=[N:6]/[H:12])[H:9])([H:7])[H:8])=[C:5]([H:10])[H:11]"
N       -1.24856942      -0.71447132      -1.41030419
C       -1.64380236       0.27713357      -0.87973033
C       -0.93966535       1.04273580       0.19638884
C        0.14698334       0.18556016       0.81764464
C        0.61444905      -1.10916698      -0.78946348
N        1.44128680       0.47387507       0.60542477
H       -0.49405723       1.93798202      -0.23906678
H       -1.67222471       1.34113874       0.94717895
H       -0.19307936      -0.52800796       1.56875697
H        1.20706822      -0.89614877      -1.67551194
H        0.76316256      -2.15044171      -0.51257519
H        2.01844846       0.13981137       1.37125773
12
Frame=16 idx=003836 GeodesicLength=1.766390086190082 rxn_smarts="[N:1]#[C:2][C:3]([C@@:4]1([H:9])[C:5]([H:10])([H:11])[N:6]1[H:12])([H:7])[H:8]>>[N+:1](=[C-:2][C:3](/[C:4](=[N:6]/[H:12])[H:9])([H:7])[H:8])=[C:5]([H:10])[H:11]"
N       -1.27946856      -0.71146003      -1.42156113
C       -1.64512474       0.28221591      -0.87561420
C       -0.94104166       1.04565547       0.19977723
C        0.14096655       0.19650693       0.82999226
C        0.64156560      -1.11211332      -0.78475321
N        1.43981983       0.46106659       0.59954559
H       -0.49357064       1.94079300      -0.23390939
H       -1.68049587       1.34459692       0.94372478
H       -0.20146847      -0.51771573       1.57877759
H        1.21248583      -0.90575847      -1.68631316
H        0.78741580      -2.15566467      -0.51538916
H        2.01891633       0.13187739       1.36572280
