13
Frame=0 idx=006239 GeodesicLength=0.0 rxn_smarts="[O:1]=[C:2]([N:3]1[C:4]([H:8])([H:9])[C:5]([H:10])([H:11])[C:6]1([H:12])[H:13])[H:7]>>[C:5](=[C:6]([H:12])[H:13])([H:10])[H:11].[O:1]=[C:2]=[N:3][C:4]([H:7])([H:8])[H:9]"
O        2.99463279       0.13979591      -0.66447665
C        1.87413714       0.44326767      -0.52755481
N        0.68294369       0.02675547      -0.13996624
C       -0.21078487       1.13604266      -0.32803908
C       -1.37824496      -0.57980612       0.47681897
C       -0.06879989      -1.20379318       0.40565347
H        0.88576549       1.74874286      -0.75403909
H       -0.48747929       1.72913977       0.53379467
H       -0.83730463       1.14818181      -1.21045696
H       -1.76128299      -0.26786381       1.43907716
H       -2.12142662      -0.82578436      -0.26935958
H        0.04180154      -2.01164576      -0.31645784
H        0.38604255      -1.48303295       1.35500594
13
Frame=1 idx=006239 GeodesicLength=0.09815427012455086 rxn_smarts="[O:1]=[C:2]([N:3]1[C:4]([H:8])([H:9])[C:5]([H:10])([H:11])[C:6]1([H:12])[H:13])[H:7]>>[C:5](=[C:6]([H:12])[H:13])([H:10])[H:11].[O:1]=[C:2]=[N:3][C:4]([H:7])([H:8])[H:9]"
O        2.97607241       0.10760933      -0.76814302
C        1.87956260       0.44414029      -0.53717472
N        0.69584801       0.04649194      -0.12274793
C       -0.20959499       1.14611460      -0.30929051
C       -1.38385405      -0.58890319       0.45731636
C       -0.06985366      -1.20387043       0.43044609
H        0.91078265       1.77384087      -0.72302646
H       -0.49075388       1.74021009       0.55075290
H       -0.83123003       1.16015670      -1.19545821
H       -1.80458564      -0.28594727       1.40693638
H       -2.10230736      -0.85220955      -0.30746347
H        0.06914764      -2.01975159      -0.27760681
H        0.36076631      -1.46788177       1.39545941
13
Frame=2 idx=006239 GeodesicLength=0.19631750947129573 rxn_smarts="[O:1]=[C:2]([N:3]1[C:4]([H:8])([H:9])[C:5]([H:10])([H:11])[C:6]1([H:12])[H:13])[H:7]>>[C:5](=[C:6]([H:12])[H:13])([H:10])[H:11].[O:1]=[C:2]=[N:3][C:4]([H:7])([H:8])[H:9]"
O        2.95074787       0.07928390      -0.86891419
C        1.88453298       0.44344240      -0.54910239
N        0.70930482       0.06582948      -0.10625047
C       -0.20784522       1.15583822      -0.29057701
C       -1.38817050      -0.59802829       0.43760152
C       -0.07131907      -1.20435364       0.45543456
H        0.93757288       1.79779836      -0.69188523
H       -0.49244972       1.75121353       0.56780060
H       -0.82512143       1.17220671      -1.18008231
H       -1.84610134      -0.30414465       1.37310458
H       -2.08107530      -0.87823049      -0.34506409
H        0.09555504      -2.02799845      -0.23746169
H        0.33436898      -1.45285708       1.43539611
13
Frame=3 idx=006239 GeodesicLength=0.2943305237425634 rxn_smarts="[O:1]=[C:2]([N:3]1[C:4]([H:8])([H:9])[C:5]([H:10])([H:11])[C:6]1([H:12])[H:13])[H:7]>>[C:5](=[C:6]([H:12])[H:13])([H:10])[H:11].[O:1]=[C:2]=[N:3][C:4]([H:7])([H:8])[H:9]"
O        2.91910455       0.05425376      -0.96672562
C        1.88884485       0.44156844      -0.56292711
N        0.72326899       0.08486772      -0.09054054
C       -0.20562476       1.16520839      -0.27188191
C       -1.39117199      -0.60721227       0.41767340
C       -0.07319969      -1.20514835       0.48056699
H        0.96604254       1.82054119      -0.66082835
H       -0.49263320       1.76216499       0.58492428
H       -0.81913719       1.18423573      -1.16425938
H       -1.88574821      -0.32245170       1.33754760
H       -2.05770266      -0.90395470      -0.38213160
H        0.12106623      -2.03623306      -0.19610616
H        0.30689055      -1.43784014       1.47468838
13
Frame=4 idx=006239 GeodesicLength=0.39227897313555815 rxn_smarts="[O:1]=[C:2]([N:3]1[C:4]([H:8])([H:9])[C:5]([H:10])([H:11])[C:6]1([H:12])[H:13])[H:7]>>[C:5](=[C:6]([H:12])[H:13])([H:10])[H:11].[O:1]=[C:2]=[N:3][C:4]([H:7])([H:8])[H:9]"
O        2.88204819       0.03229967      -1.06082889
C        1.89233789       0.43878878      -0.57850715
N        0.73767043       0.10363379      -0.07585001
C       -0.20305636       1.17423497      -0.25327000
C       -1.39290187      -0.61646729       0.39766873
C       -0.07553515      -1.20626678       0.50569571
H        0.99606708       1.84200631      -0.63038098
H       -0.49131038       1.77312788       0.60207352
H       -0.81355037       1.19620547      -1.14796232
H       -1.92337786      -0.34086680       1.30049769
H       -2.03239338      -0.92938090      -0.41839628
H        0.14556552      -2.04437987      -0.15382337
H        0.27843626      -1.42293521       1.51308333
13
Frame=5 idx=006239 GeodesicLength=0.49033538214520417 rxn_smarts="[O:1]=[C:2]([N:3]1[C:4]([H:8])([H:9])[C:5]([H:10])([H:11])[C:6]1([H:12])[H:13])[H:7]>>[C:5](=[C:6]([H:12])[H:13])([H:10])[H:11].[O:1]=[C:2]=[N:3][C:4]([H:7])([H:8])[H:9]"
O        2.83967466       0.01333779      -1.15231853
C        1.89509466       0.43520876      -0.59538149
N        0.75256332       0.12215021      -0.06203130
C       -0.20013654       1.18293275      -0.23462999
C       -1.39343352      -0.62586633       0.37746836
C       -0.07835465      -1.20769270       0.53101002
H        1.02777112       1.86219940      -0.60045082
H       -0.48859207       1.78411359       0.61935302
H       -0.80824695       1.20815572      -1.13118501
H       -1.95928910      -0.35948418       1.26174784
H       -2.00502809      -0.95462784      -0.45411283
H        0.16924581      -2.05242256      -0.11035962
H        0.24873137      -1.40800461       1.55089036
13
Frame=6 idx=006239 GeodesicLength=0.5884724781750712 rxn_smarts="[O:1]=[C:2]([N:3]1[C:4]([H:8])([H:9])[C:5]([H:10])([H:11])[C:6]1([H:12])[H:13])[H:7]>>[C:5](=[C:6]([H:12])[H:13])([H:10])[H:11].[O:1]=[C:2]=[N:3][C:4]([H:7])([H:8])[H:9]"
O        2.79300677      -0.00271167      -1.23991819
C        1.89700597       0.43106640      -0.61344046
N        0.76783974       0.14045071      -0.04934911
C       -0.19700856       1.19127488      -0.21608877
C       -1.39282005      -0.63537936       0.35732605
C       -0.08172311      -1.20946671       0.55624290
H        1.06096622       1.88105406      -0.57177076
H       -0.48443795       1.79520578       0.63660582
H       -0.80353819       1.21994287      -1.11394204
H       -1.99317338      -0.37824685       1.22174116
H       -1.97597650      -0.97961034      -0.48880548
H        0.19186068      -2.06023702      -0.06625270
H        0.21799837      -1.39334275       1.58765157
13
Frame=7 idx=006239 GeodesicLength=0.6866871526614667 rxn_smarts="[O:1]=[C:2]([N:3]1[C:4]([H:8])([H:9])[C:5]([H:10])([H:11])[C:6]1([H:12])[H:13])[H:7]>>[C:5](=[C:6]([H:12])[H:13])([H:10])[H:11].[O:1]=[C:2]=[N:3][C:4]([H:7])([H:8])[H:9]"
O        2.74279079      -0.01600747      -1.32322264
C        1.89804879       0.42654230      -0.63246208
N        0.78343904       0.15860198      -0.03786787
C       -0.19377541       1.19924779      -0.19768763
C       -1.39113929      -0.64500184       0.33737957
C       -0.08568167      -1.21160865       0.58127774
H        1.09555294       1.89859611      -0.54474248
H       -0.47890423       1.80647334       0.65373850
H       -0.79955387       1.23145929      -1.09626492
H       -2.02494745      -0.39714921       1.18074854
H       -1.94548510      -1.00429737      -0.52225455
H        0.21334014      -2.06771998      -0.02182431
H        0.18631531      -1.37913628       1.62318214
13
Frame=8 idx=006239 GeodesicLength=0.7850174670160905 rxn_smarts="[O:1]=[C:2]([N:3]1[C:4]([H:8])([H:9])[C:5]([H:10])([H:11])[C:6]1([H:12])[H:13])[H:7]>>[C:5](=[C:6]([H:12])[H:13])([H:10])[H:11].[O:1]=[C:2]=[N:3][C:4]([H:7])([H:8])[H:9]"
O        2.68949216      -0.02668880      -1.40234723
C        1.89822451       0.42173601      -0.65228609
N        0.79933809       0.17667262      -0.02755832
C       -0.19049550       1.20685130      -0.17939745
C       -1.38846833      -0.65475710       0.31766772
C       -0.09026425      -1.21412359       0.60611629
H        1.13152487       1.91488968      -0.51952204
H       -0.47206075       1.81796621       0.67073057
H       -0.79631312       1.24266326      -1.07815635
H       -2.05468084      -0.41622653       1.13886437
H       -1.91366407      -1.02872046      -0.55442882
H        0.23372781      -2.07480919       0.02282941
H        0.15363942      -1.36545341       1.65748794
13
Frame=9 idx=006239 GeodesicLength=0.8833820190174876 rxn_smarts="[O:1]=[C:2]([N:3]1[C:4]([H:8])([H:9])[C:5]([H:10])([H:11])[C:6]1([H:12])[H:13])[H:7]>>[C:5](=[C:6]([H:12])[H:13])([H:10])[H:11].[O:1]=[C:2]=[N:3][C:4]([H:7])([H:8])[H:9]"
O        2.63375774      -0.03501638      -1.47688531
C        1.89754766       0.41684239      -0.67264808
N        0.81546550       0.19477480      -0.01844570
C       -0.18727477       1.21406102      -0.16125876
C       -1.38489044      -0.66462039       0.29833860
C       -0.09549331      -1.21702174       0.63061447
H        1.16877606       1.93001062      -0.49644472
H       -0.46399270       1.82975202       0.68743912
H       -0.79391174       1.25340344      -1.05966212
H       -2.08228499      -0.43544800       1.09638558
H       -1.88080323      -1.05282939      -0.58510634
H        0.25296773      -2.08138439       0.06732356
H        0.12013650      -1.35252400       1.69034969
13
Frame=10 idx=006239 GeodesicLength=0.9818768889245323 rxn_smarts="[O:1]=[C:2]([N:3]1[C:4]([H:8])([H:9])[C:5]([H:10])([H:11])[C:6]1([H:12])[H:13])[H:7]>>[C:5](=[C:6]([H:12])[H:13])([H:10])[H:11].[O:1]=[C:2]=[N:3][C:4]([H:7])([H:8])[H:9]"
O        2.57591946      -0.04103546      -1.54724554
C        1.89602170       0.41186240      -0.69352591
N        0.83181720       0.21296194      -0.01047982
C       -0.18414327       1.22088956      -0.14320771
C       -1.38048956      -0.67463091       0.27937759
C       -0.10140590      -1.22031904       0.65485543
H        1.20738152       1.94405288      -0.47547555
H       -0.45477139       1.84187590       0.70387734
H       -0.79230858       1.26370763      -1.04077169
H       -2.10792493      -0.45487673       1.05331934
H       -1.84693827      -1.07668237      -0.61436739
H        0.27116446      -2.08744769       0.11173382
H        0.08567757      -1.34035811       1.72191009
13
Frame=11 idx=006239 GeodesicLength=1.0804946856354698 rxn_smarts="[O:1]=[C:2]([N:3]1[C:4]([H:8])([H:9])[C:5]([H:10])([H:11])[C:6]1([H:12])[H:13])[H:7]>>[C:5](=[C:6]([H:12])[H:13])([H:10])[H:11].[O:1]=[C:2]=[N:3][C:4]([H:7])([H:8])[H:9]"
O        2.51634728      -0.04492774      -1.61345898
C        1.89365844       0.40689051      -0.71479538
N        0.84835647       0.23133194      -0.00364684
C       -0.18116110       1.22733146      -0.12521425
C       -1.37533870      -0.68479514       0.26083507
C       -0.10802555      -1.22402329       0.67881437
H        1.24735134       1.95710164      -0.45671863
H       -0.44446989       1.85439012       0.71998360
H       -0.79152183       1.27352354      -1.02147986
H       -2.13164975      -0.47452883       1.00977587
H       -1.81219990      -1.10028581      -0.64217105
H        0.28836080      -2.09294477       0.15593895
H        0.05029238      -1.32906365       1.75213715
13
Frame=12 idx=006239 GeodesicLength=1.1792544036598638 rxn_smarts="[O:1]=[C:2]([N:3]1[C:4]([H:8])([H:9])[C:5]([H:10])([H:11])[C:6]1([H:12])[H:13])[H:7]>>[C:5](=[C:6]([H:12])[H:13])([H:10])[H:11].[O:1]=[C:2]=[N:3][C:4]([H:7])([H:8])[H:9]"
O        2.45525760      -0.04677282      -1.67578081
C        1.89044101       0.40195511      -0.73642369
N        0.86506512       0.24996210       0.00207988
C       -0.17835747       1.23338317      -0.10721414
C       -1.36949413      -0.69513916       0.24270550
C       -0.11538427      -1.22813771       0.70253558
H        1.28876757       1.96921480      -0.44015752
H       -0.43313657       1.86733253       0.73573817
H       -0.79153007       1.28284508      -1.00175264
H       -2.15355632      -0.49445179       0.96575828
H       -1.77661771      -1.12368010      -0.66856680
H        0.30463899      -2.09784564       0.19997715
H        0.01390625      -1.31866557       1.78110102
13
Frame=13 idx=006239 GeodesicLength=1.2781273284032535 rxn_smarts="[O:1]=[C:2]([N:3]1[C:4]([H:8])([H:9])[C:5]([H:10])([H:11])[C:6]1([H:12])[H:13])[H:7]>>[C:5](=[C:6]([H:12])[H:13])([H:10])[H:11].[O:1]=[C:2]=[N:3][C:4]([H:7])([H:8])[H:9]"
O        2.39294826      -0.04675821      -1.73421881
C        1.88638569       0.39715394      -0.75830611
N        0.88190207       0.26896081       0.00669709
C       -0.17579195       1.23903622      -0.08917663
C       -1.36301862      -0.70566235       0.22503819
C       -0.12349862      -1.23267813       0.72598694
H        1.33167008       1.98045657      -0.42585187
H       -0.42086083       1.88074712       0.75105708
H       -0.79235120       1.29162709      -0.98158114
H       -2.17368129      -0.51464831       0.92136725
H       -1.74031608      -1.14685657      -0.69350855
H        0.32004292      -2.10209550       0.24373309
H       -0.02343043      -1.30928268       1.80876348
13
Frame=14 idx=006239 GeodesicLength=1.3771548201299695 rxn_smarts="[O:1]=[C:2]([N:3]1[C:4]([H:8])([H:9])[C:5]([H:10])([H:11])[C:6]1([H:12])[H:13])[H:7]>>[C:5](=[C:6]([H:12])[H:13])([H:10])[H:11].[O:1]=[C:2]=[N:3][C:4]([H:7])([H:8])[H:9]"
O        2.32962888      -0.04486607      -1.78903892
C        1.88146594       0.39249584      -0.78044592
N        0.89884250       0.28840126       0.01020335
C       -0.17348799       1.24428500      -0.07104132
C       -1.35596856      -0.71639387       0.20783632
C       -0.13241325      -1.23766576       0.74922110
H        1.37619453       1.99085160      -0.41376280
H       -0.40768419       1.89468689       0.76589201
H       -0.79396536       1.29986823      -0.96093055
H       -2.19211360      -0.53516932       0.87661803
H       -1.70332087      -1.16985345      -0.71703564
H        0.33464453      -2.10568082       0.28727910
H       -0.06182256      -1.30095955       1.83520524
13
Frame=15 idx=006239 GeodesicLength=1.4763210562054108 rxn_smarts="[O:1]=[C:2]([N:3]1[C:4]([H:8])([H:9])[C:5]([H:10])([H:11])[C:6]1([H:12])[H:13])[H:7]>>[C:5](=[C:6]([H:12])[H:13])([H:10])[H:11].[O:1]=[C:2]=[N:3][C:4]([H:7])([H:8])[H:9]"
O        2.26545346      -0.04113463      -1.84040999
C        1.87566009       0.38802077      -0.80280757
N        0.91585138       0.30837675       0.01258922
C       -0.17147822       1.24911304      -0.05274535
C       -1.34838702      -0.72734897       0.19110999
C       -0.14216036      -1.24311449       0.77226078
H        1.42247263       2.00039141      -0.40387697
H       -0.39365919       1.90919080       0.78017170
H       -0.79637255       1.30754883      -0.93975289
H       -2.20891087      -0.55604714       0.83151931
H       -1.66566193      -1.19268501      -0.73916344
H        0.34851161      -2.10855414       0.33065023
H       -0.10131902      -1.29375723       1.86045498
13
Frame=16 idx=006239 GeodesicLength=1.57563816675653 rxn_smarts="[O:1]=[C:2]([N:3]1[C:4]([H:8])([H:9])[C:5]([H:10])([H:11])[C:6]1([H:12])[H:13])[H:7]>>[C:5](=[C:6]([H:12])[H:13])([H:10])[H:11].[O:1]=[C:2]=[N:3][C:4]([H:7])([H:8])[H:9]"
O        2.20060378      -0.03561048      -1.88846081
C        1.86895990       0.38378906      -0.82535138
N        0.93288631       0.32900064       0.01383313
C       -0.16980086       1.25351289      -0.03423227
C       -1.34032176      -0.73854499       0.17488795
C       -0.15277429      -1.24905720       0.79511468
H        1.47065860       2.00906704      -0.39619313
H       -0.37886466       1.92431893       0.79379943
H       -0.79957575       1.31464751      -0.91800927
H       -2.22412094      -0.57730722       0.78611703
H       -1.62739362      -1.21536390      -0.75988302
H        0.36169835      -2.11067759       0.37385064
H       -0.14195505      -1.28777469       1.88452703
