11
Frame=0 idx=000759 GeodesicLength=0.0 rxn_smarts="[C:1]([c:2]1[n:3][n:4]([H:10])[n:5][c:6]1[H:11])([H:7])([H:8])[H:9]>>[C+:1]([C:2]1=[N:3][N:4]([H:10])[N-:5][C:6]1([H:7])[H:11])([H:8])[H:9]"
C       -1.68678746      -0.51513241      -0.30641055
C       -0.31504658      -0.26238635      -0.20902363
N        0.70475208      -1.16084945       0.02727830
N        1.76739398      -0.39236112       0.21953518
N        1.63667932       0.88265239       0.17542417
C        0.33286847       1.06975182      -0.08689833
H       -0.59738573       0.38069707       0.80661787
H       -2.35308837       0.28609876      -0.58537407
H       -2.05896043      -1.52094501      -0.19906365
H        2.66215327      -0.81149786       0.41646580
H       -0.09257855       2.04397220      -0.25855113
11
Frame=1 idx=000759 GeodesicLength=0.09204143120677026 rxn_smarts="[C:1]([c:2]1[n:3][n:4]([H:10])[n:5][c:6]1[H:11])([H:7])([H:8])[H:9]>>[C+:1]([C:2]1=[N:3][N:4]([H:10])[N-:5][C:6]1([H:7])[H:11])([H:8])[H:9]"
C       -1.68600665      -0.51137555      -0.28792230
C       -0.31165379      -0.26115180      -0.21308022
N        0.70619475      -1.16117010       0.01972803
N        1.76849887      -0.39480019       0.21308132
N        1.63759639       0.88128446       0.18620311
C        0.32998279       1.07020506      -0.06947848
H       -0.62263079       0.39250721       0.82384451
H       -2.34969111       0.28040599      -0.59963396
H       -2.05039321      -1.52241343      -0.20109699
H        2.66378803      -0.81554527       0.40470227
H       -0.08568527       2.04205362      -0.27634729
11
Frame=2 idx=000759 GeodesicLength=0.18373107650148873 rxn_smarts="[C:1]([c:2]1[n:3][n:4]([H:10])[n:5][c:6]1[H:11])([H:7])([H:8])[H:9]>>[C+:1]([C:2]1=[N:3][N:4]([H:10])[N-:5][C:6]1([H:7])[H:11])([H:8])[H:9]"
C       -1.68475975      -0.50766686      -0.27093299
C       -0.30812394      -0.25976906      -0.21803278
N        0.70766150      -1.16137790       0.01166436
N        1.76956436      -0.39710098       0.20657156
N        1.63835710       0.87982942       0.19781791
C        0.32700389       1.07056209      -0.05196240
H       -0.64896828       0.40502214       0.84049243
H       -2.34619791       0.27385069      -0.61333117
H       -2.04187375      -1.52314175      -0.20144576
H        2.66538690      -0.81945760       0.39269867
H       -0.07805012       2.03924981      -0.29353983
11
Frame=3 idx=000759 GeodesicLength=0.27529466652560153 rxn_smarts="[C:1]([c:2]1[n:3][n:4]([H:10])[n:5][c:6]1[H:11])([H:7])([H:8])[H:9]>>[C+:1]([C:2]1=[N:3][N:4]([H:10])[N-:5][C:6]1([H:7])[H:11])([H:8])[H:9]"
C       -1.68303762      -0.50401399      -0.25542085
C       -0.30440485      -0.25827773      -0.22405404
N        0.70915616      -1.16150393       0.00318611
N        1.77058822      -0.39927711       0.20011279
N        1.63895890       0.87825986       0.21036141
C        0.32394746       1.07075784      -0.03455759
H       -0.67648637       0.41843438       0.85639352
H       -2.34262769       0.26651570      -0.62665052
H       -2.03338903      -1.52328876      -0.19987448
H        2.66701408      -0.82327870       0.38026980
H       -0.06971925       2.03567245      -0.30976615
11
Frame=4 idx=000759 GeodesicLength=0.366787871628917 rxn_smarts="[C:1]([c:2]1[n:3][n:4]([H:10])[n:5][c:6]1[H:11])([H:7])([H:8])[H:9]>>[C+:1]([C:2]1=[N:3][N:4]([H:10])[N-:5][C:6]1([H:7])[H:11])([H:8])[H:9]"
C       -1.68084485      -0.50039981      -0.24111372
C       -0.30046680      -0.25671438      -0.23139371
N        0.71075144      -1.16158960      -0.00614050
N        1.77165328      -0.40135542       0.19322002
N        1.63939295       0.87647031       0.22338324
C        0.32083531       1.07071213      -0.01755056
H       -0.70505903       0.43287593       0.87138455
H       -2.33913135       0.25845241      -0.63932975
H       -2.02488226      -1.52299426      -0.19642908
H        2.66845229      -0.82692569       0.36849430
H       -0.06070096       2.03146839      -0.32452479
11
Frame=5 idx=000759 GeodesicLength=0.4584412546692033 rxn_smarts="[C:1]([c:2]1[n:3][n:4]([H:10])[n:5][c:6]1[H:11])([H:7])([H:8])[H:9]>>[C+:1]([C:2]1=[N:3][N:4]([H:10])[N-:5][C:6]1([H:7])[H:11])([H:8])[H:9]"
C       -1.67814997      -0.49680459      -0.22785204
C       -0.29626775      -0.25513093      -0.24013639
N        0.71243461      -1.16169421      -0.01614025
N        1.77272216      -0.40338532       0.18615583
N        1.63965380       0.87442446       0.23701998
C        0.31766547       1.07033845      -0.00106709
H       -0.73480578       0.44864663       0.88536889
H       -2.33572444       0.24964746      -0.65148725
H       -2.01630478      -1.52238296      -0.19115747
H        2.66980936      -0.83043974       0.35695515
H       -0.05103268       2.02678075      -0.33765937
11
Frame=6 idx=000759 GeodesicLength=0.5502765425770113 rxn_smarts="[C:1]([c:2]1[n:3][n:4]([H:10])[n:5][c:6]1[H:11])([H:7])([H:8])[H:9]>>[C+:1]([C:2]1=[N:3][N:4]([H:10])[N-:5][C:6]1([H:7])[H:11])([H:8])[H:9]"
C       -1.67491879      -0.49322478      -0.21535776
C       -0.29179591      -0.25351504      -0.25044829
N        0.71427414      -1.16181654      -0.02721711
N        1.77379558      -0.40542148       0.17881270
N        1.63967381       0.87197049       0.25112999
C        0.31442822       1.06956742       0.01487807
H       -0.76575311       0.46594938       0.89824631
H       -2.33249282       0.24004429      -0.66296089
H       -2.00746083      -1.52147319      -0.18411003
H        2.67099670      -0.83385943       0.34610557
H       -0.04074699       2.02177887      -0.34907856
11
Frame=7 idx=000759 GeodesicLength=0.6424418201317366 rxn_smarts="[C:1]([c:2]1[n:3][n:4]([H:10])[n:5][c:6]1[H:11])([H:7])([H:8])[H:9]>>[C+:1]([C:2]1=[N:3][N:4]([H:10])[N-:5][C:6]1([H:7])[H:11])([H:8])[H:9]"
C       -1.67107838      -0.48961592      -0.20346225
C       -0.28702483      -0.25185244      -0.26245867
N        0.71629615      -1.16197410      -0.03955448
N        1.77490931      -0.40745509       0.17112374
N        1.63946681       0.86908513       0.26570132
C        0.31111301       1.06835523       0.03028366
H       -0.79796087       0.48498318       0.91002220
H       -2.32946456       0.22960997      -0.67372777
H       -1.99826897      -1.52038549      -0.17529846
H        2.67197220      -0.83735215       0.33610771
H       -0.02995985       2.01660166      -0.35873703
11
Frame=8 idx=000759 GeodesicLength=0.7348950263461832 rxn_smarts="[C:1]([c:2]1[n:3][n:4]([H:10])[n:5][c:6]1[H:11])([H:7])([H:8])[H:9]>>[C+:1]([C:2]1=[N:3][N:4]([H:10])[N-:5][C:6]1([H:7])[H:11])([H:8])[H:9]"
C       -1.66655768      -0.48597083      -0.19198082
C       -0.28192742      -0.25013724      -0.27621384
N        0.71855404      -1.16215803      -0.05327320
N        1.77596357      -0.40960849       0.16343199
N        1.63889002       0.86560514       0.28106579
C        0.30768509       1.06661780       0.04524158
H       -0.83169549       0.50614327       0.92047006
H       -2.32664948       0.21818690      -0.68383236
H       -1.98854083      -1.51909366      -0.16466363
H        2.67284223      -0.84090194       0.32643896
H       -0.01856407       2.01131710      -0.36668453
11
Frame=9 idx=000759 GeodesicLength=0.8267785388100504 rxn_smarts="[C:1]([c:2]1[n:3][n:4]([H:10])[n:5][c:6]1[H:11])([H:7])([H:8])[H:9]>>[C+:1]([C:2]1=[N:3][N:4]([H:10])[N-:5][C:6]1([H:7])[H:11])([H:8])[H:9]"
C       -1.66131269      -0.48222655      -0.18062035
C       -0.27665939      -0.24802215      -0.29183244
N        0.72107552      -1.16209600      -0.06979102
N        1.77698288      -0.41178392       0.15528158
N        1.63779398       0.86128754       0.29835998
C        0.30402263       1.06443364       0.06000460
H       -0.86708999       0.52969187       0.92907112
H       -2.32396706       0.20534350      -0.69338697
H       -1.97773852      -1.51754056      -0.15129098
H        2.67329682      -0.84488319       0.31745023
H       -0.00640419       2.00579581      -0.37324576
11
Frame=10 idx=000759 GeodesicLength=0.9188108835039183 rxn_smarts="[C:1]([c:2]1[n:3][n:4]([H:10])[n:5][c:6]1[H:11])([H:7])([H:8])[H:9]>>[C+:1]([C:2]1=[N:3][N:4]([H:10])[N-:5][C:6]1([H:7])[H:11])([H:8])[H:9]"
C       -1.65516292      -0.47836647      -0.16929680
C       -0.27106707      -0.24569284      -0.30946459
N        0.72392960      -1.16190646      -0.08852369
N        1.77782966      -0.41423137       0.14727537
N        1.63598470       0.85586228       0.31713313
C        0.30014243       1.06156236       0.07453535
H       -0.90458588       0.55628422       0.93556038
H       -2.32156158       0.19097898      -0.70218641
H       -1.96582489      -1.51574744      -0.13559070
H        2.67363405      -0.84898902       0.30848577
H        0.00668189       2.00024577      -0.37792782
11
Frame=11 idx=000759 GeodesicLength=1.011078715514436 rxn_smarts="[C:1]([c:2]1[n:3][n:4]([H:10])[n:5][c:6]1[H:11])([H:7])([H:8])[H:9]>>[C+:1]([C:2]1=[N:3][N:4]([H:10])[N-:5][C:6]1([H:7])[H:11])([H:8])[H:9]"
C       -1.64795050      -0.47435975      -0.15786102
C       -0.26517695      -0.24301433      -0.32924110
N        0.72716743      -1.16144778      -0.10999474
N        1.77854219      -0.41689562       0.13911800
N        1.63342839       0.84922694       0.33765932
C        0.29595470       1.05795366       0.08891265
H       -0.94446559       0.58634036       0.93965367
H       -2.31945046       0.17479261      -0.71014145
H       -1.95241469      -1.51373861      -0.11727156
H        2.67364420      -0.85359876       0.29977874
H        0.02072128       1.99474128      -0.38061250
11
Frame=12 idx=000759 GeodesicLength=1.1033733612000192 rxn_smarts="[C:1]([c:2]1[n:3][n:4]([H:10])[n:5][c:6]1[H:11])([H:7])([H:8])[H:9]>>[C+:1]([C:2]1=[N:3][N:4]([H:10])[N-:5][C:6]1([H:7])[H:11])([H:8])[H:9]"
C       -1.63954194      -0.47014450      -0.14613451
C       -0.25900631      -0.23987226      -0.35122334
N        0.73085534      -1.16056714      -0.13466883
N        1.77899495      -0.41994450       0.13093695
N        1.62981098       0.84091374       0.36049615
C        0.29139843       1.05349152       0.10338662
H       -0.98720651       0.62053535       0.94054337
H       -2.31762587       0.15635234      -0.71726173
H       -1.93710225      -1.51142652      -0.09584099
H        2.67339604      -0.85861694       0.29083845
H        0.03602714       1.98927891      -0.38107216
11
Frame=13 idx=000759 GeodesicLength=1.1957458719462744 rxn_smarts="[C:1]([c:2]1[n:3][n:4]([H:10])[n:5][c:6]1[H:11])([H:7])([H:8])[H:9]>>[C+:1]([C:2]1=[N:3][N:4]([H:10])[N-:5][C:6]1([H:7])[H:11])([H:8])[H:9]"
C       -1.62975556      -0.46563701      -0.13396593
C       -0.25260688      -0.23612517      -0.37544679
N        0.73501341      -1.15915356      -0.16301698
N        1.77920978      -0.42333931       0.12243257
N        1.62501746       0.83066785       0.38608159
C        0.28635638       1.04806907       0.11815035
H       -1.03321501       0.65946298       0.93758218
H       -2.31604146       0.13526095      -0.72350326
H       -1.91943525      -1.50877576      -0.07087535
H        2.67275917      -0.86428984       0.28160770
H        0.05269796       1.98385979      -0.37904608
11
Frame=14 idx=000759 GeodesicLength=1.2878344822244603 rxn_smarts="[C:1]([c:2]1[n:3][n:4]([H:10])[n:5][c:6]1[H:11])([H:7])([H:8])[H:9]>>[C+:1]([C:2]1=[N:3][N:4]([H:10])[N-:5][C:6]1([H:7])[H:11])([H:8])[H:9]"
C       -1.61850042      -0.46073176      -0.12114048
C       -0.24602923      -0.23158719      -0.40184913
N        0.73968766      -1.15696434      -0.19547573
N        1.77911323      -0.42715801       0.11354385
N        1.61870535       0.81786212       0.41497985
C        0.28074422       1.04154912       0.13353430
H       -1.08294543       0.70375946       0.92947007
H       -2.31471979       0.11093875      -0.72878653
H       -1.89890699      -1.50558536      -0.04180393
H        2.67177003      -0.87054305       0.27162803
H        0.07108137       1.97846025      -0.37410031
11
Frame=15 idx=000759 GeodesicLength=1.3795320411536012 rxn_smarts="[C:1]([c:2]1[n:3][n:4]([H:10])[n:5][c:6]1[H:11])([H:7])([H:8])[H:9]>>[C+:1]([C:2]1=[N:3][N:4]([H:10])[N-:5][C:6]1([H:7])[H:11])([H:8])[H:9]"
C       -1.60566674      -0.45527768      -0.10748129
C       -0.23936081      -0.22606260      -0.43030961
N        0.74484957      -1.15379928      -0.23234665
N        1.77870233      -0.43131922       0.10401460
N        1.61069506       0.80204934       0.44763444
C        0.27442454       1.03380376       0.14985909
H       -1.13670391       0.75390006       0.91488817
H       -2.31360879       0.08286142      -0.73298839
H       -1.87500686      -1.50167514      -0.00813146
H        2.67034204      -0.87751633       0.26059461
H        0.09133357       1.97303567      -0.36573350
11
Frame=16 idx=000759 GeodesicLength=1.4709136335706803 rxn_smarts="[C:1]([c:2]1[n:3][n:4]([H:10])[n:5][c:6]1[H:11])([H:7])([H:8])[H:9]>>[C+:1]([C:2]1=[N:3][N:4]([H:10])[N-:5][C:6]1([H:7])[H:11])([H:8])[H:9]"
C       -1.59124369      -0.44904817      -0.09282944
C       -0.23266099      -0.21938168      -0.46062173
N        0.75049185      -1.14947658      -0.27368602
N        1.77792418      -0.43581300       0.09376333
N        1.60072139       0.78266949       0.48434406
C        0.26726978       1.02467366       0.16751647
H       -1.19467079       0.81012940       0.89218234
H       -2.31261648       0.05051928      -0.73597861
H       -1.84734054      -1.49668400       0.03064535
H        2.66853997      -0.88511276       0.24794010
H        0.11358533       1.96752435      -0.35327585
