16
Frame=0 idx=011235 GeodesicLength=0.0 rxn_smarts="[C:1]([C@@:2]([O:3][H:12])([C@@:4]([C:5]([H:14])([H:15])[H:16])([C:6]#[N:7])[H:13])[H:11])([H:8])([H:9])[H:10]>>[C:1]([C:2](=[O:3])[H:11])([H:8])([H:9])[H:10].[C:4](=[C:5]([H:14])[H:15])([C:6]#[N:7])[H:13].[H:12][H:16]"
C       -1.86108549      -0.09267068      -0.54828685
C       -1.09367673      -0.52062336       0.65844035
O       -0.61831475      -1.67034720       0.74973228
C        0.97246305       0.80834547       0.47271010
C        1.88369574      -0.13840652       0.03034620
C        0.49048584       1.80676286      -0.41493483
N        0.08412644       2.60969257      -1.13435270
H       -1.96090975       0.98805720      -0.62088536
H       -2.86099141      -0.53087727      -0.46833295
H       -1.39970975      -0.48520400      -1.45540154
H       -1.20145753       0.06269142       1.57831956
H        0.52933407      -1.77286027       0.08671681
H        0.90475162       1.03427196       1.52738177
H        2.57854028      -0.56169801       0.74539258
H        2.25260037      -0.07760127      -0.98765948
H        1.30014796      -1.45953289      -0.21918600
16
Frame=1 idx=011235 GeodesicLength=0.09168397696842587 rxn_smarts="[C:1]([C@@:2]([O:3][H:12])([C@@:4]([C:5]([H:14])([H:15])[H:16])([C:6]#[N:7])[H:13])[H:11])([H:8])([H:9])[H:10]>>[C:1]([C:2](=[O:3])[H:11])([H:8])([H:9])[H:10].[C:4](=[C:5]([H:14])[H:15])([C:6]#[N:7])[H:13].[H:12][H:16]"
C       -1.86311235      -0.10720156      -0.56233045
C       -1.09677498      -0.49416575       0.65987462
O       -0.62175931      -1.64436283       0.78786101
C        0.97762138       0.79680554       0.47863286
C        1.89222623      -0.13939744       0.01304773
C        0.49761080       1.81839288      -0.38504385
N        0.09079522       2.63794536      -1.08481433
H       -1.96185134       0.97128144      -0.66735345
H       -2.86383775      -0.54134803      -0.47282351
H       -1.39915179      -0.52536569      -1.45653500
H       -1.24051379       0.10053710       1.56800371
H        0.51398644      -1.78950503       0.10163644
H        0.92036421       1.00131479       1.53864317
H        2.61473200      -0.54317729       0.71199399
H        2.24120429      -0.06573261      -1.01131368
H        1.29846075      -1.47602086      -0.21947925
16
Frame=2 idx=011235 GeodesicLength=0.18185146611283298 rxn_smarts="[C:1]([C@@:2]([O:3][H:12])([C@@:4]([C:5]([H:14])([H:15])[H:16])([C:6]#[N:7])[H:13])[H:11])([H:8])([H:9])[H:10]>>[C:1]([C:2](=[O:3])[H:11])([H:8])([H:9])[H:10].[C:4](=[C:5]([H:14])[H:15])([C:6]#[N:7])[H:13].[H:12][H:16]"
C       -1.86443407      -0.12066000      -0.57528341
C       -1.09971669      -0.46831980       0.66076554
O       -0.62537320      -1.61829352       0.82346952
C        0.98225701       0.78519461       0.48378823
C        1.90034143      -0.14032156      -0.00382988
C        0.50481805       1.82906260      -0.35606811
N        0.09574979       2.66308786      -1.03681245
H       -1.96182493       0.95488833      -0.71093565
H       -2.86613265      -0.55045506      -0.47741595
H       -1.39772074      -0.56269769      -1.45649904
H       -1.27769399       0.13641386       1.55670087
H        0.49809368      -1.80660071       0.11690955
H        0.93466407       0.96854227       1.54850731
H        2.64941999      -0.52305678       0.67905410
H        2.23027275      -0.05371969      -1.03371221
H        1.29727952      -1.49306472      -0.21863841
16
Frame=3 idx=011235 GeodesicLength=0.2708546054484212 rxn_smarts="[C:1]([C@@:2]([O:3][H:12])([C@@:4]([C:5]([H:14])([H:15])[H:16])([C:6]#[N:7])[H:13])[H:11])([H:8])([H:9])[H:10]>>[C:1]([C:2](=[O:3])[H:11])([H:8])([H:9])[H:10].[C:4](=[C:5]([H:14])[H:15])([C:6]#[N:7])[H:13].[H:12][H:16]"
C       -1.86516516      -0.13317982      -0.58728712
C       -1.10248443      -0.44299973       0.66114885
O       -0.62914217      -1.59218960       0.85683441
C        0.98645342       0.77350307       0.48825121
C        1.90812304      -0.14118555      -0.02035445
C        0.51215775       1.83888654      -0.32782262
N        0.09929255       2.68548644      -0.99014367
H       -1.96097362       0.93880895      -0.75202044
H       -2.86796489      -0.55836477      -0.48206079
H       -1.39563876      -0.59757200      -1.45544819
H       -1.31318316       0.17053288       1.54452209
H        0.48159311      -1.82411176       0.13254505
H        0.94787111       0.93591167       1.55709702
H        2.68268943      -0.50138118       0.64646983
H        2.21978376      -0.04152116      -1.05499011
H        1.29658800      -1.51062397      -0.21674106
16
Frame=4 idx=011235 GeodesicLength=0.3590114875964157 rxn_smarts="[C:1]([C@@:2]([O:3][H:12])([C@@:4]([C:5]([H:14])([H:15])[H:16])([C:6]#[N:7])[H:13])[H:11])([H:8])([H:9])[H:10]>>[C:1]([C:2](=[O:3])[H:11])([H:8])([H:9])[H:10].[C:4](=[C:5]([H:14])[H:15])([C:6]#[N:7])[H:13].[H:12][H:16]"
C       -1.86538690      -0.14490766      -0.59848464
C       -1.10506679      -0.41811568       0.66104519
O       -0.63306349      -1.56605899       0.88823412
C        0.99028663       0.76172285       0.49208276
C        1.91563077      -0.14199510      -0.03661194
C        0.51968516       1.84798359      -0.30012025
N        0.10168263       2.70555241      -0.94449449
H       -1.95937030       0.92295367      -0.79102604
H       -2.86940650      -0.56523214      -0.48672965
H       -1.39306942      -0.63039395      -1.45351154
H       -1.34716059       0.20311905       1.53153104
H        0.46441908      -1.84202305       0.14863351
H        0.96019115       0.90336657       1.56452385
H        2.71462463      -0.47818303       0.61409071
H        2.20964812      -0.02911906      -1.07532027
H        1.29635582      -1.52866948      -0.21384235
16
Frame=5 idx=011235 GeodesicLength=0.4464945261993178 rxn_smarts="[C:1]([C@@:2]([O:3][H:12])([C@@:4]([C:5]([H:14])([H:15])[H:16])([C:6]#[N:7])[H:13])[H:11])([H:8])([H:9])[H:10]>>[C:1]([C:2](=[O:3])[H:11])([H:8])([H:9])[H:10].[C:4](=[C:5]([H:14])[H:15])([C:6]#[N:7])[H:13].[H:12][H:16]"
C       -1.86518268      -0.15595929      -0.60896843
C       -1.10744650      -0.39360667       0.66046406
O       -0.63711590      -1.53992223       0.91785170
C        0.99381571       0.74985669       0.49532388
C        1.92293389      -0.14274485      -0.05265321
C        0.52744270       1.85642874      -0.27283623
N        0.10313935       2.72355387      -0.89967727
H       -1.95708430       0.90727583      -0.82823061
H       -2.87053454      -0.57116451      -0.49137844
H       -1.39016376      -0.66147480      -1.45079169
H       -1.37975561       0.23432070       1.51778631
H        0.44652272      -1.86029949       0.16520268
H        0.97176896       0.87088130       1.57086154
H        2.74524696      -0.45350963       0.58184522
H        2.19985034      -0.01647919      -1.09479608
H        1.29656265      -1.54715648      -0.21000340
16
Frame=6 idx=011235 GeodesicLength=0.5334873855611758 rxn_smarts="[C:1]([C@@:2]([O:3][H:12])([C@@:4]([C:5]([H:14])([H:15])[H:16])([C:6]#[N:7])[H:13])[H:11])([H:8])([H:9])[H:10]>>[C:1]([C:2](=[O:3])[H:11])([H:8])([H:9])[H:10].[C:4](=[C:5]([H:14])[H:15])([C:6]#[N:7])[H:13].[H:12][H:16]"
C       -1.86458310      -0.16641394      -0.61882265
C       -1.10961532      -0.36941428       0.65944041
O       -0.64129073      -1.51378017       0.94588046
C        0.99708769       0.73789923       0.49800343
C        1.93007946      -0.14342927      -0.06853332
C        0.53544873       1.86428367      -0.24586039
N        0.10380966       2.73970382      -0.85552725
H       -1.95419182       0.89171904      -0.86385182
H       -2.87135975      -0.57629661      -0.49602638
H       -1.38696114      -0.69100648      -1.44736266
H       -1.41107460       0.26428615       1.50334378
H        0.42782973      -1.87892673       0.18232611
H        0.98273459       0.83842651       1.57616284
H        2.77455242      -0.42742977       0.54966076
H        2.19035369      -0.00357456      -1.11352395
H        1.29718049      -1.56604663      -0.20530937
16
Frame=7 idx=011235 GeodesicLength=0.6200805389640349 rxn_smarts="[C:1]([C@@:2]([O:3][H:12])([C@@:4]([C:5]([H:14])([H:15])[H:16])([C:6]#[N:7])[H:13])[H:11])([H:8])([H:9])[H:10]>>[C:1]([C:2](=[O:3])[H:11])([H:8])([H:9])[H:10].[C:4](=[C:5]([H:14])[H:15])([C:6]#[N:7])[H:13].[H:12][H:16]"
C       -1.86362262      -0.17633214      -0.62809517
C       -1.11156046      -0.34549895       0.65799670
O       -0.64556430      -1.48764508       0.97245334
C        1.00013594       0.72585570       0.50013196
C        1.93712204      -0.14403407      -0.08428840
C        0.54371955       1.87158209      -0.21912751
N        0.10382457       2.75414722      -0.81194907
H       -1.95075382       0.87624567      -0.89802977
H       -2.87190285      -0.58072555      -0.50067273
H       -1.38350901      -0.71914706      -1.44327028
H       -1.44119422       0.29311517       1.48825166
H        0.40828300      -1.89787897       0.20003261
H        0.99317615       0.80599727       1.58045547
H        2.80249714      -0.40002439       0.51753408
H        2.18116624       0.00963365      -1.13155909
H        1.29818265      -1.58529056      -0.19986379
16
Frame=8 idx=011235 GeodesicLength=0.7063958365640803 rxn_smarts="[C:1]([C@@:2]([O:3][H:12])([C@@:4]([C:5]([H:14])([H:15])[H:16])([C:6]#[N:7])[H:13])[H:11])([H:8])([H:9])[H:10]>>[C:1]([C:2](=[O:3])[H:11])([H:8])([H:9])[H:10].[C:4](=[C:5]([H:14])[H:15])([C:6]#[N:7])[H:13].[H:12][H:16]"
C       -1.86230876      -0.18579404      -0.63684962
C       -1.11327579      -0.32181336       0.65616117
O       -0.64992261      -1.46150242       0.99773361
C        1.00298886       0.71372779       0.50172151
C        1.94409752      -0.14454299      -0.09998071
C        0.55226161       1.87836418      -0.19255257
N        0.10328147       2.76705582      -0.76877191
H       -1.94680658       0.86081521      -0.93092778
H       -2.87215397      -0.58456921      -0.50534396
H       -1.37978749      -0.74604895      -1.43857773
H       -1.47020756       0.32094097       1.47254107
H        0.38781078      -1.91713731       0.21844514
H        1.00318724       0.77356965       1.58376896
H        2.82905830      -0.37138629       0.48540727
H        2.17225838       0.02316906      -1.14900495
H        1.29951858      -1.60484813      -0.19376951
16
Frame=9 idx=011235 GeodesicLength=0.7928783616843361 rxn_smarts="[C:1]([C@@:2]([O:3][H:12])([C@@:4]([C:5]([H:14])([H:15])[H:16])([C:6]#[N:7])[H:13])[H:11])([H:8])([H:9])[H:10]>>[C:1]([C:2](=[O:3])[H:11])([H:8])([H:9])[H:10].[C:4](=[C:5]([H:14])[H:15])([C:6]#[N:7])[H:13].[H:12][H:16]"
C       -1.86083471      -0.19493937      -0.64509730
C       -1.11473139      -0.29829848       0.65388766
O       -0.65432412      -1.43530757       1.02177401
C        1.00571361       0.70153972       0.50280625
C        1.95117611      -0.14484064      -0.11550340
C        0.56112089       1.88471349      -0.16607795
N        0.10243910       2.77850654      -0.72597348
H       -1.94232307       0.84531419      -0.96282554
H       -2.87238401      -0.58772151      -0.50971152
H       -1.37627563      -0.77229151      -1.43328115
H       -1.49819711       0.34789713       1.45617226
H        0.36630119      -1.93675533       0.23726962
H        1.01280087       0.74113702       1.58615848
H        2.85424717      -0.34168922       0.45342818
H        2.16393561       0.03729025      -1.16569700
H        1.30133548      -1.62455470      -0.18732913
16
Frame=10 idx=011235 GeodesicLength=0.8791762265924612 rxn_smarts="[C:1]([C@@:2]([O:3][H:12])([C@@:4]([C:5]([H:14])([H:15])[H:16])([C:6]#[N:7])[H:13])[H:11])([H:8])([H:9])[H:10]>>[C:1]([C:2](=[O:3])[H:11])([H:8])([H:9])[H:10].[C:4](=[C:5]([H:14])[H:15])([C:6]#[N:7])[H:13].[H:12][H:16]"
C       -1.85903083      -0.20369238      -0.65287194
C       -1.11593882      -0.27496414       0.65127546
O       -0.65876667      -1.40910204       1.04472023
C        1.00827134       0.68926796       0.50332749
C        1.95827713      -0.14498939      -0.13100544
C        0.57023833       1.89055191      -0.13971585
N        0.10118742       2.78853964      -0.68351413
H       -1.93744786       0.82979635      -0.99356323
H       -2.87230733      -0.59044330      -0.51411752
H       -1.37249701      -0.79740702      -1.42741307
H       -1.52514657       0.37397840       1.43926717
H        0.34371601      -1.95666023       0.25685771
H        1.02206912       0.70872224       1.58756125
H        2.87794648      -0.31094296       0.42155672
H        2.15597672       0.05183199      -1.18183670
H        1.30345253      -1.64448701      -0.18052815
16
Frame=11 idx=011235 GeodesicLength=0.9653438390775217 rxn_smarts="[C:1]([C@@:2]([O:3][H:12])([C@@:4]([C:5]([H:14])([H:15])[H:16])([C:6]#[N:7])[H:13])[H:11])([H:8])([H:9])[H:10]>>[C:1]([C:2](=[O:3])[H:11])([H:8])([H:9])[H:10].[C:4](=[C:5]([H:14])[H:15])([C:6]#[N:7])[H:13].[H:12][H:16]"
C       -1.85692125      -0.21210131      -0.66020230
C       -1.11689623      -0.25178659       0.64834144
O       -0.66321693      -1.38287071       1.06666958
C        1.01067776       0.67691436       0.50327299
C        1.96545529      -0.14495573      -0.14652209
C        0.57960807       1.89589136      -0.11343529
N        0.09962225       2.79726220      -0.64131973
H       -1.93226562       0.81424888      -1.02322970
H       -2.87192459      -0.59284428      -0.51854642
H       -1.36845800      -0.82149511      -1.42103420
H       -1.55110647       0.39926999       1.42186487
H        0.31997568      -1.97682373       0.27727142
H        1.03104044       0.67632053       1.58797928
H        2.90013641      -0.27926092       0.38984736
H        2.14842090       0.06683634      -1.19746670
H        1.30585232      -1.66460528      -0.17349052
16
Frame=12 idx=011235 GeodesicLength=1.0514080584509444 rxn_smarts="[C:1]([C@@:2]([O:3][H:12])([C@@:4]([C:5]([H:14])([H:15])[H:16])([C:6]#[N:7])[H:13])[H:11])([H:8])([H:9])[H:10]>>[C:1]([C:2](=[O:3])[H:11])([H:8])([H:9])[H:10].[C:4](=[C:5]([H:14])[H:15])([C:6]#[N:7])[H:13].[H:12][H:16]"
C       -1.85453654      -0.22018995      -0.66709342
C       -1.11759669      -0.22875724       0.64510295
O       -0.66763329      -1.35661401       1.08768181
C        1.01293550       0.66448620       0.50261623
C        1.97277283      -0.14469197      -0.16205664
C        0.58920796       1.90071051      -0.08725903
N        0.09782391       2.80469764      -0.59942410
H       -1.92688084       0.79866295      -1.05183551
H       -2.87124093      -0.59500895      -0.52296394
H       -1.36417913      -0.84456325      -1.41417611
H       -1.57608943       0.42380466       1.40402037
H        0.29498658      -1.99722602       0.29850616
H        1.03972596       0.64395752       1.58739274
H        2.92079057      -0.24676853       0.35844235
H        2.14137148       0.08236185      -1.21258463
H        1.30854207      -1.68486142      -0.16636921
16
Frame=13 idx=011235 GeodesicLength=1.1374043401172964 rxn_smarts="[C:1]([C@@:2]([O:3][H:12])([C@@:4]([C:5]([H:14])([H:15])[H:16])([C:6]#[N:7])[H:13])[H:11])([H:8])([H:9])[H:10]>>[C:1]([C:2](=[O:3])[H:11])([H:8])([H:9])[H:10].[C:4](=[C:5]([H:14])[H:15])([C:6]#[N:7])[H:13].[H:12][H:16]"
C       -1.85192025      -0.22797932      -0.67354527
C       -1.11804328      -0.20586892       0.64158129
O       -0.67197138      -1.33033091       1.10780664
C        1.01504793       0.65198488       0.50132263
C        1.98031188      -0.14414907      -0.17761183
C        0.59900913       1.90499406      -0.06121202
N        0.09588171       2.81089608      -0.55787378
H       -1.92143070       0.78304113      -1.07938579
H       -2.87026526      -0.59704273      -0.52732473
H       -1.35968860      -0.86663273      -1.40687787
H       -1.60011377       0.44762072       1.38578881
H        0.26864174      -2.01784559       0.32056316
H        1.04813412       0.61165569       1.58577813
H        2.93990659      -0.21359616       0.32750177
H        2.13496379       0.09846784      -1.22717702
H        1.31153633      -1.70521497      -0.15933411
16
Frame=14 idx=011235 GeodesicLength=1.2233514026556203 rxn_smarts="[C:1]([C@@:2]([O:3][H:12])([C@@:4]([C:5]([H:14])([H:15])[H:16])([C:6]#[N:7])[H:13])[H:11])([H:8])([H:9])[H:10]>>[C:1]([C:2](=[O:3])[H:11])([H:8])([H:9])[H:10].[C:4](=[C:5]([H:14])[H:15])([C:6]#[N:7])[H:13].[H:12][H:16]"
C       -1.84914444      -0.23551560      -0.67955903
C       -1.11824368      -0.18311270       0.63777793
O       -0.67619812      -1.30401477       1.12708239
C        1.01701499       0.63941458       0.49935720
C        1.98815543      -0.14327167      -0.19319236
C        0.60898833       1.90873167      -0.03531575
N        0.09391798       2.81593719      -0.51667188
H       -1.91604062       0.76739690      -1.10592540
H       -2.86905682      -0.59904257      -0.53153812
H       -1.35504003      -0.88779248      -1.39920473
H       -1.62320368       0.47075405       1.36721196
H        0.24083680      -2.03865124       0.34346230
H        1.05627373       0.57942739       1.58312087
H        2.95755389      -0.17984220       0.29719996
H        2.12934049       0.11521832      -1.24125629
H        1.31484576      -1.72563689      -0.15254906
16
Frame=15 idx=011235 GeodesicLength=1.3093056295751986 rxn_smarts="[C:1]([C@@:2]([O:3][H:12])([C@@:4]([C:5]([H:14])([H:15])[H:16])([C:6]#[N:7])[H:13])[H:11])([H:8])([H:9])[H:10]>>[C:1]([C:2](=[O:3])[H:11])([H:8])([H:9])[H:10].[C:4](=[C:5]([H:14])[H:15])([C:6]#[N:7])[H:13].[H:12][H:16]"
C       -1.84626782      -0.24283598      -0.68513812
C       -1.11821233      -0.16048135       0.63369853
O       -0.68028775      -1.27765588       1.14554962
C        1.01883188       0.62677175       0.49667896
C        1.99638874      -0.14200502      -0.20880260
C        0.61911882       1.91191741      -0.00959005
N        0.09203261       2.81989789      -0.47582658
H       -1.91084683       0.75174434      -1.13148071
H       -2.86765844      -0.60110850      -0.53552829
H       -1.35025564      -0.90809754      -1.39121360
H       -1.64539559       0.49324488       1.34832902
H        0.21143001      -2.05963279       0.36725105
H        1.06414825       0.54726891       1.57939490
H        2.97383124      -0.14557910       0.26769191
H        2.12463891       0.13266699      -1.25484211
H        1.31850395      -1.74611600      -0.14617193
16
Frame=16 idx=011235 GeodesicLength=1.3952483871625438 rxn_smarts="[C:1]([C@@:2]([O:3][H:12])([C@@:4]([C:5]([H:14])([H:15])[H:16])([C:6]#[N:7])[H:13])[H:11])([H:8])([H:9])[H:10]>>[C:1]([C:2](=[O:3])[H:11])([H:8])([H:9])[H:10].[C:4](=[C:5]([H:14])[H:15])([C:6]#[N:7])[H:13].[H:12][H:16]"
C       -1.84334436      -0.24995705      -0.69027037
C       -1.11795694      -0.13797807       0.62934987
O       -0.68420170      -1.25126232       1.16322728
C        1.02049235       0.61405576       0.49323146
C        2.00509571      -0.14028785      -0.22443446
C        0.62937159       1.91452938       0.01591793
N        0.09030563       2.82281588      -0.43540639
H       -1.90598151       0.73609193      -1.15603313
H       -2.86610090      -0.60332758      -0.53922767
H       -1.34536229      -0.92755979      -1.38292941
H       -1.66670010       0.51510279       1.32919314
H        0.18027965      -2.08076689       0.39194911
H        1.07174539       0.51519796       1.57455490
H        2.98878792      -0.11089930       0.23917089
H        2.12102104       0.15088112      -1.26792013
H        1.32254853      -1.76663596      -0.14037303
