16
Frame=0 idx=006472 GeodesicLength=0.0 rxn_smarts="[C:1]([C@@:2]([C:3]([O:4][H:14])([H:12])[H:13])([N:5]([C:6](=[O:7])[H:16])[H:15])[H:11])([H:8])([H:9])[H:10]>>[C:1]([C:6](=[O:7])[H:16])([H:8])([H:9])[H:10].[C:2](\[C:3]([O:4][H:14])([H:12])[H:13])(=[N:5]/[H:15])[H:11]"
C       -0.51685504       1.08819296      -1.09621875
C       -0.04007677       0.18353808       0.79970162
C       -0.85215113      -1.08112459       0.67287764
O       -0.56890727      -1.89657489       1.78704752
N        1.28902586       0.04810583       0.69015642
C        1.09834630       0.20622219      -0.92025802
O        1.16697420      -0.79594738      -1.60194832
H       -0.51962079       2.11762814      -0.73236700
H       -1.49193311       0.62623647      -0.94180836
H       -0.37063688       1.10403318      -2.17631399
H       -0.47389968       1.00042191       1.37442383
H       -1.91796187      -0.85579379       0.70644081
H       -0.60790650      -1.57353928      -0.27356801
H        0.35202620      -2.16471325       1.71779774
H        1.79364926       0.85307008       1.04189561
H        1.65992725       1.14024434      -1.04785877
16
Frame=1 idx=006472 GeodesicLength=0.1297704997689627 rxn_smarts="[C:1]([C@@:2]([C:3]([O:4][H:14])([H:12])[H:13])([N:5]([C:6](=[O:7])[H:16])[H:15])[H:11])([H:8])([H:9])[H:10]>>[C:1]([C:6](=[O:7])[H:16])([H:8])([H:9])[H:10].[C:2](\[C:3]([O:4][H:14])([H:12])[H:13])(=[N:5]/[H:15])[H:11]"
C       -0.51267564       1.08546689      -1.10287105
C       -0.05787554       0.19586177       0.81413354
C       -0.86559032      -1.07076384       0.68710179
O       -0.52759471      -1.92634331       1.75439291
N        1.27549999       0.09806616       0.71509823
C        1.11900468       0.18842628      -0.91929619
O        1.18928813      -0.84688400      -1.54919022
H       -0.50154957       2.11795662      -0.74772013
H       -1.49975446       0.64712769      -0.95486997
H       -0.37016167       1.08973421      -2.18379932
H       -0.49787544       0.99094295       1.41494961
H       -1.93070310      -0.85325487       0.76448901
H       -0.67216332      -1.54210663      -0.28136403
H        0.38667246      -2.19486034       1.61771931
H        1.76484191       0.91615670       1.05690450
H        1.70063660       1.10447372      -1.08567797
16
Frame=2 idx=006472 GeodesicLength=0.25939585032003387 rxn_smarts="[C:1]([C@@:2]([C:3]([O:4][H:14])([H:12])[H:13])([N:5]([C:6](=[O:7])[H:16])[H:15])[H:11])([H:8])([H:9])[H:10]>>[C:1]([C:6](=[O:7])[H:16])([H:8])([H:9])[H:10].[C:2](\[C:3]([O:4][H:14])([H:12])[H:13])(=[N:5]/[H:15])[H:11]"
C       -0.50888208       1.08291148      -1.10880747
C       -0.07561961       0.20765566       0.82872349
C       -0.87779005      -1.06186618       0.70052494
O       -0.48772659      -1.95381182       1.71862816
N        1.26084384       0.14785760       0.73687674
C        1.13953187       0.16948696      -0.91849445
O        1.21030501      -0.89640041      -1.49504982
H       -0.48389641       2.11787256      -0.76140325
H       -1.50726043       0.66803349      -0.96810102
H       -0.36973588       1.07802958      -2.19039902
H       -0.52022375       0.97853623       1.45782330
H       -1.94092153      -0.85441856       0.82055923
H       -0.73339524      -1.51087670      -0.28681486
H        0.41770218      -2.21648021       1.51944604
H        1.73540325       0.97830810       1.06841279
H        1.74166542       1.06516220      -1.12192481
16
Frame=3 idx=006472 GeodesicLength=0.3889287081382015 rxn_smarts="[C:1]([C@@:2]([C:3]([O:4][H:14])([H:12])[H:13])([N:5]([C:6](=[O:7])[H:16])[H:15])[H:11])([H:8])([H:9])[H:10]>>[C:1]([C:6](=[O:7])[H:16])([H:8])([H:9])[H:10].[C:2](\[C:3]([O:4][H:14])([H:12])[H:13])(=[N:5]/[H:15])[H:11]"
C       -0.50568170       1.08060810      -1.11419271
C       -0.09318367       0.21886240       0.84328431
C       -0.88878833      -1.05434725       0.71304830
O       -0.45014381      -1.97847052       1.68092292
N        1.24520067       0.19694865       0.75515270
C        1.15994671       0.14980864      -0.91817161
O        1.23023490      -0.94374501      -1.44052135
H       -0.46717748       2.11743047      -0.77338002
H       -1.51454190       0.68867128      -0.98175325
H       -0.36950560       1.06933587      -2.19634445
H       -0.54018221       0.96296018       1.50299282
H       -1.94879409      -0.85894632       0.87384856
H       -0.79088752      -1.48048194      -0.28997438
H        0.44498974      -2.23038206       1.42492927
H        1.70569926       1.03872581       1.07660041
H        1.78281501       1.02302171      -1.15644151
16
Frame=4 idx=006472 GeodesicLength=0.518458039400137 rxn_smarts="[C:1]([C@@:2]([C:3]([O:4][H:14])([H:12])[H:13])([N:5]([C:6](=[O:7])[H:16])[H:15])[H:11])([H:8])([H:9])[H:10]>>[C:1]([C:6](=[O:7])[H:16])([H:8])([H:9])[H:10].[C:2](\[C:3]([O:4][H:14])([H:12])[H:13])(=[N:5]/[H:15])[H:11]"
C       -0.50325018       1.07858658      -1.11921398
C       -0.11048322       0.22949474       0.85769490
C       -0.89869503      -1.04805047       0.72464202
O       -0.41544071      -2.00009694       1.64238443
N        1.22871814       0.24500567       0.76979500
C        1.18032750       0.12977197      -0.91857991
O        1.24940548      -0.98838613      -1.38641713
H       -0.45183584       2.11669104      -0.78372629
H       -1.52173050       0.70878499      -0.99602947
H       -0.36957087       1.06382419      -2.20188244
H       -0.55704995       0.94405086       1.55036730
H       -1.95461933      -0.86631237       0.92386193
H       -0.84434787      -1.45137524      -0.29106825
H        0.46855458      -2.23769278       1.33554699
H        1.67602672       1.09693205       1.08180158
H        1.82399107       0.97877182      -1.18917668
16
Frame=5 idx=006472 GeodesicLength=0.6477275293405738 rxn_smarts="[C:1]([C@@:2]([C:3]([O:4][H:14])([H:12])[H:13])([N:5]([C:6](=[O:7])[H:16])[H:15])[H:11])([H:8])([H:9])[H:10]>>[C:1]([C:6](=[O:7])[H:16])([H:8])([H:9])[H:10].[C:2](\[C:3]([O:4][H:14])([H:12])[H:13])(=[N:5]/[H:15])[H:11]"
C       -0.50169915       1.07686014      -1.12404187
C       -0.12747449       0.23959309       0.87184766
C       -0.90759715      -1.04276343       0.73530706
O       -0.38389527      -2.01867876       1.60392057
N        1.21142931       0.29182393       0.78081279
C        1.20071391       0.10969334      -0.91983790
O        1.26809182      -1.02998462      -1.33323310
H       -0.43820576       2.11571189      -0.79262765
H       -1.52888225       0.72821588      -1.01106729
H       -0.36997516       1.06150561      -2.20718031
H       -0.57015126       0.92164537       1.59969952
H       -1.95862625      -0.87587782       0.97030554
H       -0.89374076      -1.42380488      -0.29036315
H        0.48847711      -2.23964906       1.25219136
H        1.64647875       1.15265276       1.08436132
H        1.86505660       0.93305655      -1.22009454
16
Frame=6 idx=006472 GeodesicLength=0.7769530905148616 rxn_smarts="[C:1]([C@@:2]([C:3]([O:4][H:14])([H:12])[H:13])([N:5]([C:6](=[O:7])[H:16])[H:15])[H:11])([H:8])([H:9])[H:10]>>[C:1]([C:6](=[O:7])[H:16])([H:8])([H:9])[H:10].[C:2](\[C:3]([O:4][H:14])([H:12])[H:13])(=[N:5]/[H:15])[H:11]"
C       -0.50113580       1.07539603      -1.12885296
C       -0.14417367       0.24926349       0.88577564
C       -0.91568063      -1.03826908       0.74510283
O       -0.35567609      -2.03447267       1.56614731
N        1.19342188       0.33740824       0.78839617
C        1.22122854       0.08979955      -0.92200914
O        1.28667183      -1.06842207      -1.28124315
H       -0.42650380       2.11454432      -0.80031363
H       -1.53617115       0.74687114      -1.02697492
H       -0.37077369       1.06215938      -2.21244066
H       -0.57901090       0.89567932       1.65077666
H       -1.96119654      -0.88705970       1.01324840
H       -0.93941358      -1.39776273      -0.28820428
H        0.50512900      -2.23735281       1.17508326
H        1.61716672       1.20591262       1.08476050
H        1.90611789       0.88630496      -1.24925202
16
Frame=7 idx=006472 GeodesicLength=0.9060712511899714 rxn_smarts="[C:1]([C@@:2]([C:3]([O:4][H:14])([H:12])[H:13])([N:5]([C:6](=[O:7])[H:16])[H:15])[H:11])([H:8])([H:9])[H:10]>>[C:1]([C:6](=[O:7])[H:16])([H:8])([H:9])[H:10].[C:2](\[C:3]([O:4][H:14])([H:12])[H:13])(=[N:5]/[H:15])[H:11]"
C       -0.50161550       1.07416803      -1.13377749
C       -0.16061998       0.25860683       0.89951038
C       -0.92309001      -1.03435668       0.75408539
O       -0.33075642      -2.04777314       1.52946272
N        1.17467462       0.38181262       0.79276498
C        1.24195195       0.07024657      -0.92505914
O        1.30537713      -1.10367843      -1.23051250
H       -0.41686280       2.11323949      -0.80702376
H       -1.54369020       0.76472672      -1.04380769
H       -0.37198125       1.06552890      -2.21776825
H       -0.58315294       0.86607322       1.70323474
H       -1.96260962      -0.89931425       1.05282219
H       -0.98175009      -1.37316508      -0.28487515
H        0.51884165      -2.23177622       1.10420483
H        1.58805352       1.25681443       1.08338726
H        1.94722995       0.83884700      -1.27664853
16
Frame=8 idx=006472 GeodesicLength=1.035034196685689 rxn_smarts="[C:1]([C@@:2]([C:3]([O:4][H:14])([H:12])[H:13])([N:5]([C:6](=[O:7])[H:16])[H:15])[H:11])([H:8])([H:9])[H:10]>>[C:1]([C:6](=[O:7])[H:16])([H:8])([H:9])[H:10].[C:2](\[C:3]([O:4][H:14])([H:12])[H:13])(=[N:5]/[H:15])[H:11]"
C       -0.50317154       1.07314346      -1.13891335
C       -0.17686979       0.26772258       0.91312183
C       -0.92996774      -1.03083933       0.76233071
O       -0.30900993      -2.05891834       1.49407255
N        1.15513291       0.42514205       0.79416804
C        1.26297320       0.05113886      -0.92889642
O        1.32437914      -1.13580279      -1.18097766
H       -0.40935888       2.11184258      -0.81298440
H       -1.55151954       0.78178514      -1.06158825
H       -0.37359953       1.07131353      -2.22322405
H       -0.58215902       0.83279184       1.75659193
H       -1.96310901      -0.91218087       1.08927831
H       -1.02119281      -1.34986331      -0.28060593
H        0.52992066      -2.22372474       1.03928283
H        1.55906345       1.30553043       1.08059015
H        1.98848844       0.79091893      -1.30224629
16
Frame=9 idx=006472 GeodesicLength=1.16388098722109 rxn_smarts="[C:1]([C@@:2]([C:3]([O:4][H:14])([H:12])[H:13])([N:5]([C:6](=[O:7])[H:16])[H:15])[H:11])([H:8])([H:9])[H:10]>>[C:1]([C:6](=[O:7])[H:16])([H:8])([H:9])[H:10].[C:2](\[C:3]([O:4][H:14])([H:12])[H:13])(=[N:5]/[H:15])[H:11]"
C       -0.50583617       1.07229020      -1.14432753
C       -0.19298479       0.27670564       0.92671868
C       -0.93645263      -1.02755444       0.76991663
O       -0.29028931      -2.06824112       1.46001878
N        1.13473595       0.46751376       0.79287983
C        1.28437963       0.03252693      -0.93339665
O        1.34380984      -1.16488503      -1.13249019
H       -0.40402630       2.11039261      -0.81838479
H       -1.55975122       0.79809145      -1.08031600
H       -0.37565124       1.07919483      -2.22884268
H       -0.57569717       0.79586830       1.81026778
H       -1.96292592      -0.92529778       1.12292196
H       -1.05821035      -1.32764505      -0.27558242
H        0.53875944      -2.21382861       0.97989947
H        1.53011731       1.35224008       1.07670787
H        2.03002291       0.74262823      -1.32599073
16
Frame=10 idx=006472 GeodesicLength=1.29261867886258 rxn_smarts="[C:1]([C@@:2]([C:3]([O:4][H:14])([H:12])[H:13])([N:5]([C:6](=[O:7])[H:16])[H:15])[H:11])([H:8])([H:9])[H:10]>>[C:1]([C:6](=[O:7])[H:16])([H:8])([H:9])[H:10].[C:2](\[C:3]([O:4][H:14])([H:12])[H:13])(=[N:5]/[H:15])[H:11]"
C       -0.50962737       1.07157103      -1.15005563
C       -0.20901152       0.28561883       0.94041687
C       -0.94266574      -1.02437238       0.77693796
O       -0.27441405      -2.07608380       1.42724281
N        1.11340977       0.50903986       0.78915441
C        1.30626843       0.01444611      -0.93840260
O        1.36373082      -1.19101398      -1.08485136
H       -0.40088246       2.10891241      -0.82337735
H       -1.56845367       0.81366888      -1.09997117
H       -0.37814617       1.08887352      -2.23461248
H       -0.56349080       0.75539282       1.86353409
H       -1.96222193      -0.93837755       1.15412704
H       -1.09325487      -1.30629473      -0.26992030
H        0.54564022      -2.20255179       0.92552976
H        1.50113472       1.39711559       1.07200627
H        2.07198461       0.69405519      -1.34775832
16
Frame=11 idx=006472 GeodesicLength=1.4211990393179739 rxn_smarts="[C:1]([C@@:2]([C:3]([O:4][H:14])([H:12])[H:13])([N:5]([C:6](=[O:7])[H:16])[H:15])[H:11])([H:8])([H:9])[H:10]>>[C:1]([C:6](=[O:7])[H:16])([H:8])([H:9])[H:10].[C:2](\[C:3]([O:4][H:14])([H:12])[H:13])(=[N:5]/[H:15])[H:11]"
C       -0.51454968       1.07094951      -1.15609610
C       -0.22497486       0.29449679       0.95433320
C       -0.94869719      -1.02119141       0.78349328
O       -0.26117916      -2.08274072       1.39560196
N        1.09106948       0.54979848       0.78323754
C        1.32872755      -0.00308961      -0.94372940
O        1.38415427      -1.21427208      -1.03784851
H       -0.39992474       2.10741222      -0.82807011
H       -1.57766115       0.82854974      -1.12050339
H       -0.38109279       1.10007363      -2.24048363
H       -0.54534362       0.71155860       1.91553233
H       -1.96109332      -0.95120549       1.18326978
H       -1.12673122      -1.28560397      -0.26367552
H        0.55078110      -2.19027175       0.87562673
H        1.47203182       1.44028213       1.06670011
H        2.11448350       0.64525394      -1.36738828
16
Frame=12 idx=006472 GeodesicLength=1.5497174706269203 rxn_smarts="[C:1]([C@@:2]([C:3]([O:4][H:14])([H:12])[H:13])([N:5]([C:6](=[O:7])[H:16])[H:15])[H:11])([H:8])([H:9])[H:10]>>[C:1]([C:6](=[O:7])[H:16])([H:8])([H:9])[H:10].[C:2](\[C:3]([O:4][H:14])([H:12])[H:13])(=[N:5]/[H:15])[H:11]"
C       -0.52061446       1.07038310      -1.16242831
C       -0.24087676       0.30335647       0.96861534
C       -0.95464674      -1.01794927       0.78969834
O       -0.25038672      -2.08848325       1.36490102
N        1.06767972       0.58985793       0.77539463
C        1.35189925      -0.02008607      -0.94920392
O        1.40510028      -1.23475828      -0.99133468
H       -0.40114921       2.10590356      -0.83250939
H       -1.58744077       0.84274792      -1.14185614
H       -0.38450229       1.11254007      -2.24641538
H       -0.52120552       0.66471918       1.96537171
H       -1.95964876      -0.96364712       1.21076615
H       -1.15905081      -1.26540653      -0.25686848
H        0.55436222      -2.17730900       0.82960152
H        1.44279428       1.48186655       1.06100319
H        2.15768629       0.59626475      -1.38473560
16
Frame=13 idx=006472 GeodesicLength=1.6780860414018495 rxn_smarts="[C:1]([C@@:2]([C:3]([O:4][H:14])([H:12])[H:13])([N:5]([C:6](=[O:7])[H:16])[H:15])[H:11])([H:8])([H:9])[H:10]>>[C:1]([C:6](=[O:7])[H:16])([H:8])([H:9])[H:10].[C:2](\[C:3]([O:4][H:14])([H:12])[H:13])(=[N:5]/[H:15])[H:11]"
C       -0.52784356       1.06986900      -1.16900623
C       -0.25667266       0.31217455       0.98332739
C       -0.96051646      -1.01455788       0.79561215
O       -0.24189259      -2.09353232       1.33489260
N        1.04315334       0.62919018       0.76582488
C        1.37578926      -0.03656943      -0.95461299
O        1.42650644      -1.25252212      -0.94492489
H       -0.40454778       2.10437821      -0.83674992
H       -1.59779873       0.85635229      -1.16395150
H       -0.38845353       1.12606871      -2.25228129
H       -0.49109883       0.61513373       2.01205562
H       -1.95781919      -0.97558507       1.23692445
H       -1.19051917      -1.24538787      -0.24945565
H        0.55672747      -2.16380111       0.78689016
H        1.41333838       1.52183545       1.05500040
H        2.20164760       0.54695369      -1.39954518
16
Frame=14 idx=006472 GeodesicLength=1.80644831315105 rxn_smarts="[C:1]([C@@:2]([C:3]([O:4][H:14])([H:12])[H:13])([N:5]([C:6](=[O:7])[H:16])[H:15])[H:11])([H:8])([H:9])[H:10]>>[C:1]([C:6](=[O:7])[H:16])([H:8])([H:9])[H:10].[C:2](\[C:3]([O:4][H:14])([H:12])[H:13])(=[N:5]/[H:15])[H:11]"
C       -0.53621812       1.06934191      -1.17577281
C       -0.27230964       0.32092439       0.99862927
C       -0.96639935      -1.01102683       0.80139669
O       -0.23546123      -2.09809289       1.30532882
N        1.01752845       0.66782291       0.75480996
C        1.40063272      -0.05255221      -0.95979100
O        1.44837883      -1.26766395      -0.89863028
H       -0.41009620       2.10282874      -0.84074369
H       -1.60878175       0.86929961      -1.18670781
H       -0.39290936       1.14044804      -2.25803787
H       -0.45527025       0.56347080       2.05468920
H       -1.95567625      -0.98701686       1.26222392
H       -1.22151705      -1.22550028      -0.24136678
H        0.55779368      -2.15003210       0.74682762
H        1.38374974       1.56030624       1.04883974
H        2.24655577       0.49744248      -1.41169497
16
Frame=15 idx=006472 GeodesicLength=1.9347660466768604 rxn_smarts="[C:1]([C@@:2]([C:3]([O:4][H:14])([H:12])[H:13])([N:5]([C:6](=[O:7])[H:16])[H:15])[H:11])([H:8])([H:9])[H:10]>>[C:1]([C:6](=[O:7])[H:16])([H:8])([H:9])[H:10].[C:2](\[C:3]([O:4][H:14])([H:12])[H:13])(=[N:5]/[H:15])[H:11]"
C       -0.54573173       1.06877274      -1.18266045
C       -0.28769689       0.32955488       1.01459016
C       -0.97228582      -1.00731974       0.80714234
O       -0.23091005      -2.10230490       1.27592285
N        0.99078261       0.70569870       0.74256054
C        1.42652392      -0.06807043      -0.96452057
O        1.47065000      -1.28024384      -0.85220824
H       -0.41778555       2.10122210      -0.84446958
H       -1.62037296       0.88160667      -1.21005813
H       -0.39788291       1.15553267      -2.26356252
H       -0.41399259       0.51021811       2.09239712
H       -1.95310555      -0.99793279       1.28701243
H       -1.25232269      -1.20553037      -0.23248155
H        0.55765418      -2.13611796       0.70878603
H        1.35400852       1.59725731       1.04252681
H        2.29246751       0.44765684      -1.42097724
16
Frame=16 idx=006472 GeodesicLength=2.063073794592439 rxn_smarts="[C:1]([C@@:2]([C:3]([O:4][H:14])([H:12])[H:13])([N:5]([C:6](=[O:7])[H:16])[H:15])[H:11])([H:8])([H:9])[H:10]>>[C:1]([C:6](=[O:7])[H:16])([H:8])([H:9])[H:10].[C:2](\[C:3]([O:4][H:14])([H:12])[H:13])(=[N:5]/[H:15])[H:11]"
C       -0.55636693       1.06811882      -1.18959793
C       -0.30272876       0.33801787       1.03129136
C       -0.97817554      -1.00342227       0.81295466
O       -0.22805638      -2.10626680       1.24638026
N        0.96293826       0.74275980       0.72930030
C        1.45361133      -0.08316800      -0.96859305
O        1.49326868      -1.29033859      -0.80549836
H       -0.42760308       2.09952032      -0.84787185
H       -1.63255925       0.89325085      -1.23394423
H       -0.40335796       1.17119205      -2.26874715
H       -0.36767522       0.45595052       2.12442978
H       -1.95000236      -1.00837636       1.31164895
H       -1.28321149      -1.18531418      -0.22264888
H        0.55631702      -2.12216433       0.67209078
H        1.32414313       1.63269828       1.03604478
H        2.33945856       0.39754204      -1.42723941
