13
Frame=0 idx=005506 GeodesicLength=0.0 rxn_smarts="[C:1]([C:2]([O:3][C:4]([C:5]#[N:6])([H:12])[H:13])([H:10])[H:11])([H:7])([H:8])[H:9]>>[C-:2]([O+:3]=[C:4]([H:12])[H:13])([H:10])[H:11].[C:1]([C:5]#[N:6])([H:7])([H:8])[H:9]"
C       -0.87548850      -1.03769962       0.34215085
C       -0.65266824       0.95332863      -0.88242708
O       -0.01893573       1.49826907       0.09991579
C        1.15019616       0.77117214       0.45481454
C        0.82490930      -0.73811116       0.19196005
N        1.59765067      -1.58970424      -0.12325493
H       -1.53486312      -0.35936319       0.88508226
H       -1.37255508      -1.44703167      -0.53734244
H       -0.69380461      -1.87604544       1.01100532
H       -1.67619123       1.28125648      -1.01598818
H       -0.10590131       0.48773115      -1.69781507
H        1.38894960       1.02763549       1.48505801
H        1.96870211       1.02856235      -0.21315909
13
Frame=1 idx=005506 GeodesicLength=0.11584569896591108 rxn_smarts="[C:1]([C:2]([O:3][C:4]([C:5]#[N:6])([H:12])[H:13])([H:10])[H:11])([H:7])([H:8])[H:9]>>[C-:2]([O+:3]=[C:4]([H:12])[H:13])([H:10])[H:11].[C:1]([C:5]#[N:6])([H:7])([H:8])[H:9]"
C       -0.88719477      -1.04053040       0.33608985
C       -0.65639377       0.94260577      -0.87579458
O       -0.01960793       1.49383817       0.10656658
C        1.15681039       0.78625740       0.45738306
C        0.84567418      -0.75466922       0.19836585
N        1.61979199      -1.59848280      -0.12416577
H       -1.53957759      -0.36496411       0.89128075
H       -1.39124357      -1.44896593      -0.53991790
H       -0.71825243      -1.88504778       1.00114898
H       -1.66974843       1.29585367      -1.02163625
H       -0.10810042       0.48018064      -1.69232240
H        1.40113123       1.04990396       1.48424509
H        1.96671112       1.04402062      -0.22124325
13
Frame=2 idx=005506 GeodesicLength=0.2316665939587929 rxn_smarts="[C:1]([C:2]([O:3][C:4]([C:5]#[N:6])([H:12])[H:13])([H:10])[H:11])([H:7])([H:8])[H:9]>>[C-:2]([O+:3]=[C:4]([H:12])[H:13])([H:10])[H:11].[C:1]([C:5]#[N:6])([H:7])([H:8])[H:9]"
C       -0.89926987      -1.04346046       0.33006430
C       -0.66009386       0.93183230      -0.86898276
O       -0.02040217       1.48923459       0.11358763
C        1.16333848       0.80169923       0.45998660
C        0.86677329      -0.77155118       0.20480048
N        1.64240550      -1.60712406      -0.12567470
H       -1.54437571      -0.37077087       0.89761457
H       -1.41074719      -1.45068210      -0.54228455
H       -0.74271395      -1.89391544       0.99121486
H       -1.66237879       1.31023567      -1.02772067
H       -0.11012905       0.47252731      -1.68652235
H        1.41321518       1.07252240       1.48337177
H        1.96437815       1.05945261      -0.22945518
13
Frame=3 idx=005506 GeodesicLength=0.34745906207926236 rxn_smarts="[C:1]([C:2]([O:3][C:4]([C:5]#[N:6])([H:12])[H:13])([H:10])[H:11])([H:7])([H:8])[H:9]>>[C-:2]([O+:3]=[C:4]([H:12])[H:13])([H:10])[H:11].[C:1]([C:5]#[N:6])([H:7])([H:8])[H:9]"
C       -0.91174074      -1.04648656       0.32406434
C       -0.66376792       0.92101280      -0.86199062
O       -0.02131222       1.48444640       0.12098111
C        1.16977891       0.81751773       0.46261712
C        0.88823478      -0.78877714       0.21122361
N        1.66553612      -1.61562789      -0.12774514
H       -1.54924738      -0.37678004       0.90409348
H       -1.43109972      -1.45214444      -0.54444508
H       -0.76721083      -1.90266685       0.98118804
H       -1.65405878       1.32437780      -1.03421780
H       -0.11199378       0.46475873      -1.68041038
H        1.42518402       1.09550596       1.48243390
H        1.96169755       1.07486350      -0.23779257
13
Frame=4 idx=005506 GeodesicLength=0.46322418723856207 rxn_smarts="[C:1]([C:2]([O:3][C:4]([C:5]#[N:6])([H:12])[H:13])([H:10])[H:11])([H:7])([H:8])[H:9]>>[C-:2]([O+:3]=[C:4]([H:12])[H:13])([H:10])[H:11].[C:1]([C:5]#[N:6])([H:7])([H:8])[H:9]"
C       -0.92463863      -1.04960344       0.31807963
C       -0.66741576       0.91015213      -0.85481587
O       -0.02233197       1.47945905       0.12874946
C        1.17613088       0.83373627       0.46526528
C        0.91008954      -0.80636724       0.21759279
N        1.68923325      -1.62399555      -0.13033707
H       -1.55418373      -0.38298928       0.91072809
H       -1.45233767      -1.45331481      -0.54640348
H       -0.79176850      -1.91131996       0.97104804
H       -1.64476202       1.33824996      -1.04109927
H       -0.11370026       0.45686067      -1.67397973
H        1.43702230       1.11887440       1.48142679
H        1.95866257       1.09025780      -0.24625466
13
Frame=5 idx=005506 GeodesicLength=0.5789581390574303 rxn_smarts="[C:1]([C:2]([O:3][C:4]([C:5]#[N:6])([H:12])[H:13])([H:10])[H:11])([H:7])([H:8])[H:9]>>[C-:2]([O+:3]=[C:4]([H:12])[H:13])([H:10])[H:11].[C:1]([C:5]#[N:6])([H:7])([H:8])[H:9]"
C       -0.93799528      -1.05280377       0.31209910
C       -0.67103421       0.89925422      -0.84746051
O       -0.02345482       1.47426013       0.13689612
C        1.18239525       0.85038070       0.46792124
C        0.93237043      -0.82434152       0.22386597
N        1.71354626      -1.63222972      -0.13340118
H       -1.55917424      -0.38939414       0.91752810
H       -1.47449839      -1.45415371      -0.54816217
H       -0.81641056      -1.91989285       0.96076888
H       -1.63447391       1.35182137      -1.04833248
H       -0.11525193       0.44881836      -1.66722508
H        1.44871552       1.14263955       1.48034155
H        1.95526588       1.10564139      -0.25483956
13
Frame=6 idx=005506 GeodesicLength=0.6946711896638014 rxn_smarts="[C:1]([C:2]([O:3][C:4]([C:5]#[N:6])([H:12])[H:13])([H:10])[H:11])([H:7])([H:8])[H:9]>>[C-:2]([O+:3]=[C:4]([H:12])[H:13])([H:10])[H:11].[C:1]([C:5]#[N:6])([H:7])([H:8])[H:9]"
C       -0.95184681      -1.05608117       0.30611108
C       -0.67462280       0.88832073      -0.83992352
O       -0.02467037       1.46883077       0.14542483
C        1.18856812       0.86748191       0.47057371
C        0.95511207      -0.84272273       0.23000153
N        1.73853278      -1.64033409      -0.13689742
H       -1.56420985      -0.39599524       0.92450583
H       -1.49762541      -1.45461507      -0.54972464
H       -0.84117154      -1.92840685       0.95032200
H       -1.62316315       1.36505844      -1.05587905
H       -0.11665012       0.44060998      -1.66013674
H        1.46024783       1.16683140       1.47917303
H        1.95149926       1.12102192      -0.26355064
13
Frame=7 idx=005506 GeodesicLength=0.8103609512878344 rxn_smarts="[C:1]([C:2]([O:3][C:4]([C:5]#[N:6])([H:12])[H:13])([H:10])[H:11])([H:7])([H:8])[H:9]>>[C-:2]([O+:3]=[C:4]([H:12])[H:13])([H:10])[H:11].[C:1]([C:5]#[N:6])([H:7])([H:8])[H:9]"
C       -0.96623167      -1.05942640       0.30010263
C       -0.67817624       0.87735279      -0.83220618
O       -0.02597133       1.46315290       0.15433794
C        1.19464591       0.88507084       0.47321233
C        0.97835271      -0.86153265       0.23596079
N        1.76424966      -1.64831188      -0.14078726
H       -1.56928114      -0.40279487       0.93167055
H       -1.52176140      -1.45465165      -0.55109293
H       -0.86608682      -1.93687811       0.93967471
H       -1.61081127       1.37792307      -1.06369398
H       -0.11789201       0.43221375      -1.65270441
H        1.47160464       1.19148377       1.47791587
H        1.94735895       1.13639844      -0.27239006
13
Frame=8 idx=005506 GeodesicLength=0.9260366773850238 rxn_smarts="[C:1]([C:2]([O:3][C:4]([C:5]#[N:6])([H:12])[H:13])([H:10])[H:11])([H:7])([H:8])[H:9]>>[C-:2]([O+:3]=[C:4]([H:12])[H:13])([H:10])[H:11].[C:1]([C:5]#[N:6])([H:7])([H:8])[H:9]"
C       -0.98119178      -1.06282752       0.29406243
C       -0.68168987       0.86634813      -0.82431404
O       -0.02733994       1.45720515       0.16364376
C        1.20062562       0.90318379       0.47582432
C        1.00213176      -0.88079459       0.24170578
N        1.79075829      -1.65616040      -0.14503739
H       -1.57437750      -0.40979265       0.93903512
H       -1.54695502      -1.45421256      -0.55226762
H       -0.89119876      -1.94532766       0.92879255
H       -1.59739615       1.39037312      -1.07173255
H       -0.11897205       0.42359889      -1.64491868
H        1.48276982       1.21662684       1.47656231
H        1.94283559       1.15177946      -0.28135601
13
Frame=9 idx=005506 GeodesicLength=1.0416973593479986 rxn_smarts="[C:1]([C:2]([O:3][C:4]([C:5]#[N:6])([H:12])[H:13])([H:10])[H:11])([H:7])([H:8])[H:9]>>[C-:2]([O+:3]=[C:4]([H:12])[H:13])([H:10])[H:11].[C:1]([C:5]#[N:6])([H:7])([H:8])[H:9]"
C       -0.99676956      -1.06627274       0.28798284
C       -0.68516002       0.85530416      -0.81625072
O       -0.02877240       1.45096789       0.17334692
C        1.20650446       0.92185818       0.47839997
C        1.02649070      -0.90053979       0.24720033
N        1.81810445      -1.66386494      -0.14963950
H       -1.57948766      -0.41698318       0.94661549
H       -1.57325770      -1.45325447      -0.55324464
H       -0.91654610      -1.95376802       0.91763980
H       -1.58286954       1.40235142      -1.07995586
H       -0.11988216       0.41473591      -1.63675930
H        1.49372182       1.24229542       1.47510755
H        1.93792370       1.16717014      -0.29044287
13
Frame=10 idx=005506 GeodesicLength=1.1573488275516746 rxn_smarts="[C:1]([C:2]([O:3][C:4]([C:5]#[N:6])([H:12])[H:13])([H:10])[H:11])([H:7])([H:8])[H:9]>>[C-:2]([O+:3]=[C:4]([H:12])[H:13])([H:10])[H:11].[C:1]([C:5]#[N:6])([H:7])([H:8])[H:9]"
C       -1.01301431      -1.06974807       0.28184883
C       -0.68856901       0.84420804      -0.80802082
O       -0.03024282       1.44441011       0.18345064
C        1.21227414       0.94113476       0.48092752
C        1.05147692      -0.92079560       0.25241808
N        1.84637070      -1.67142510      -0.15457830
H       -1.58460167      -0.42437879       0.95441990
H       -1.60072226      -1.45170670      -0.55401835
H       -0.94218617      -1.96221267       0.90617867
H       -1.56724076       1.41382529      -1.08830755
H       -0.12060504       0.40557933      -1.62821899
H        1.50443841       1.26854213       1.47354657
H        1.93262188       1.18256726      -0.29964621
13
Frame=11 idx=005506 GeodesicLength=1.2729971862019225 rxn_smarts="[C:1]([C:2]([O:3][C:4]([C:5]#[N:6])([H:12])[H:13])([H:10])[H:11])([H:7])([H:8])[H:9]>>[C-:2]([O+:3]=[C:4]([H:12])[H:13])([H:10])[H:11].[C:1]([C:5]#[N:6])([H:7])([H:8])[H:9]"
C       -1.02997861      -1.07323312       0.27565249
C       -0.69190270       0.83304911      -0.79962870
O       -0.03172932       1.43750399       0.19395925
C        1.21791900       0.96106205       0.48339948
C        1.07713946      -0.94159371       0.25733394
N        1.87562528      -1.67882471      -0.15985420
H       -1.58970962      -0.43198863       0.96245513
H       -1.62940233      -1.44950919      -0.55458028
H       -0.96817610      -1.97067176       0.89436952
H       -1.55049203       1.42474341      -1.09673111
H       -0.12111806       0.39608471      -1.61928028
H        1.51489185       1.29541250       1.47187251
H        1.92693318       1.19796536      -0.30896775
13
Frame=12 idx=005506 GeodesicLength=1.3886455281150938 rxn_smarts="[C:1]([C:2]([O:3][C:4]([C:5]#[N:6])([H:12])[H:13])([H:10])[H:11])([H:7])([H:8])[H:9]>>[C-:2]([O+:3]=[C:4]([H:12])[H:13])([H:10])[H:11].[C:1]([C:5]#[N:6])([H:7])([H:8])[H:9]"
C       -1.04771867      -1.07670970       0.26938337
C       -0.69514634       0.82180871      -0.79108183
O       -0.03320670       1.43021294       0.20487880
C        1.22342873       0.98168553       0.48580155
C        1.10353592      -0.96296788       0.26191947
N        1.90593966      -1.68604220      -0.16547701
H       -1.59479501      -0.43982499       0.97073659
H       -1.65936352      -1.44658693      -0.55491552
H       -0.99458042      -1.97915533       0.88217092
H       -1.53259892       1.43505340      -1.10517921
H       -0.12140023       0.38619744      -1.60992590
H        1.52505145       1.32296163       1.47008121
H        1.92085405       1.21336736      -0.31839244
13
Frame=13 idx=005506 GeodesicLength=1.504289621090828 rxn_smarts="[C:1]([C:2]([O:3][C:4]([C:5]#[N:6])([H:12])[H:13])([H:10])[H:11])([H:7])([H:8])[H:9]>>[C-:2]([O+:3]=[C:4]([H:12])[H:13])([H:10])[H:11].[C:1]([C:5]#[N:6])([H:7])([H:8])[H:9]"
C       -1.06629152      -1.08015619       0.26303306
C       -0.69828101       0.81046839      -0.78238586
O       -0.03464703       1.42249965       0.21621640
C        1.22878485       1.00305624       0.48812512
C        1.13072481      -0.98495737       0.26615017
N        1.93738549      -1.69305316      -0.17146675
H       -1.59984697      -0.44789726       0.97927103
H       -1.69066399      -1.44287240      -0.55500752
H       -1.02146401      -1.98765936       0.86954281
H       -1.51354693       1.44469849      -1.11360007
H       -0.12142555       0.37586317      -1.60013491
H        1.53488097       1.35124120       1.46816908
H        1.91439088       1.22876860      -0.32791258
13
Frame=14 idx=005506 GeodesicLength=1.6199385015411383 rxn_smarts="[C:1]([C:2]([O:3][C:4]([C:5]#[N:6])([H:12])[H:13])([H:10])[H:11])([H:7])([H:8])[H:9]>>[C-:2]([O+:3]=[C:4]([H:12])[H:13])([H:10])[H:11].[C:1]([C:5]#[N:6])([H:7])([H:8])[H:9]"
C       -1.08576260      -1.08354588       0.25659372
C       -0.70128394       0.79900161      -0.77354784
O       -0.03601627       1.41431900       0.22797330
C        1.23396589       1.02523226       0.49035494
C        1.15877245      -1.00760777       0.26999858
N        1.97005020      -1.69982386      -0.17784637
H       -1.60484269      -0.45623250       0.98807464
H       -1.72338015      -1.43827209      -0.55482923
H       -1.04890786      -1.99619187       0.85643573
H       -1.49331321       1.45362605      -1.12194064
H       -0.12116274       0.36501395      -1.58988514
H        1.54433259       1.38031864       1.46613105
H        1.90754833       1.24416245      -0.33751274
13
Frame=15 idx=005506 GeodesicLength=1.7355913234891283 rxn_smarts="[C:1]([C:2]([O:3][C:4]([C:5]#[N:6])([H:12])[H:13])([H:10])[H:11])([H:7])([H:8])[H:9]>>[C-:2]([O+:3]=[C:4]([H:12])[H:13])([H:10])[H:11].[C:1]([C:5]#[N:6])([H:7])([H:8])[H:9]"
C       -1.10620060      -1.08684908       0.25005804
C       -0.70413277       0.78737885      -0.76457464
O       -0.03727191       1.40562020       0.24015865
C        1.23894569       1.04827399       0.49247616
C        1.18775442      -1.03096146       0.27343618
N        2.00401752      -1.70631640      -0.18464523
H       -1.60976478      -0.46485344       0.99715584
H       -1.75758017      -1.43269741      -0.55435283
H       -1.07699773      -2.00474674       0.84280242
H       -1.47188210       1.46177593      -1.13014897
H       -0.12058025       0.35357960      -1.57915167
H        1.55335832       1.41025667       1.46396178
H        1.90033436       1.25953928      -0.34717572
13
Frame=16 idx=005506 GeodesicLength=1.8512441488248543 rxn_smarts="[C:1]([C:2]([O:3][C:4]([C:5]#[N:6])([H:12])[H:13])([H:10])[H:11])([H:7])([H:8])[H:9]>>[C-:2]([O+:3]=[C:4]([H:12])[H:13])([H:10])[H:11].[C:1]([C:5]#[N:6])([H:7])([H:8])[H:9]"
C       -1.12767737      -1.09003339       0.24341960
C       -0.70680144       0.77556705      -0.75547519
O       -0.03836825       1.39634536       0.25277834
C        1.24369169       1.07224540       0.49447079
C        1.21774933      -1.05507128       0.27642935
N        2.03938594      -1.71248282      -0.19188893
H       -1.61458826      -0.47379384       1.00652858
H       -1.79334468      -1.42604140      -0.55353981
H       -1.10582807      -2.01331900       0.82858646
H       -1.44923569       1.46908964      -1.13817465
H       -0.11964484       0.34148312      -1.56790815
H        1.56190196       1.44112441       1.46165455
H        1.89275967       1.27488675      -0.35688093
