17
Frame=0 idx=010890 GeodesicLength=0.0 rxn_smarts="[C:1]1([H:8])([H:9])[C@@:2]2([H:10])[C:3]([H:11])([H:12])[C@:4]3([H:13])[C:5]([H:14])([H:15])[C@@:6]2([H:16])[C@:7]13[H:17]>>[C:1]1([H:8])([H:9])[C@@:2]2([H:10])[C:3]([H:11])([H:12])[C@@:4]([C:5]([H:14])([H:15])[H:16])([H:13])[C@:7]1([H:17])[C:6]2"
C        1.54546129      -0.75137757      -0.32235025
C        1.10344009       0.65445618       0.15301226
C        0.02867431       0.96996416      -0.89235440
C       -0.88621646      -0.20872894      -0.53496475
C       -1.57434209       0.21100308       0.75159952
C        0.36209556      -0.12252081       1.27551678
C        0.14337734      -1.15163000       0.14117692
H        1.81874823      -0.86104830      -1.37342213
H        2.30679998      -1.19630932       0.31912558
H        1.82225741       1.43249937       0.39934695
H        0.41455325       0.93264788      -1.91371793
H       -0.45924988       1.93620097      -0.74719496
H       -1.53698437      -0.56583702      -1.33828662
H       -2.07750256       1.17803634       0.77545472
H       -2.16540538      -0.57397855       1.22230836
H       -0.69582047       0.29869739       1.75042184
H       -0.14988622      -2.18207482       0.33432815
17
Frame=1 idx=010890 GeodesicLength=0.06750028071039525 rxn_smarts="[C:1]1([H:8])([H:9])[C@@:2]2([H:10])[C:3]([H:11])([H:12])[C@:4]3([H:13])[C:5]([H:14])([H:15])[C@@:6]2([H:16])[C@:7]13[H:17]>>[C:1]1([H:8])([H:9])[C@@:2]2([H:10])[C:3]([H:11])([H:12])[C@@:4]([C:5]([H:14])([H:15])[H:16])([H:13])[C@:7]1([H:17])[C:6]2"
C        1.54666160      -0.75237530      -0.32095753
C        1.10724626       0.65646639       0.15042795
C        0.02983383       0.97115353      -0.89238503
C       -0.88558600      -0.20721259      -0.53393764
C       -1.57457953       0.21084132       0.75373342
C        0.36871617      -0.12231528       1.26989470
C        0.14305911      -1.15192727       0.14161041
H        1.81060492      -0.86304325      -1.37456169
H        2.31051409      -1.19766128       0.31694056
H        1.82776862       1.43321007       0.39558564
H        0.41258902       0.93610995      -1.91502507
H       -0.45652815       1.93775463      -0.74426349
H       -1.53155567      -0.56857176      -1.33883950
H       -2.08531568       1.17429720       0.76965793
H       -2.17299348      -0.57518704       1.21431693
H       -0.69979940       0.30001684       1.76950328
H       -0.15063570      -2.18155616       0.33829912
17
Frame=2 idx=010890 GeodesicLength=0.1340570269255339 rxn_smarts="[C:1]1([H:8])([H:9])[C@@:2]2([H:10])[C:3]([H:11])([H:12])[C@:4]3([H:13])[C:5]([H:14])([H:15])[C@@:6]2([H:16])[C@:7]13[H:17]>>[C:1]1([H:8])([H:9])[C@@:2]2([H:10])[C:3]([H:11])([H:12])[C@@:4]([C:5]([H:14])([H:15])[H:16])([H:13])[C@:7]1([H:17])[C:6]2"
C        1.54786990      -0.75336235      -0.31958867
C        1.11104954       0.65847671       0.14782205
C        0.03100463       0.97236020      -0.89244989
C       -0.88496840      -0.20569589      -0.53295533
C       -1.57484292       0.21071570       0.75595326
C        0.37526297      -0.12204790       1.26424280
C        0.14273846      -1.15218896       0.14206050
H        1.80244574      -0.86503065      -1.37563588
H        2.31420899      -1.19900671       0.31471583
H        1.83327036       1.43390331       0.39180328
H        0.41061034       0.93957513      -1.91634370
H       -0.45380921       1.93927377      -0.74131215
H       -1.52610087      -0.57132335      -1.33940666
H       -2.09301039       1.17045812       0.76384169
H       -2.18044130      -0.57623042       1.20627431
H       -0.70389560       0.30108794       1.78862971
H       -0.15139222      -2.18096466       0.34234884
17
Frame=3 idx=010890 GeodesicLength=0.19976404864937583 rxn_smarts="[C:1]1([H:8])([H:9])[C@@:2]2([H:10])[C:3]([H:11])([H:12])[C@:4]3([H:13])[C:5]([H:14])([H:15])[C@@:6]2([H:16])[C@:7]13[H:17]>>[C:1]1([H:8])([H:9])[C@@:2]2([H:10])[C:3]([H:11])([H:12])[C@@:4]([C:5]([H:14])([H:15])[H:16])([H:13])[C@:7]1([H:17])[C:6]2"
C        1.54907808      -0.75438620      -0.31829074
C        1.11488839       0.66044833       0.14511784
C        0.03217793       0.97354187      -0.89250878
C       -0.88438237      -0.20420017      -0.53198274
C       -1.57513680       0.21058443       0.75816806
C        0.38176247      -0.12171969       1.25859649
C        0.14241778      -1.15244843       0.14254721
H        1.79433456      -0.86693092      -1.37652209
H        2.31793103      -1.20033090       0.31241020
H        1.83882792       1.43456268       0.38794653
H        0.40861650       0.94303481      -1.91765603
H       -0.45106948       1.94078049      -0.73831530
H       -1.52068565      -0.57402379      -1.33988983
H       -2.10065635       1.16662527       0.75799847
H       -2.18784594      -0.57724275       1.19818935
H       -0.70813116       0.30201730       1.80775912
H       -0.15212693      -2.18031234       0.34643223
17
Frame=4 idx=010890 GeodesicLength=0.26466482522973084 rxn_smarts="[C:1]1([H:8])([H:9])[C@@:2]2([H:10])[C:3]([H:11])([H:12])[C@:4]3([H:13])[C:5]([H:14])([H:15])[C@@:6]2([H:16])[C@:7]13[H:17]>>[C:1]1([H:8])([H:9])[C@@:2]2([H:10])[C:3]([H:11])([H:12])[C@@:4]([C:5]([H:14])([H:15])[H:16])([H:13])[C@:7]1([H:17])[C:6]2"
C        1.55029754      -0.75541352      -0.31701961
C        1.11873964       0.66242453       0.14237123
C        0.03334634       0.97473441      -0.89258362
C       -0.88379080      -0.20268634      -0.53102707
C       -1.57544241       0.21043909       0.76045046
C        0.38821770      -0.12133919       1.25290969
C        0.14211267      -1.15269405       0.14305147
H        1.78623001      -0.86879585      -1.37731578
H        2.32161369      -1.20168303       0.31008023
H        1.84440688       1.43519472       0.38404953
H        0.40658099       0.94649263      -1.91898226
H       -0.44834186       1.94227748      -0.73530435
H       -1.51526362      -0.57669593      -1.34035306
H       -2.10819256       1.16268888       0.75215382
H       -2.19516023      -0.57815780       1.19001428
H       -0.71249260       0.30282318       1.82691811
H       -0.15286137      -2.17960920       0.35058694
17
Frame=5 idx=010890 GeodesicLength=0.3283744356959014 rxn_smarts="[C:1]1([H:8])([H:9])[C@@:2]2([H:10])[C:3]([H:11])([H:12])[C@:4]3([H:13])[C:5]([H:14])([H:15])[C@@:6]2([H:16])[C@:7]13[H:17]>>[C:1]1([H:8])([H:9])[C@@:2]2([H:10])[C:3]([H:11])([H:12])[C@@:4]([C:5]([H:14])([H:15])[H:16])([H:13])[C@:7]1([H:17])[C:6]2"
C        1.55153224      -0.75641731      -0.31571548
C        1.12260410       0.66437108       0.13953317
C        0.03450788       0.97590424      -0.89274066
C       -0.88322638      -0.20119561      -0.53008545
C       -1.57576779       0.21030361       0.76281701
C        0.39453528      -0.12087357       1.24723423
C        0.14181153      -1.15295722       0.14352798
H        1.77828637      -0.87058368      -1.37800323
H        2.32528672      -1.20302702       0.30774649
H        1.84995235       1.43582369       0.38006755
H        0.40453901       0.94988774      -1.92033840
H       -0.44559185       1.94374079      -0.73231070
H       -1.50991914      -0.57926723      -1.34072802
H       -2.11556171       1.15875762       0.74637724
H       -2.20228818      -0.57893952       1.18183983
H       -0.71710546       0.30334699       1.84606345
H       -0.15359497      -2.17887460       0.35471499
17
Frame=6 idx=010890 GeodesicLength=0.39131841164208303 rxn_smarts="[C:1]1([H:8])([H:9])[C@@:2]2([H:10])[C:3]([H:11])([H:12])[C@:4]3([H:13])[C:5]([H:14])([H:15])[C@@:6]2([H:16])[C@:7]13[H:17]>>[C:1]1([H:8])([H:9])[C@@:2]2([H:10])[C:3]([H:11])([H:12])[C@@:4]([C:5]([H:14])([H:15])[H:16])([H:13])[C@:7]1([H:17])[C:6]2"
C        1.55278452      -0.75745383      -0.31451516
C        1.12648823       0.66630948       0.13664099
C        0.03567587       0.97708034      -0.89293601
C       -0.88268182      -0.19970505      -0.52919116
C       -1.57609832       0.21014815       0.76520434
C        0.40080731      -0.12035107       1.24151348
C        0.14152716      -1.15318621       0.14402208
H        1.77033657      -0.87231944      -1.37854018
H        2.32895891      -1.20435011       0.30538806
H        1.85551027       1.43643135       0.37605598
H        0.40243943       0.95329933      -1.92171006
H       -0.44282180       1.94516268      -0.72928599
H       -1.50457112      -0.58187232      -1.34106129
H       -2.12276457       1.15480908       0.74067420
H       -2.20941402      -0.57961489       1.17354642
H       -0.72187076       0.30369394       1.86525567
H       -0.15430584      -2.17808144       0.35893863
17
Frame=7 idx=010890 GeodesicLength=0.45346107155863885 rxn_smarts="[C:1]1([H:8])([H:9])[C@@:2]2([H:10])[C:3]([H:11])([H:12])[C@:4]3([H:13])[C:5]([H:14])([H:15])[C@@:6]2([H:16])[C@:7]13[H:17]>>[C:1]1([H:8])([H:9])[C@@:2]2([H:10])[C:3]([H:11])([H:12])[C@@:4]([C:5]([H:14])([H:15])[H:16])([H:13])[C@:7]1([H:17])[C:6]2"
C        1.55403399      -0.75846163      -0.31327166
C        1.13039313       0.66823962       0.13370366
C        0.03683999       0.97824321      -0.89317419
C       -0.88214612      -0.19824118      -0.52831852
C       -1.57647312       0.21004294       0.76761144
C        0.40701417      -0.11980229       1.23577568
C        0.14124149      -1.15340407       0.14454678
H        1.76243818      -0.87398592      -1.37899476
H        2.33261411      -1.20568943       0.30292274
H        1.86106013       1.43705235       0.37201496
H        0.40036963       0.95669483      -1.92311431
H       -0.44005219       1.94655242      -0.72626968
H       -1.49924454      -0.58446343      -1.34137403
H       -2.12978553       1.15084726       0.73497725
H       -2.21633879      -0.58019377       1.16533757
H       -0.72693205       0.30382063       1.88444278
H       -0.15503248      -2.17725154       0.36318429
17
Frame=8 idx=010890 GeodesicLength=0.5147046134390753 rxn_smarts="[C:1]1([H:8])([H:9])[C@@:2]2([H:10])[C:3]([H:11])([H:12])[C@:4]3([H:13])[C:5]([H:14])([H:15])[C@@:6]2([H:16])[C@:7]13[H:17]>>[C:1]1([H:8])([H:9])[C@@:2]2([H:10])[C:3]([H:11])([H:12])[C@@:4]([C:5]([H:14])([H:15])[H:16])([H:13])[C@:7]1([H:17])[C:6]2"
C        1.55528809      -0.75949976      -0.31210939
C        1.13434925       0.67014490       0.13063022
C        0.03801888       0.97942134      -0.89342722
C       -0.88162392      -0.19675058      -0.52744597
C       -1.57684125       0.20994859       0.77007358
C        0.41318978      -0.11918547       1.23000945
C        0.14096300      -1.15359947       0.14508931
H        1.75456349      -0.87560627      -1.37930217
H        2.33625294      -1.20701154       0.30047868
H        1.86662574       1.43763290       0.36792326
H        0.39822238       0.96008186      -1.92454513
H       -0.43725350       1.94794853      -0.72323157
H       -1.49392034      -0.58701664      -1.34163476
H       -2.13673289       1.14684613       0.72926499
H       -2.22320029      -0.58068436       1.15707931
H       -0.73217923       0.30369514       1.90365017
H       -0.15572214      -2.17636530       0.36749724
17
Frame=9 idx=010890 GeodesicLength=0.5747658138188 rxn_smarts="[C:1]1([H:8])([H:9])[C@@:2]2([H:10])[C:3]([H:11])([H:12])[C@:4]3([H:13])[C:5]([H:14])([H:15])[C@@:6]2([H:16])[C@:7]13[H:17]>>[C:1]1([H:8])([H:9])[C@@:2]2([H:10])[C:3]([H:11])([H:12])[C@@:4]([C:5]([H:14])([H:15])[H:16])([H:13])[C@:7]1([H:17])[C:6]2"
C        1.55657103      -0.76050044      -0.31092759
C        1.13826010       0.67207370       0.12760384
C        0.03919543       0.98058495      -0.89375494
C       -0.88112064      -0.19529017      -0.52658874
C       -1.57719255       0.20995420       0.77262842
C        0.41928140      -0.11853253       1.22426374
C        0.14068748      -1.15376695       0.14564498
H        1.74676663      -0.87717146      -1.37955093
H        2.33984016      -1.20836806       0.29796692
H        1.87217061       1.43821714       0.36377112
H        0.39605668       0.96347806      -1.92595276
H       -0.43448743       1.94926891      -0.72020893
H       -1.48860459      -0.58960019      -1.34184165
H       -2.14349456       1.14281397       0.72354763
H       -2.23000642      -0.58108570       1.14873766
H       -0.73748208       0.30338930       1.92284620
H       -0.15644123      -2.17546472       0.37181502
17
Frame=10 idx=010890 GeodesicLength=0.6340786514698223 rxn_smarts="[C:1]1([H:8])([H:9])[C@@:2]2([H:10])[C:3]([H:11])([H:12])[C@:4]3([H:13])[C:5]([H:14])([H:15])[C@@:6]2([H:16])[C@:7]13[H:17]>>[C:1]1([H:8])([H:9])[C@@:2]2([H:10])[C:3]([H:11])([H:12])[C@@:4]([C:5]([H:14])([H:15])[H:16])([H:13])[C@:7]1([H:17])[C:6]2"
C        1.55784498      -0.76153772      -0.30981871
C        1.14218718       0.67398672       0.12451882
C        0.04035674       0.98173975      -0.89407396
C       -0.88064021      -0.19379026      -0.52572681
C       -1.57756713       0.20994619       0.77529298
C        0.42532370      -0.11786951       1.21846832
C        0.14042587      -1.15390430       0.14625634
H        1.73899088      -0.87869791      -1.37969645
H        2.34343308      -1.20972338       0.29539984
H        1.87773453       1.43876192       0.35956459
H        0.39384194       0.96687762      -1.92735792
H       -0.43169469       1.95059301      -0.71716503
H       -1.48327164      -0.59215610      -1.34202387
H       -2.15012953       1.13862262       0.71779067
H       -2.23674067      -0.58135747       1.14028353
H       -0.74296002       0.30298933       1.94207533
H       -0.15713502      -2.17448049       0.37621235
17
Frame=11 idx=010890 GeodesicLength=0.6923855960732351 rxn_smarts="[C:1]1([H:8])([H:9])[C@@:2]2([H:10])[C:3]([H:11])([H:12])[C@:4]3([H:13])[C:5]([H:14])([H:15])[C@@:6]2([H:16])[C@:7]13[H:17]>>[C:1]1([H:8])([H:9])[C@@:2]2([H:10])[C:3]([H:11])([H:12])[C@@:4]([C:5]([H:14])([H:15])[H:16])([H:13])[C@:7]1([H:17])[C:6]2"
C        1.55913006      -0.76256246      -0.30870507
C        1.14614968       0.67589933       0.12131670
C        0.04152769       0.98289899      -0.89449181
C       -0.88017040      -0.19229614      -0.52490767
C       -1.57794936       0.20998284       0.77796883
C        0.43130041      -0.11708056       1.21267824
C        0.14016481      -1.15403015       0.14685733
H        1.73123265      -0.88021093      -1.37973848
H        2.34697983      -1.21107409       0.29286240
H        1.88330040       1.43932647       0.35528438
H        0.39162188       0.97024179      -1.92882290
H       -0.42887512       1.95193211      -0.71406638
H       -1.47796938      -0.59470398      -1.34218036
H       -2.15666082       1.13446760       0.71208174
H       -2.24337399      -0.58157885       1.13180232
H       -0.74858773       0.30219330       1.96137511
H       -0.15782060      -2.17340529       0.38068561
17
Frame=12 idx=010890 GeodesicLength=0.7499502252032544 rxn_smarts="[C:1]1([H:8])([H:9])[C@@:2]2([H:10])[C:3]([H:11])([H:12])[C@:4]3([H:13])[C:5]([H:14])([H:15])[C@@:6]2([H:16])[C@:7]13[H:17]>>[C:1]1([H:8])([H:9])[C@@:2]2([H:10])[C:3]([H:11])([H:12])[C@@:4]([C:5]([H:14])([H:15])[H:16])([H:13])[C@:7]1([H:17])[C:6]2"
C        1.56043032      -0.76356606      -0.30760811
C        1.15014293       0.67777240       0.11809324
C        0.04269452       0.98406999      -0.89490929
C       -0.87969903      -0.19082139      -0.52407795
C       -1.57833675       0.21003958       0.78068598
C        0.43725600      -0.11630658       1.20685521
C        0.13992214      -1.15413824       0.14747642
H        1.72353186      -0.88164053      -1.37972885
H        2.35051518      -1.21244505       0.29027688
H        1.88885574       1.43986809       0.35099521
H        0.38937085       0.97362767      -1.93026610
H       -0.42608388       1.95317179      -0.71107241
H       -1.47267979      -0.59724486      -1.34229451
H       -2.16304238       1.13032174       0.70639516
H       -2.24989330      -0.58166974       1.12336201
H       -0.75448821       0.30125080       1.98065217
H       -0.15849621      -2.17228961       0.38516493
17
Frame=13 idx=010890 GeodesicLength=0.8069986391343454 rxn_smarts="[C:1]1([H:8])([H:9])[C@@:2]2([H:10])[C:3]([H:11])([H:12])[C@:4]3([H:13])[C:5]([H:14])([H:15])[C@@:6]2([H:16])[C@:7]13[H:17]>>[C:1]1([H:8])([H:9])[C@@:2]2([H:10])[C:3]([H:11])([H:12])[C@@:4]([C:5]([H:14])([H:15])[H:16])([H:13])[C@:7]1([H:17])[C:6]2"
C        1.56177029      -0.76454500      -0.30649960
C        1.15415752       0.67963609       0.11481718
C        0.04386212       0.98522341      -0.89536436
C       -0.87924192      -0.18933366      -0.52326322
C       -1.57880781       0.21007288       0.78343406
C        0.44322208      -0.11553570       1.20100740
C        0.13968723      -1.15423199       0.14811489
H        1.71586687      -0.88307419      -1.37969183
H        2.35406586      -1.21379236       0.28769664
H        1.89443663       1.44038729       0.34657063
H        0.38710177       0.97701605      -1.93169543
H       -0.42326097       1.95442044      -0.70803501
H       -1.46740360      -0.59974793      -1.34238688
H       -2.16929020       1.12614659       0.70074390
H       -2.25626323      -0.58168091       1.11494197
H       -0.76072812       0.30019648       1.99995306
H       -0.15917451      -2.17115749       0.38965661
17
Frame=14 idx=010890 GeodesicLength=0.8631224419905711 rxn_smarts="[C:1]1([H:8])([H:9])[C@@:2]2([H:10])[C:3]([H:11])([H:12])[C@:4]3([H:13])[C:5]([H:14])([H:15])[C@@:6]2([H:16])[C@:7]13[H:17]>>[C:1]1([H:8])([H:9])[C@@:2]2([H:10])[C:3]([H:11])([H:12])[C@@:4]([C:5]([H:14])([H:15])[H:16])([H:13])[C@:7]1([H:17])[C:6]2"
C        1.56311089      -0.76552752      -0.30539219
C        1.15815635       0.68149538       0.11147855
C        0.04505516       0.98635260      -0.89584856
C       -0.87879812      -0.18786752      -0.52245506
C       -1.57933702       0.21008733       0.78614159
C        0.44912374      -0.11473636       1.19516415
C        0.13945260      -1.15430138       0.14875532
H        1.70831810      -0.88439200      -1.37955459
H        2.35757293      -1.21514685       0.28506894
H        1.89998469       1.44087857       0.34214560
H        0.38481497       0.98034664      -1.93314819
H       -0.42042612       1.95564160      -0.70504632
H       -1.46219858      -0.60220332      -1.34240388
H       -2.17539657       1.12201529       0.69511836
H       -2.26247690      -0.58161835       1.10657327
H       -0.76711248       0.29896603       2.01925573
H       -0.15984365      -2.16999014       0.39414728
17
Frame=15 idx=010890 GeodesicLength=0.9186892403323985 rxn_smarts="[C:1]1([H:8])([H:9])[C@@:2]2([H:10])[C:3]([H:11])([H:12])[C@:4]3([H:13])[C:5]([H:14])([H:15])[C@@:6]2([H:16])[C@:7]13[H:17]>>[C:1]1([H:8])([H:9])[C@@:2]2([H:10])[C:3]([H:11])([H:12])[C@@:4]([C:5]([H:14])([H:15])[H:16])([H:13])[C@:7]1([H:17])[C:6]2"
C        1.56446095      -0.76652135      -0.30435524
C        1.16218819       0.68333373       0.10802575
C        0.04624798       0.98749074      -0.89635465
C       -0.87835401      -0.18639270      -0.52164977
C       -1.57990281       0.21012788       0.78893235
C        0.45504209      -0.11392832       1.18926400
C        0.13922969      -1.15435468       0.14942890
H        1.70089493      -0.88562363      -1.37924547
H        2.36104431      -1.21654022       0.28235698
H        1.90554529       1.44136463       0.33764551
H        0.38252322       0.98365467      -1.93463549
H       -0.41760132       1.95682858      -0.70207748
H       -1.45701160      -0.60463118      -1.34236553
H       -2.18136703       1.11784402       0.68952466
H       -2.26850156      -0.58138740       1.09825412
H       -0.77393627       0.29747993       2.03857030
H       -0.16050207      -2.16874469       0.39868105
17
Frame=16 idx=010890 GeodesicLength=0.9733467767836841 rxn_smarts="[C:1]1([H:8])([H:9])[C@@:2]2([H:10])[C:3]([H:11])([H:12])[C@:4]3([H:13])[C:5]([H:14])([H:15])[C@@:6]2([H:16])[C@:7]13[H:17]>>[C:1]1([H:8])([H:9])[C@@:2]2([H:10])[C:3]([H:11])([H:12])[C@@:4]([C:5]([H:14])([H:15])[H:16])([H:13])[C@:7]1([H:17])[C:6]2"
C        1.56580797      -0.76750870      -0.30332442
C        1.16620940       0.68516115       0.10452716
C        0.04744638       0.98860265      -0.89694553
C       -0.87794339      -0.18490218      -0.52085703
C       -1.58049677       0.21021675       0.79174027
C        0.46091273      -0.11310503       1.18337033
C        0.13901312      -1.15437211       0.15007740
H        1.69356631      -0.88680192      -1.37884732
H        2.36448722      -1.21790517       0.27966560
H        1.91107161       1.44184795       0.33314509
H        0.38020351       0.98686841      -1.93613426
H       -0.41474799       1.95799183      -0.69915277
H       -1.45191117      -0.60700247      -1.34225214
H       -2.18716278       1.11365427       0.68398056
H       -2.27441683      -0.58112333       1.08993083
H       -0.78089055       0.29582640       2.05790426
H       -0.16114877      -2.16744848       0.40317197
