16
Frame=0 idx=006161 GeodesicLength=0.0 rxn_smarts="[O:1]([C:2]([C:3]1([H:10])[C:4]([H:11])([H:12])[C:5]([H:13])([H:14])[C:6]1([H:15])[H:16])([H:8])[H:9])[H:7]>>[C:3]1([H:8])([H:10])[C:4]([H:11])([H:12])[C:5]([H:13])([H:14])[C:6]1([H:15])[H:16].[O:1]([C:2][H:9])[H:7]"
O        2.35941572       0.61117970       0.96538521
C        1.65841729      -0.52957289       1.04866669
C        0.32629285      -0.53364370      -0.72777961
C       -1.02895308      -1.03627809      -0.23048937
C       -1.42581294       0.43059777       0.06825066
C       -0.18306351       0.90085783      -0.72548523
H        1.85508821       1.38190867       1.25548668
H        1.34906297      -1.01357609      -0.03940798
H        0.73954703      -0.41598868       1.63667968
H        0.74205470      -0.93471036      -1.65515984
H       -1.01159788      -1.73020764       0.61311418
H       -1.63120016      -1.48519007      -1.02275351
H       -2.39183417       0.75835905      -0.31342996
H       -1.37847355       0.67767197       1.12911619
H        0.45448051       1.66731412      -0.27327602
H       -0.43342392       1.25127842      -1.72891774
16
Frame=1 idx=006161 GeodesicLength=0.10295431464943632 rxn_smarts="[O:1]([C:2]([C:3]1([H:10])[C:4]([H:11])([H:12])[C:5]([H:13])([H:14])[C:6]1([H:15])[H:16])([H:8])[H:9])[H:7]>>[C:3]1([H:8])([H:10])[C:4]([H:11])([H:12])[C:5]([H:13])([H:14])[C:6]1([H:15])[H:16].[O:1]([C:2][H:9])[H:7]"
O        2.41760961       0.57546130       0.93926996
C        1.67432740      -0.53503264       1.05727695
C        0.32558794      -0.52096574      -0.70537941
C       -1.03230086      -1.03803512      -0.22848896
C       -1.46098174       0.42335861       0.04598075
C       -0.19415139       0.91043465      -0.69591674
H        1.93249480       1.37481018       1.17969416
H        1.34625105      -1.04457569      -0.03206602
H        0.76578413      -0.38728308       1.65425933
H        0.73311953      -0.90168478      -1.64523021
H       -1.01956595      -1.71405670       0.62951956
H       -1.61414113      -1.51348823      -1.02041918
H       -2.41159825       0.73239376      -0.38686085
H       -1.46901371       0.67835280       1.10600963
H        0.41328621       1.67308596      -0.19914661
H       -0.40670764       1.28722471      -1.69850236
16
Frame=2 idx=006161 GeodesicLength=0.20273521200906422 rxn_smarts="[O:1]([C:2]([C:3]1([H:10])[C:4]([H:11])([H:12])[C:5]([H:13])([H:14])[C:6]1([H:15])[H:16])([H:8])[H:9])[H:7]>>[C:3]1([H:8])([H:10])[C:4]([H:11])([H:12])[C:5]([H:13])([H:14])[C:6]1([H:15])[H:16].[O:1]([C:2][H:9])[H:7]"
O        2.47199482       0.54116819       0.91234105
C        1.69198584      -0.53959515       1.06462246
C        0.32466513      -0.50838504      -0.68219971
C       -1.03561489      -1.03918132      -0.22534451
C       -1.49503250       0.41643317       0.02236351
C       -0.20500468       0.92016811      -0.66440535
H        2.00377919       1.36452748       1.09827879
H        1.34313381      -1.07439660      -0.02536854
H        0.79533756      -0.36094578       1.67166386
H        0.72375701      -0.86849185      -1.63404558
H       -1.02816687      -1.69612917       0.64733467
H       -1.59651413      -1.54148614      -1.01570049
H       -2.42628746       0.70702894      -0.46247221
H       -1.56057296       0.67870373       1.07862048
H        0.37123691       1.67551524      -0.12220522
H       -0.37869678       1.32506619      -1.66348322
16
Frame=3 idx=006161 GeodesicLength=0.29976761258833534 rxn_smarts="[O:1]([C:2]([C:3]1([H:10])[C:4]([H:11])([H:12])[C:5]([H:13])([H:14])[C:6]1([H:15])[H:16])([H:8])[H:9])[H:7]>>[C:3]1([H:8])([H:10])[C:4]([H:11])([H:12])[C:5]([H:13])([H:14])[C:6]1([H:15])[H:16].[O:1]([C:2][H:9])[H:7]"
O        2.52238255       0.50917133       0.88457905
C        1.71155459      -0.54337395       1.07045351
C        0.32348761      -0.49604296      -0.65833533
C       -1.03895758      -1.03968360      -0.22093307
C       -1.52772136       0.40991848      -0.00272427
C       -0.21557282       0.92992625      -0.63088777
H        2.06808487       1.35108546       1.01183055
H        1.33994103      -1.10302420      -0.01958380
H        0.82822218      -0.33753973       1.68892466
H        0.71373543      -0.83524072      -1.62178296
H       -1.03747017      -1.67621443       0.66671792
H       -1.57854976      -1.56915226      -1.00827394
H       -2.43535688       0.68241050      -0.54022899
H       -1.65284814       0.67891389       1.04644063
H        0.32852259       1.67418751      -0.04269049
H       -0.34945413       1.36465841      -1.62350568
16
Frame=4 idx=006161 GeodesicLength=0.39445950861849394 rxn_smarts="[O:1]([C:2]([C:3]1([H:10])[C:4]([H:11])([H:12])[C:5]([H:13])([H:14])[C:6]1([H:15])[H:16])([H:8])[H:9])[H:7]>>[C:3]1([H:8])([H:10])[C:4]([H:11])([H:12])[C:5]([H:13])([H:14])[C:6]1([H:15])[H:16].[O:1]([C:2][H:9])[H:7]"
O        2.56859491       0.48044224       0.85585193
C        1.73317536      -0.54645618       1.07450528
C        0.32202010      -0.48414443      -0.63392314
C       -1.04243641      -1.03953897      -0.21519014
C       -1.55874159       0.40393018      -0.02935428
C       -0.22582370       0.93953088      -0.59541604
H        2.12460816       1.33470483       0.92155675
H        1.33687661      -1.13054270      -0.01494979
H        0.86441082      -0.31756178       1.70601680
H        0.70282426      -0.80215201      -1.60861900
H       -1.04756282      -1.65416027       0.68771788
H       -1.56062150      -1.59641803      -0.99789190
H       -2.43828342       0.65874284      -0.61988185
H       -1.74522544       0.67919013       1.00900319
H        0.28539288       1.66874433       0.03891639
H       -0.31920823       1.40568896      -1.57834206
16
Frame=5 idx=006161 GeodesicLength=0.4868051573489212 rxn_smarts="[O:1]([C:2]([C:3]1([H:10])[C:4]([H:11])([H:12])[C:5]([H:13])([H:14])[C:6]1([H:15])[H:16])([H:8])[H:9])[H:7]>>[C:3]1([H:8])([H:10])[C:4]([H:11])([H:12])[C:5]([H:13])([H:14])[C:6]1([H:15])[H:16].[O:1]([C:2][H:9])[H:7]"
O        2.61013492       0.45596203       0.82566292
C        1.75682778      -0.54887365       1.07629998
C        0.32031163      -0.47296534      -0.60921811
C       -1.04614590      -1.03872539      -0.20804784
C       -1.58767637       0.39860330      -0.05740748
C       -0.23563211       0.94870934      -0.55824808
H        2.17240389       1.31585873       0.82983923
H        1.33411436      -1.15707971      -0.01184879
H        0.90374152      -0.30149999       1.72269476
H        0.69096981      -0.76961054      -1.59483580
H       -1.05860180      -1.62980523       0.71031991
H       -1.54305968      -1.62319077      -0.98425902
H       -2.43449525       0.63637533      -0.70068011
H       -1.83680122       0.67988191       0.96608377
H        0.24214099       1.65894869       0.12173894
H       -0.28823255       1.44741128      -1.52809427
16
Frame=6 idx=006161 GeodesicLength=0.5773092808616338 rxn_smarts="[O:1]([C:2]([C:3]1([H:10])[C:4]([H:11])([H:12])[C:5]([H:13])([H:14])[C:6]1([H:15])[H:16])([H:8])[H:9])[H:7]>>[C:3]1([H:8])([H:10])[C:4]([H:11])([H:12])[C:5]([H:13])([H:14])[C:6]1([H:15])[H:16].[O:1]([C:2][H:9])[H:7]"
O        2.64720689       0.43620881       0.79384994
C        1.78239457      -0.55065751       1.07579906
C        0.31832581      -0.46270424      -0.58436864
C       -1.05023871      -1.03732482      -0.19964585
C       -1.61419126       0.39397568      -0.08678637
C       -0.24505523       0.95725354      -0.51968852
H        2.21141986       1.29528757       0.73833041
H        1.33163687      -1.18285818      -0.01023048
H        0.94595809      -0.28926159       1.73888802
H        0.67804354      -0.73787800      -1.58053440
H       -1.07067216      -1.60326880       0.73424412
H       -1.52643606      -1.64924884      -0.96751169
H       -2.42379071       0.61536758      -0.78192340
H       -1.92646904       0.68106056       0.91757348
H        0.19888189       1.64471790       0.20498110
H       -0.25701436       1.48933034      -1.47297679
16
Frame=7 idx=006161 GeodesicLength=0.6661497928072584 rxn_smarts="[O:1]([C:2]([C:3]1([H:10])[C:4]([H:11])([H:12])[C:5]([H:13])([H:14])[C:6]1([H:15])[H:16])([H:8])[H:9])[H:7]>>[C:3]1([H:8])([H:10])[C:4]([H:11])([H:12])[C:5]([H:13])([H:14])[C:6]1([H:15])[H:16].[O:1]([C:2][H:9])[H:7]"
O        2.67989861       0.42123256       0.76015112
C        1.80950563      -0.55173243       1.07296400
C        0.31609546      -0.45351219      -0.55952335
C       -1.05479724      -1.03538476      -0.19018469
C       -1.63797531       0.39004685      -0.11723150
C       -0.25413699       0.96493011      -0.48008310
H        2.24187637       1.27373567       0.64867830
H        1.32931299      -1.20805971      -0.00999414
H        0.99065250      -0.28038547       1.75440076
H        0.66415795      -0.70719536      -1.56579026
H       -1.08386452      -1.57469773       0.75905868
H       -1.51108815      -1.67434246      -0.94791679
H       -2.40607410       0.59582385      -0.86261378
H       -2.01310975       0.68277685       0.86366992
H        0.15562594       1.62606956       0.28779050
H       -0.22607940       1.53069466      -1.41337567
16
Frame=8 idx=006161 GeodesicLength=0.7536345335106901 rxn_smarts="[O:1]([C:2]([C:3]1([H:10])[C:4]([H:11])([H:12])[C:5]([H:13])([H:14])[C:6]1([H:15])[H:16])([H:8])[H:9])[H:7]>>[C:3]1([H:8])([H:10])[C:4]([H:11])([H:12])[C:5]([H:13])([H:14])[C:6]1([H:15])[H:16].[O:1]([C:2][H:9])[H:7]"
O        2.70854113       0.41071833       0.72455428
C        1.83771729      -0.55197570       1.06800084
C        0.31368969      -0.44548482      -0.53476434
C       -1.05991498      -1.03302897      -0.17998047
C       -1.65887119       0.38678089      -0.14839420
C       -0.26296969       0.97160429      -0.43979304
H        2.26450937       1.25187884       0.56180619
H        1.32700015      -1.23287868      -0.01080820
H        1.03733451      -0.27406492       1.76911009
H        0.64961362      -0.67773832      -1.55058513
H       -1.09829762      -1.54451493       0.78415920
H       -1.49733093      -1.69823053      -0.92602493
H       -2.38161873       0.57783479      -0.94167020
H       -2.09572541       0.68497508       0.80485807
H        0.11230113       1.60322713       0.36935486
H       -0.19597834       1.57089753      -1.34982302
16
Frame=9 idx=006161 GeodesicLength=0.8399597083575062 rxn_smarts="[O:1]([C:2]([C:3]1([H:10])[C:4]([H:11])([H:12])[C:5]([H:13])([H:14])[C:6]1([H:15])[H:16])([H:8])[H:9])[H:7]>>[C:3]1([H:8])([H:10])[C:4]([H:11])([H:12])[C:5]([H:13])([H:14])[C:6]1([H:15])[H:16].[O:1]([C:2][H:9])[H:7]"
O        2.73339549       0.40415896       0.68735516
C        1.86644552      -0.55117250       1.06131100
C        0.31119493      -0.43865637      -0.51014560
C       -1.06562033      -1.03039316      -0.16944239
C       -1.67675361       0.38411873      -0.17979904
C       -0.27163494       0.97718513      -0.39920801
H        2.28022214       1.23008009       0.47793976
H        1.32454197      -1.25741657      -0.01221700
H        1.08540623      -0.26926797       1.78295721
H        0.63482374      -0.64961464      -1.53488363
H       -1.11405122      -1.51337046       0.80881528
H       -1.48532346      -1.72064324      -0.90263526
H       -2.35092595       0.56153594      -1.01788350
H       -2.17329673       0.68756327       0.74199797
H        0.06882351       1.57654037       0.44888535
H       -0.16724728       1.60935241      -1.28304730
16
Frame=10 idx=006161 GeodesicLength=0.9253904037913059 rxn_smarts="[O:1]([C:2]([C:3]1([H:10])[C:4]([H:11])([H:12])[C:5]([H:13])([H:14])[C:6]1([H:15])[H:16])([H:8])[H:9])[H:7]>>[C:3]1([H:8])([H:10])[C:4]([H:11])([H:12])[C:5]([H:13])([H:14])[C:6]1([H:15])[H:16].[O:1]([C:2][H:9])[H:7]"
O        2.75485351       0.40101575       0.64884674
C        1.89525310      -0.54911131       1.05333071
C        0.30866032      -0.43302589      -0.48563911
C       -1.07192817      -1.02759846      -0.15897576
C       -1.69162745       0.38200472      -0.21103877
C       -0.28021210       0.98161385      -0.35859196
H        2.28997985       1.20849298       0.39689461
H        1.32179527      -1.28175686      -0.01369547
H        1.13437872      -0.26495362       1.79593656
H        0.62013136      -0.62288701      -1.51855641
H       -1.13113950      -1.48185202       0.83233294
H       -1.47522295      -1.74134013      -0.87858900
H       -2.31466911       0.54697095      -1.09035494
H       -2.24512843       0.69039283       0.67594436
H        0.02518585       1.54638351       0.52577760
H       -0.14031025       1.64565071      -1.21362212
16
Frame=11 idx=006161 GeodesicLength=1.0101202204666224 rxn_smarts="[O:1]([C:2]([C:3]1([H:10])[C:4]([H:11])([H:12])[C:5]([H:13])([H:14])[C:6]1([H:15])[H:16])([H:8])[H:9])[H:7]>>[C:3]1([H:8])([H:10])[C:4]([H:11])([H:12])[C:5]([H:13])([H:14])[C:6]1([H:15])[H:16].[O:1]([C:2][H:9])[H:7]"
O        2.77317749       0.40080664       0.60940209
C        1.92374149      -0.54556758       1.04450515
C        0.30614235      -0.42857498      -0.46121152
C       -1.07881174      -1.02476268      -0.14895579
C       -1.70355753       0.38040101      -0.24170497
C       -0.28873306       0.98487273      -0.31817051
H        2.29464789       1.18699434       0.31818330
H        1.31868690      -1.30593266      -0.01475136
H        1.18380720      -0.26015979       1.80807670
H        0.60588759      -0.59758953      -1.50151807
H       -1.14956359      -1.45061356       0.85411190
H       -1.46703980      -1.76016800      -0.85471851
H       -2.27361375       0.53425446      -1.15831268
H       -2.31073913       0.69338374       0.60766340
H       -0.01859831       1.51317928       0.59956199
H       -0.11543401       1.67947659      -1.14216114
16
Frame=12 idx=006161 GeodesicLength=1.0943555785525219 rxn_smarts="[O:1]([C:2]([C:3]1([H:10])[C:4]([H:11])([H:12])[C:5]([H:13])([H:14])[C:6]1([H:15])[H:16])([H:8])[H:9])[H:7]>>[C:3]1([H:8])([H:10])[C:4]([H:11])([H:12])[C:5]([H:13])([H:14])[C:6]1([H:15])[H:16].[O:1]([C:2][H:9])[H:7]"
O        2.78860238       0.40317931       0.56930966
C        1.95167225      -0.54035207       1.03519327
C        0.30367143      -0.42529391      -0.43681371
C       -1.08624027      -1.02199564      -0.13968098
C       -1.71268266       0.37929997      -0.27149044
C       -0.29720060       0.98696889      -0.27807507
H        2.29493786       1.16534388       0.24129613
H        1.31520527      -1.32998442      -0.01496675
H        1.23339557      -0.25410318       1.81940874
H        0.59233708      -0.57376049      -1.48370496
H       -1.16929909      -1.42022253       0.87372205
H       -1.46075179      -1.77709036      -0.83173291
H       -2.22853771       0.52347451      -1.22129525
H       -2.36992383       0.69654767       0.53800787
H       -0.06248904       1.47734101       0.66996528
H       -0.09269687       1.71064736      -1.06914292
16
Frame=13 idx=006161 GeodesicLength=1.1782361470805585 rxn_smarts="[O:1]([C:2]([C:3]1([H:10])[C:4]([H:11])([H:12])[C:5]([H:13])([H:14])[C:6]1([H:15])[H:16])([H:8])[H:9])[H:7]>>[C:3]1([H:8])([H:10])[C:4]([H:11])([H:12])[C:5]([H:13])([H:14])[C:6]1([H:15])[H:16].[O:1]([C:2][H:9])[H:7]"
O        2.80128448       0.40787347       0.52866155
C        1.97893859      -0.53334551       1.02560838
C        0.30125574      -0.42318469      -0.41239761
C       -1.09417236      -1.01937939      -0.13134223
C       -1.71917120       0.37871991      -0.30020023
C       -0.30558933       0.98791430      -0.23838682
H        2.29134314       1.14334943       0.16599905
H        1.31136782      -1.35397209      -0.01402259
H        1.28298426      -0.24624253       1.82992325
H        0.57960649      -0.55144667      -1.46508435
H       -1.19028475      -1.39108303       0.89093653
H       -1.45632212      -1.79214132      -0.81014296
H       -2.18014079       0.51464974      -1.27912337
H       -2.42266478       0.69995956       0.46767523
H       -0.10642869       1.43925309       0.73682288
H       -0.07200648       1.73907572      -0.99492670
16
Frame=14 idx=006161 GeodesicLength=1.2619323478784423 rxn_smarts="[O:1]([C:2]([C:3]1([H:10])[C:4]([H:11])([H:12])[C:5]([H:13])([H:14])[C:6]1([H:15])[H:16])([H:8])[H:9])[H:7]>>[C:3]1([H:8])([H:10])[C:4]([H:11])([H:12])[C:5]([H:13])([H:14])[C:6]1([H:15])[H:16].[O:1]([C:2][H:9])[H:7]"
O        2.81133387       0.41473113       0.48751064
C        2.00552651      -0.52443084       1.01587591
C        0.29889184      -0.42226362      -0.38791483
C       -1.10258772      -1.01697542      -0.12407104
C       -1.72319798       0.37867627      -0.32771204
C       -0.31386003       0.98771651      -0.19910042
H        2.28418738       1.12080076       0.09202154
H        1.30724139      -1.37794726      -0.01167554
H        1.33252150      -0.23614578       1.83959868
H        0.56776352      -0.53070724      -1.44564936
H       -1.21250448      -1.36349388       0.90563501
H       -1.45369131      -1.80542671      -0.79031573
H       -2.12898336       0.50782472      -1.33178450
H       -2.46914469       0.70375888       0.39716608
H       -0.15032412       1.39917785       0.80014658
H       -0.05317232       1.76470462      -0.91973099
16
Frame=15 idx=006161 GeodesicLength=1.3455326872902829 rxn_smarts="[O:1]([C:2]([C:3]1([H:10])[C:4]([H:11])([H:12])[C:5]([H:13])([H:14])[C:6]1([H:15])[H:16])([H:8])[H:9])[H:7]>>[C:3]1([H:8])([H:10])[C:4]([H:11])([H:12])[C:5]([H:13])([H:14])[C:6]1([H:15])[H:16].[O:1]([C:2][H:9])[H:7]"
O        2.81873012       0.42366385       0.44581435
C        2.03143588      -0.51352993       1.00601543
C        0.29656061      -0.42255755      -0.36332775
C       -1.11144161      -1.01481477      -0.11793355
C       -1.72490306       0.37919697      -0.35396066
C       -0.32196027       0.98636627      -0.16020540
H        2.27361924       1.09756136       0.01930977
H        1.30288181      -1.40196241      -0.00773987
H        1.38198622      -0.22355088       1.84836176
H        0.55679491      -0.51160537      -1.42541265
H       -1.23588699      -1.33763411       0.91780709
H       -1.45277332      -1.81704888      -0.77248367
H       -2.07551971       0.50299013      -1.37938120
H       -2.50953265       0.70812413       0.32688311
H       -0.19408706       1.35733222       0.85996851
H       -0.03590414       1.78746898      -0.84371528
16
Frame=16 idx=006161 GeodesicLength=1.4291647602705735 rxn_smarts="[O:1]([C:2]([C:3]1([H:10])[C:4]([H:11])([H:12])[C:5]([H:13])([H:14])[C:6]1([H:15])[H:16])([H:8])[H:9])[H:7]>>[C:3]1([H:8])([H:10])[C:4]([H:11])([H:12])[C:5]([H:13])([H:14])[C:6]1([H:15])[H:16].[O:1]([C:2][H:9])[H:7]"
O        2.82346617       0.43459910       0.40347584
C        2.05673847      -0.50060824       0.99596972
C        0.29424503      -0.42411112      -0.33861653
C       -1.12071207      -1.01292196      -0.11295666
C       -1.72444817       0.38031739      -0.37892940
C       -0.32984398       0.98386810      -0.12168961
H        2.25973092       1.07363804      -0.05194655
H        1.29837374      -1.42611132      -0.00209301
H        1.43142602      -0.20830537       1.85610840
H        0.54665284      -0.49424954      -1.40441574
H       -1.26038097      -1.31357674       0.92750862
H       -1.45351522      -1.82715526      -0.75678258
H       -2.02015897       0.50008823      -1.42210011
H       -2.54408537       0.71325083       0.25712417
H       -0.23761105       1.31396184       0.91634097
H       -0.01987740       1.80731602      -0.76699751
