10
Frame=0 idx=000143 GeodesicLength=0.0 rxn_smarts="[O:1]=[C:2]1[C:3]([H:7])([H:8])[C@@:4]2([H:9])[O:5][C@@:6]12[H:10]>>[O:1]=[C:2]=[C:6]([O:5][C:4](=[C:3]([H:7])[H:8])[H:9])[H:10]"
O       -0.15668480       2.00890565       0.76245208
C        0.12970075       1.04734004       0.12581803
C       -1.18288193      -0.34108288      -0.01233116
C       -0.00024735      -1.02728416       0.17018249
O        0.84618200      -0.90744112      -0.89571784
C        1.19935018       0.36706003      -0.42556652
H       -1.55750848      -0.23063840      -1.02248473
H       -1.88215478      -0.23020430       0.80508387
H        0.40349090      -1.41806622       1.09657259
H        2.20075350       0.73141136      -0.60400881
10
Frame=1 idx=000143 GeodesicLength=0.06718693622806611 rxn_smarts="[O:1]=[C:2]1[C:3]([H:7])([H:8])[C@@:4]2([H:9])[O:5][C@@:6]12[H:10]>>[O:1]=[C:2]=[C:6]([O:5][C:4](=[C:3]([H:7])[H:8])[H:9])[H:10]"
O       -0.15182730       2.04556440       0.72756777
C        0.13212900       1.06706120       0.11770618
C       -1.18867537      -0.34641008      -0.00585281
C        0.00314512      -1.02609701       0.15926370
O        0.83529054      -0.88962543      -0.91739977
C        1.20183885       0.36835246      -0.41530449
H       -1.58366658      -0.24507700      -1.00936031
H       -1.87969625      -0.25123731       0.82084750
H        0.41334808      -1.43081604       1.07662729
H        2.21811391       0.70828482      -0.55409507
10
Frame=2 idx=000143 GeodesicLength=0.13423199159893756 rxn_smarts="[O:1]=[C:2]1[C:3]([H:7])([H:8])[C@@:4]2([H:9])[O:5][C@@:6]12[H:10]>>[O:1]=[C:2]=[C:6]([O:5][C:4](=[C:3]([H:7])[H:8])[H:9])[H:10]"
O       -0.14560886       2.08193111       0.69294690
C        0.13504486       1.08718250       0.10979659
C       -1.19424045      -0.35160573       0.00038374
C        0.00637313      -1.02485147       0.14839558
O        0.82505089      -0.87108558      -0.93780849
C        1.20429106       0.36964388      -0.40420724
H       -1.60908051      -0.26008641      -0.99623825
H       -1.87710924      -0.27250855       0.83585795
H        0.42241643      -1.44380907       1.05655005
H        2.23286271       0.68518932      -0.50567682
10
Frame=3 idx=000143 GeodesicLength=0.20113368743961332 rxn_smarts="[O:1]=[C:2]1[C:3]([H:7])([H:8])[C@@:4]2([H:9])[O:5][C@@:6]12[H:10]>>[O:1]=[C:2]=[C:6]([O:5][C:4](=[C:3]([H:7])[H:8])[H:9])[H:10]"
O       -0.13791541       2.11793807       0.65868728
C        0.13844490       1.10772370       0.10208238
C       -1.19963143      -0.35668939       0.00637363
C        0.00941981      -1.02352287       0.13763553
O        0.81541949      -0.85190829      -0.95694619
C        1.20658762       0.37095302      -0.39240828
H       -1.63377898      -0.27573125      -0.98314363
H       -1.87447590      -0.29407338       0.85008120
H        0.43073636      -1.45692430       1.03639901
H        2.24519354       0.66223468      -0.45876094
10
Frame=4 idx=000143 GeodesicLength=0.26794222122189604 rxn_smarts="[O:1]=[C:2]1[C:3]([H:7])([H:8])[C@@:4]2([H:9])[O:5][C@@:6]12[H:10]>>[O:1]=[C:2]=[C:6]([O:5][C:4](=[C:3]([H:7])[H:8])[H:9])[H:10]"
O       -0.12875514       2.15377608       0.62458070
C        0.14235651       1.12866433       0.09465958
C       -1.20488842      -0.36168728       0.01215984
C        0.01227827      -1.02213047       0.12697051
O        0.80632582      -0.83211498      -0.97489653
C        1.20864922       0.37229215      -0.37997620
H       -1.65781748      -0.29200752      -0.97001953
H       -1.87180920      -0.31603443       0.86358125
H        0.43837945      -1.47019872       1.01610589
H        2.25528095       0.63944084      -0.41316551
10
Frame=5 idx=000143 GeodesicLength=0.33464699571107215 rxn_smarts="[O:1]=[C:2]1[C:3]([H:7])([H:8])[C@@:4]2([H:9])[O:5][C@@:6]12[H:10]>>[O:1]=[C:2]=[C:6]([O:5][C:4](=[C:3]([H:7])[H:8])[H:9])[H:10]"
O       -0.11801676       2.18933053       0.59062486
C        0.14678478       1.15000778       0.08762964
C       -1.21007539      -0.36663003       0.01773486
C        0.01492503      -1.02066219       0.11645962
O        0.79772800      -0.81177011      -0.99163639
C        1.21037925       0.37367149      -0.36694355
H       -1.68120087      -0.30891502      -0.95689826
H       -1.86921896      -0.33846060       0.87631522
H        0.44536059      -1.48354480       0.99574031
H        2.26333432       0.61697294      -0.36902631
10
Frame=6 idx=000143 GeodesicLength=0.40129339030090727 rxn_smarts="[O:1]=[C:2]1[C:3]([H:7])([H:8])[C@@:4]2([H:9])[O:5][C@@:6]12[H:10]>>[O:1]=[C:2]=[C:6]([O:5][C:4](=[C:3]([H:7])[H:8])[H:9])[H:10]"
O       -0.10570767       2.22485268       0.55664671
C        0.15174538       1.17174343       0.08104569
C       -1.21522566      -0.37154604       0.02314082
C        0.01735783      -1.01913246       0.10607840
O        0.78954601      -0.79087887      -1.00726344
C        1.21172364       0.37510618      -0.35339073
H       -1.70397829      -0.32648692      -0.94371346
H       -1.86668085      -0.36144699       0.88834521
H        0.45175857      -1.49699459       0.97521016
H        2.26946105       0.59478358      -0.32609936
10
Frame=7 idx=000143 GeodesicLength=0.4678781906546205 rxn_smarts="[O:1]=[C:2]1[C:3]([H:7])([H:8])[C@@:4]2([H:9])[O:5][C@@:6]12[H:10]>>[O:1]=[C:2]=[C:6]([O:5][C:4](=[C:3]([H:7])[H:8])[H:9])[H:10]"
O       -0.09171121       2.26022384       0.52261882
C        0.15724260       1.19388592       0.07499892
C       -1.22039947      -0.37647127       0.02838003
C        0.01956073      -1.01751992       0.09587321
O        0.78172922      -0.76947984      -1.02176765
C        1.21260667       0.37661624      -0.33933795
H       -1.72616254      -0.34472068      -0.93050109
H       -1.86428760      -0.38507216       0.89963891
H        0.45760634      -1.51044918       0.95457250
H        2.27381528       0.57298707      -0.28447570
10
Frame=8 idx=000143 GeodesicLength=0.5344242734718163 rxn_smarts="[O:1]=[C:2]1[C:3]([H:7])([H:8])[C@@:4]2([H:9])[O:5][C@@:6]12[H:10]>>[O:1]=[C:2]=[C:6]([O:5][C:4](=[C:3]([H:7])[H:8])[H:9])[H:10]"
O       -0.07604482       2.29567524       0.48840241
C        0.16328478       1.21643330       0.06957367
C       -1.22563341      -0.38144251       0.03348314
C        0.02151416      -1.01583965       0.08583274
O        0.77419160      -0.74757904      -1.03520940
C        1.21298829       0.37820347      -0.32482741
H       -1.74776714      -0.36365444      -0.91721214
H       -1.86200561      -0.40941677       0.91022553
H        0.46294259      -1.52394016       0.93375401
H        2.27652957       0.55156057      -0.24402255
10
Frame=9 idx=000143 GeodesicLength=0.6009512603765083 rxn_smarts="[O:1]=[C:2]1[C:3]([H:7])([H:8])[C@@:4]2([H:9])[O:5][C@@:6]12[H:10]>>[O:1]=[C:2]=[C:6]([O:5][C:4](=[C:3]([H:7])[H:8])[H:9])[H:10]"
O       -0.05838001       2.33083509       0.45415509
C        0.16988418       1.23941156       0.06470625
C       -1.23102733      -0.38653167       0.03841609
C        0.02321674      -1.01402497       0.07604249
O        0.76689623      -0.72521014      -1.04753723
C        1.21278591       0.37991539      -0.30983482
H       -1.76884316      -0.38331067      -0.90397333
H       -1.86000644      -0.43454796       0.92003159
H        0.46785202      -1.53723635       0.91292984
H        2.27762186       0.53069971      -0.20493596
10
Frame=10 idx=000143 GeodesicLength=0.6674451783830042 rxn_smarts="[O:1]=[C:2]1[C:3]([H:7])([H:8])[C@@:4]2([H:9])[O:5][C@@:6]12[H:10]>>[O:1]=[C:2]=[C:6]([O:5][C:4](=[C:3]([H:7])[H:8])[H:9])[H:10]"
O       -0.03890149       2.36611746       0.41956223
C        0.17703689       1.26281744       0.06060426
C       -1.23657815      -0.39175199       0.04324475
C        0.02465847      -1.01212332       0.06645284
O        0.75974344      -0.70235946      -1.05885142
C        1.21198993       0.38174777      -0.29441759
H       -1.78937661      -0.40369382      -0.89067188
H       -1.85818064      -0.46054502       0.92912590
H        0.47234665      -1.55047670       0.89192792
H        2.27726151       0.51026764      -0.16697701
10
Frame=11 idx=000143 GeodesicLength=0.7338876310396311 rxn_smarts="[O:1]=[C:2]1[C:3]([H:7])([H:8])[C@@:4]2([H:9])[O:5][C@@:6]12[H:10]>>[O:1]=[C:2]=[C:6]([O:5][C:4](=[C:3]([H:7])[H:8])[H:9])[H:10]"
O       -0.01746528       2.40127592       0.38472614
C        0.18474906       1.28669893       0.05723598
C       -1.24234067      -0.39713999       0.04795847
C        0.02584505      -1.01007331       0.05711563
O        0.75267610      -0.67905408      -1.06915574
C        1.21054499       0.38375364      -0.27864753
H       -1.80939085      -0.42485496      -0.87735887
H       -1.85659660      -0.48743846       0.93746881
H        0.47648298      -1.56348043       0.87084387
H        2.27549522       0.49031273      -0.13018676
10
Frame=12 idx=000143 GeodesicLength=0.8002801896423808 rxn_smarts="[O:1]=[C:2]1[C:3]([H:7])([H:8])[C@@:4]2([H:9])[O:5][C@@:6]12[H:10]>>[O:1]=[C:2]=[C:6]([O:5][C:4](=[C:3]([H:7])[H:8])[H:9])[H:10]"
O        0.00597092       2.43640345       0.34950154
C        0.19303233       1.31105960       0.05469249
C       -1.24835500      -0.40275102       0.05258107
C        0.02676915      -1.00788165       0.04802531
O        0.74561925      -0.65526698      -1.07847865
C        1.20841525       0.38594697      -0.26251148
H       -1.82889945      -0.44680831      -0.86402516
H       -1.85523896      -0.51528423       0.94508183
H        0.48030701      -1.57625164       0.84963540
H        2.27237950       0.47083380      -0.09450235
10
Frame=13 idx=000143 GeodesicLength=0.8665982834239383 rxn_smarts="[O:1]=[C:2]1[C:3]([H:7])([H:8])[C@@:4]2([H:9])[O:5][C@@:6]12[H:10]>>[O:1]=[C:2]=[C:6]([O:5][C:4](=[C:3]([H:7])[H:8])[H:9])[H:10]"
O        0.03152986       2.47117334       0.31425608
C        0.20187619       1.33598184       0.05276961
C       -1.25467593      -0.40861745       0.05707903
C        0.02742712      -1.00547678       0.03926790
O        0.73851318      -0.63109060      -1.08681031
C        1.20555802       0.38837173      -0.24612599
H       -1.84789684      -0.46965958      -0.85075911
H       -1.85417277      -0.54404437       0.95189254
H        0.48384868      -1.58854228       0.82848695
H        2.26799248       0.45190415      -0.06005670
10
Frame=14 idx=000143 GeodesicLength=0.9328461939995064 rxn_smarts="[O:1]=[C:2]1[C:3]([H:7])([H:8])[C@@:4]2([H:9])[O:5][C@@:6]12[H:10]>>[O:1]=[C:2]=[C:6]([O:5][C:4](=[C:3]([H:7])[H:8])[H:9])[H:10]"
O        0.05922618       2.50570847       0.27878382
C        0.21130685       1.36146608       0.05156754
C       -1.26134046      -0.41480047       0.06148713
C        0.02780528      -1.00287029       0.03082597
O        0.73128047      -0.60647528      -1.09417894
C        1.20194081       0.39103885      -0.22945315
H       -1.86639173      -0.49340565      -0.83754414
H       -1.85334914      -0.57376409       0.95794498
H        0.48715577      -1.60040912       0.80731996
H        2.26236599       0.43351148      -0.02675319
10
Frame=15 idx=000143 GeodesicLength=0.9990166375133435 rxn_smarts="[O:1]=[C:2]1[C:3]([H:7])([H:8])[C@@:4]2([H:9])[O:5][C@@:6]12[H:10]>>[O:1]=[C:2]=[C:6]([O:5][C:4](=[C:3]([H:7])[H:8])[H:9])[H:10]"
O        0.08918916       2.53975941       0.24353720
C        0.22130677       1.38759034       0.05077278
C       -1.26840335      -0.42134782       0.06576221
C        0.02789689      -1.00001132       0.02277662
O        0.72386623      -0.58153413      -1.10058344
C        1.19751789       0.39399084      -0.21260992
H       -1.88438039      -0.51818690      -0.82446453
H       -1.85280140      -0.60436195       0.96319066
H        0.49025908      -1.61163371       0.78631685
H        2.25554911       0.41573524       0.00530157
10
Frame=16 idx=000143 GeodesicLength=1.0651113406773274 rxn_smarts="[O:1]=[C:2]1[C:3]([H:7])([H:8])[C@@:4]2([H:9])[O:5][C@@:6]12[H:10]>>[O:1]=[C:2]=[C:6]([O:5][C:4](=[C:3]([H:7])[H:8])[H:9])[H:10]"
O        0.12143911       2.57332462       0.20842683
C        0.23190673       1.41437612       0.05038980
C       -1.27589960      -0.42831970       0.06992752
C        0.02768923      -0.99689646       0.01511617
O        0.71619596      -0.55624199      -1.10605020
C        1.19225243       0.39725410      -0.19558043
H       -1.90186743      -0.54401069      -0.81152351
H       -1.85248110      -0.63584196       0.96767283
H        0.49319920      -1.62222921       0.76543774
H        2.24756548       0.39858517       0.03618325
