15
Frame=0 idx=008490 GeodesicLength=0.0 rxn_smarts="[C:1]([O:2][C:3](=[O:4])[C:5]([C:6]([O:7][H:15])([H:13])[H:14])([H:11])[H:12])([H:8])([H:9])[H:10]>>[C:1]([O:2][H:12])([H:8])([H:9])[H:10].[C:3](=[O:4])=[C:5]([C:6]([O:7][H:15])([H:13])[H:14])[H:11]"
C       -2.56955937      -0.46957735      -0.02713029
O       -1.54830692       0.27764019       0.61716909
C       -0.35758926       0.77318197      -0.41908606
O       -0.67109434       1.01004302      -1.52430664
C        0.70345940       0.45230746       0.44017958
C        2.07431623       0.22852230      -0.11921238
O        2.52644857      -1.05143045       0.30431314
H       -2.18989545      -1.43462015      -0.37549000
H       -3.37582756      -0.62624802       0.68759852
H       -2.93643978       0.09839544      -0.88279643
H        0.62395804       0.90447520       1.42559518
H       -0.51158799      -0.28514369       0.85363376
H        2.03170994       0.28292560      -1.21369420
H        2.76900650       1.00423609       0.22544804
H        3.43140204      -1.16470757       0.00777870
15
Frame=1 idx=008490 GeodesicLength=0.07260150297839334 rxn_smarts="[C:1]([O:2][C:3](=[O:4])[C:5]([C:6]([O:7][H:15])([H:13])[H:14])([H:11])[H:12])([H:8])([H:9])[H:10]>>[C:1]([O:2][H:12])([H:8])([H:9])[H:10].[C:3](=[O:4])=[C:5]([C:6]([O:7][H:15])([H:13])[H:14])[H:11]"
C       -2.59029013      -0.45968722      -0.02926126
O       -1.55056141       0.25599156       0.62076041
C       -0.35197730       0.76568807      -0.41955906
O       -0.66498708       1.00018933      -1.52585788
C        0.70927419       0.43685962       0.43738746
C        2.08074760       0.22506309      -0.12598899
O        2.55933684      -1.03305017       0.33168945
H       -2.22517781      -1.41227735      -0.42403878
H       -3.38404575      -0.63758217       0.69467099
H       -2.97081843       0.14357362      -0.85430572
H        0.63383352       0.89559261       1.42023036
H       -0.50747393      -0.31727357       0.86270456
H        2.03422590       0.24698266      -1.22133628
H        2.76060791       1.02468217       0.19261212
H        3.46730589      -1.13475227       0.04029261
15
Frame=2 idx=008490 GeodesicLength=0.14501719103820523 rxn_smarts="[C:1]([O:2][C:3](=[O:4])[C:5]([C:6]([O:7][H:15])([H:13])[H:14])([H:11])[H:12])([H:8])([H:9])[H:10]>>[C:1]([O:2][H:12])([H:8])([H:9])[H:10].[C:3](=[O:4])=[C:5]([C:6]([O:7][H:15])([H:13])[H:14])[H:11]"
C       -2.61057513      -0.44977732      -0.03130042
O       -1.55295677       0.23394896       0.62379541
C       -0.34623403       0.75842425      -0.42020701
O       -0.65857056       0.98955695      -1.52785461
C        0.71499644       0.42162104       0.43466706
C        2.08700786       0.22130767      -0.13248996
O        2.59130218      -1.01376387       0.35836810
H       -2.26041386      -1.38792280      -0.47134909
H       -3.39235976      -0.64936450       0.70019448
H       -3.00319006       0.18765614      -0.82441314
H        0.64348302       0.88708233       1.41479439
H       -0.50331345      -0.34943836       0.87218905
H        2.03732804       0.21106729      -1.22777468
H        2.75158878       1.04346915       0.15990307
H        3.50190730      -1.10386692       0.07147733
15
Frame=3 idx=008490 GeodesicLength=0.2169990846512212 rxn_smarts="[C:1]([O:2][C:3](=[O:4])[C:5]([C:6]([O:7][H:15])([H:13])[H:14])([H:11])[H:12])([H:8])([H:9])[H:10]>>[C:1]([O:2][H:12])([H:8])([H:9])[H:10].[C:3](=[O:4])=[C:5]([C:6]([O:7][H:15])([H:13])[H:14])[H:11]"
C       -2.63018730      -0.44004348      -0.03324391
O       -1.55553273       0.21178679       0.62616915
C       -0.34039477       0.75158486      -0.42107790
O       -0.65187241       0.97810200      -1.53035731
C        0.72057897       0.40695492       0.43203144
C        2.09305831       0.21738791      -0.13858471
O        2.62175529      -0.99399385       0.38388482
H       -2.29500882      -1.36192952      -0.51691236
H       -3.40061921      -0.66153988       0.70416433
H       -3.03346813       0.22993436      -0.79352897
H        0.65284017       0.87940827       1.40921679
H       -0.49909316      -0.38114132       0.88232575
H        2.04112887       0.17603206      -1.23292521
H        2.74225991       1.06030816       0.12805462
H        3.53455501      -1.07285128       0.10078347
15
Frame=4 idx=008490 GeodesicLength=0.28882575987824455 rxn_smarts="[C:1]([O:2][C:3](=[O:4])[C:5]([C:6]([O:7][H:15])([H:13])[H:14])([H:11])[H:12])([H:8])([H:9])[H:10]>>[C:1]([O:2][H:12])([H:8])([H:9])[H:10].[C:3](=[O:4])=[C:5]([C:6]([O:7][H:15])([H:13])[H:14])[H:11]"
C       -2.64932978      -0.43037637      -0.03512143
O       -1.55824855       0.18927097       0.62794482
C       -0.33443975       0.74504393      -0.42216106
O       -0.64490623       0.96597868      -1.53330369
C        0.72605615       0.39264366       0.42946431
C        2.09895600       0.21326090      -0.14438315
O        2.65113014      -0.97352944       0.40866325
H       -2.32931350      -1.33413350      -0.56120673
H       -3.40895505      -0.67415781       0.70666367
H       -3.06193787       0.27091294      -0.76144316
H        0.66196969       0.87229972       1.40353712
H       -0.49479476      -0.41269917       0.89306961
H        2.04550406       0.14129956      -1.23696744
H        2.73255509       1.07556006       0.09653856
H        3.56575438      -1.04137413       0.12870531
15
Frame=5 idx=008490 GeodesicLength=0.36069304950944764 rxn_smarts="[C:1]([O:2][C:3](=[O:4])[C:5]([C:6]([O:7][H:15])([H:13])[H:14])([H:11])[H:12])([H:8])([H:9])[H:10]>>[C:1]([O:2][H:12])([H:8])([H:9])[H:10].[C:3](=[O:4])=[C:5]([C:6]([O:7][H:15])([H:13])[H:14])[H:11]"
C       -2.66815663      -0.42064674      -0.03691341
O       -1.56108136       0.16621930       0.62911006
C       -0.32836515       0.73864706      -0.42353086
O       -0.63767857       0.95311204      -1.53676178
C        0.73142525       0.37848505       0.42691431
C        2.10476607       0.20891806      -0.14995388
O        2.67971808      -0.95232768       0.43279339
H       -2.36362159      -1.30440588      -0.60444003
H       -3.41747556      -0.68708543       0.70782190
H       -3.08882875       0.31092943      -0.72797644
H        0.67081980       0.86551464       1.39775103
H       -0.49040459      -0.44439486       0.90434946
H        2.05050112       0.10671562      -1.24002944
H        2.72242991       1.08941398       0.06518957
H        3.59595198      -1.00909457       0.15567612
15
Frame=6 idx=008490 GeodesicLength=0.4322536538182609 rxn_smarts="[C:1]([O:2][C:3](=[O:4])[C:5]([C:6]([O:7][H:15])([H:13])[H:14])([H:11])[H:12])([H:8])([H:9])[H:10]>>[C:1]([O:2][H:12])([H:8])([H:9])[H:10].[C:3](=[O:4])=[C:5]([C:6]([O:7][H:15])([H:13])[H:14])[H:11]"
C       -2.68680848      -0.41065516      -0.03862981
O       -1.56386125       0.14226744       0.62954606
C       -0.32213487       0.73209376      -0.42519664
O       -0.63023892       0.93931860      -1.54057394
C        0.73674382       0.36419854       0.42427524
C        2.11049300       0.20429080      -0.15535286
O        2.70778692      -0.93002379       0.45651832
H       -2.39850026      -1.27228049      -0.64694428
H       -3.42617492      -0.70023007       0.70757821
H       -3.11425494       0.35043382      -0.69264804
H        0.67951094       0.85864598       1.39170031
H       -0.48580353      -0.47660318       0.91586478
H        2.05598943       0.07182969      -1.24204412
H        2.71175585       1.10197089       0.03358677
H        3.62549724      -0.97525683       0.18231997
15
Frame=7 idx=008490 GeodesicLength=0.5038249667721331 rxn_smarts="[C:1]([O:2][C:3](=[O:4])[C:5]([C:6]([O:7][H:15])([H:13])[H:14])([H:11])[H:12])([H:8])([H:9])[H:10]>>[C:1]([O:2][H:12])([H:8])([H:9])[H:10].[C:3](=[O:4])=[C:5]([C:6]([O:7][H:15])([H:13])[H:14])[H:11]"
C       -2.70522867      -0.40046904      -0.04023917
O       -1.56670121       0.11749882       0.62923560
C       -0.31577678       0.72548285      -0.42724462
O       -0.62253418       0.92462158      -1.54492445
C        0.74194258       0.34990119       0.42157887
C        2.11617026       0.19944008      -0.16054754
O        2.73523164      -0.90686502       0.47970503
H       -2.43361538      -1.23790667      -0.68852486
H       -3.43511880      -0.71356072       0.70600209
H       -3.13819842       0.38919927      -0.65561450
H        0.68784848       0.85191276       1.38545097
H       -0.48105411      -0.50917424       0.92785628
H        2.06215024       0.03695414      -1.24308918
H        2.70062017       1.11322626       0.00201313
H        3.65426420      -0.94026126       0.20834237
15
Frame=8 idx=008490 GeodesicLength=0.5753820593168354 rxn_smarts="[C:1]([O:2][C:3](=[O:4])[C:5]([C:6]([O:7][H:15])([H:13])[H:14])([H:11])[H:12])([H:8])([H:9])[H:10]>>[C:1]([O:2][H:12])([H:8])([H:9])[H:10].[C:3](=[O:4])=[C:5]([C:6]([O:7][H:15])([H:13])[H:14])[H:11]"
C       -2.72342900      -0.39008768      -0.04174799
O       -1.56955534       0.09179413       0.62809367
C       -0.30928298       0.71878697      -0.42971190
O       -0.61458180       0.90898722      -1.54982166
C        0.74704198       0.33561840       0.41880422
C        2.12180326       0.19437524      -0.16553375
O        2.76199214      -0.88281866       0.50241191
H       -2.46905148      -1.20114297      -0.72922587
H       -3.44429594      -0.72713770       0.70303588
H       -3.16065610       0.42721254      -0.61673248
H        0.69588282       0.84535149       1.37896022
H       -0.47610597      -0.54210128       0.94035805
H        2.06895803       0.00206099      -1.24315353
H        2.68910365       1.12317986      -0.02956126
H        3.68217673      -0.90407854       0.23382447
15
Frame=9 idx=008490 GeodesicLength=0.6469267027497174 rxn_smarts="[C:1]([O:2][C:3](=[O:4])[C:5]([C:6]([O:7][H:15])([H:13])[H:14])([H:11])[H:12])([H:8])([H:9])[H:10]>>[C:1]([O:2][H:12])([H:8])([H:9])[H:10].[C:3](=[O:4])=[C:5]([C:6]([O:7][H:15])([H:13])[H:14])[H:11]"
C       -2.74139611      -0.37951227      -0.04315352
O       -1.57240026       0.06501937       0.62603212
C       -0.30265487       0.71198702      -0.43263822
O       -0.60637483       0.89240273      -1.55528171
C        0.75203318       0.32137818       0.41593522
C        2.12738666       0.18909989      -0.17031061
O        2.78802666      -0.85784941       0.52471452
H       -2.50481348      -1.16181746      -0.76907934
H       -3.45370514      -0.74101948       0.69860690
H       -3.18157611       0.46445691      -0.57582834
H        0.70359060       0.83901650       1.37218844
H       -0.47092455      -0.57537559       0.95343146
H        2.07640728      -0.03290883      -1.24222036
H        2.67723105       1.13184082      -0.06120339
H        3.70916992      -0.86671836       0.25880682
15
Frame=10 idx=008490 GeodesicLength=0.7185855195959631 rxn_smarts="[C:1]([O:2][C:3](=[O:4])[C:5]([C:6]([O:7][H:15])([H:13])[H:14])([H:11])[H:12])([H:8])([H:9])[H:10]>>[C:1]([O:2][H:12])([H:8])([H:9])[H:10].[C:3](=[O:4])=[C:5]([C:6]([O:7][H:15])([H:13])[H:14])[H:11]"
C       -2.75912605      -0.36877640      -0.04444088
O       -1.57529444       0.03719713       0.62293728
C       -0.29592726       0.70512269      -0.43613506
O       -0.59793531       0.87476695      -1.56145114
C        0.75688830       0.30727696       0.41295325
C        2.13297803       0.18368350      -0.17484209
O        2.81324170      -0.83217592       0.54647616
H       -2.54076619      -1.11994559      -0.80789243
H       -3.46335745      -0.75518127       0.69273394
H       -3.20106341       0.50068453      -0.53293594
H        0.71087199       0.83305768       1.36510162
H       -0.46551943      -0.60880496       0.96726457
H        2.08463942      -0.06760333      -1.24034291
H        2.66519696       1.13918042      -0.09258475
H        3.73517315      -0.82848239       0.28315839
15
Frame=11 idx=008490 GeodesicLength=0.7897288288921975 rxn_smarts="[C:1]([O:2][C:3](=[O:4])[C:5]([C:6]([O:7][H:15])([H:13])[H:14])([H:11])[H:12])([H:8])([H:9])[H:10]>>[C:1]([O:2][H:12])([H:8])([H:9])[H:10].[C:3](=[O:4])=[C:5]([C:6]([O:7][H:15])([H:13])[H:14])[H:11]"
C       -2.77632646      -0.35802048      -0.04563860
O       -1.57806981       0.00827759       0.61869676
C       -0.28907046       0.69832500      -0.44010528
O       -0.58923359       0.85621853      -1.56808390
C        0.76156957       0.29354285       0.40985408
C        2.13835646       0.17813890      -0.17911219
O        2.83712958      -0.80580670       0.56769426
H       -2.57656963      -1.07550613      -0.84555366
H       -3.47299300      -0.76975379       0.68514904
H       -3.21864859       0.53556524      -0.48800291
H        0.71782261       0.82774117       1.35759706
H       -0.45981941      -0.64209014       0.98194986
H        2.09332634      -0.10205935      -1.23742465
H        2.65298446       1.14513475      -0.12375158
H        3.75954195      -0.78970744       0.30673171
15
Frame=12 idx=008490 GeodesicLength=0.8609604076586066 rxn_smarts="[C:1]([O:2][C:3](=[O:4])[C:5]([C:6]([O:7][H:15])([H:13])[H:14])([H:11])[H:12])([H:8])([H:9])[H:10]>>[C:1]([O:2][H:12])([H:8])([H:9])[H:10].[C:3](=[O:4])=[C:5]([C:6]([O:7][H:15])([H:13])[H:14])[H:11]"
C       -2.79319047      -0.34721636      -0.04670826
O       -1.58087202      -0.02180754       0.61320093
C       -0.28213513       0.69154751      -0.44475638
O       -0.58031406       0.83665710      -1.57548579
C        0.76607154       0.28013839       0.40661103
C        2.14371803       0.17251673      -0.18311581
O        2.85995381      -0.77893173       0.58835621
H       -2.61233872      -1.02836052      -0.88199364
H       -3.48282797      -0.78470485       0.67595479
H       -3.23471169       0.56901228      -0.44095488
H        0.72429755       0.82307522       1.34968136
H       -0.45388698      -0.67516840       0.99773549
H        2.10276202      -0.13602709      -1.23360662
H        2.64081282       1.14979071      -0.15451013
H        3.78266127      -0.75052146       0.32959170
15
Frame=13 idx=008490 GeodesicLength=0.9321276615117564 rxn_smarts="[C:1]([O:2][C:3](=[O:4])[C:5]([C:6]([O:7][H:15])([H:13])[H:14])([H:11])[H:12])([H:8])([H:9])[H:10]>>[C:1]([O:2][H:12])([H:8])([H:9])[H:10].[C:3](=[O:4])=[C:5]([C:6]([O:7][H:15])([H:13])[H:14])[H:11]"
C       -2.80972473      -0.33625699      -0.04762116
O       -1.58357629      -0.05348372       0.60621508
C       -0.27509741       0.68458534      -0.45019083
O       -0.57113964       0.81584796      -1.58369170
C        0.77038028       0.26695707       0.40314750
C        2.14902920       0.16679094      -0.18687361
O        2.88175487      -0.75131391       0.60865482
H       -2.64838915      -0.97795399      -0.91732121
H       -3.49285717      -0.80004132       0.66497454
H       -3.24902236       0.60119706      -0.39120302
H        0.73024458       0.81897091       1.34123043
H       -0.44765676      -0.70818980       1.01455251
H        2.11290748      -0.16979455      -1.22882561
H        2.62857443       1.15321153      -0.18509595
H        3.80457267      -0.71052652       0.35204821
15
Frame=14 idx=008490 GeodesicLength=1.0032401855774622 rxn_smarts="[C:1]([O:2][C:3](=[O:4])[C:5]([C:6]([O:7][H:15])([H:13])[H:14])([H:11])[H:12])([H:8])([H:9])[H:10]>>[C:1]([O:2][H:12])([H:8])([H:9])[H:10].[C:3](=[O:4])=[C:5]([C:6]([O:7][H:15])([H:13])[H:14])[H:11]"
C       -2.82589747      -0.32515114      -0.04834872
O       -1.58615649      -0.08700388       0.59750499
C       -0.26798187       0.67738979      -0.45653013
O       -0.56171273       0.79368867      -1.59279588
C        0.77445891       0.25404025       0.39941543
C        2.15428801       0.16097678      -0.19038161
O        2.90247455      -0.72295468       0.62865429
H       -2.68472229      -0.92391548      -0.95142516
H       -3.50310209      -0.81580186       0.65203392
H       -3.26143201       0.63194291      -0.33840829
H        0.73557022       0.81552705       1.33214290
H       -0.44112300      -0.74100825       1.03255651
H        2.12379098      -0.20335407      -1.22307065
H        2.61631847       1.15540696      -0.21552007
H        3.82522681      -0.66978307       0.37417245
15
Frame=15 idx=008490 GeodesicLength=1.0742944408388357 rxn_smarts="[C:1]([O:2][C:3](=[O:4])[C:5]([C:6]([O:7][H:15])([H:13])[H:14])([H:11])[H:12])([H:8])([H:9])[H:10]>>[C:1]([O:2][H:12])([H:8])([H:9])[H:10].[C:3](=[O:4])=[C:5]([C:6]([O:7][H:15])([H:13])[H:14])[H:11]"
C       -2.84165145      -0.31389392      -0.04883235
O       -1.58855821      -0.12267256       0.58675773
C       -0.26078048       0.66987924      -0.46396047
O       -0.55199661       0.76997473      -1.60296072
C        0.77826077       0.24142333       0.39533365
C        2.15948226       0.15510443      -0.19363772
O        2.92197857      -0.69390119       0.64837611
H       -2.72140864      -0.86580575      -0.98411854
H       -3.51356241      -0.83202452       0.63695165
H       -3.27168995       0.66103434      -0.28213513
H        0.74016499       0.81285411       1.32228031
H       -0.43432774      -0.77344414       1.05190513
H        2.13545059      -0.23663366      -1.21635165
H        2.60412380       1.15640621      -0.24570602
H        3.84451450      -0.62830063       0.39609803
15
Frame=16 idx=008490 GeodesicLength=1.1452156271591143 rxn_smarts="[C:1]([O:2][C:3](=[O:4])[C:5]([C:6]([O:7][H:15])([H:13])[H:14])([H:11])[H:12])([H:8])([H:9])[H:10]>>[C:1]([O:2][H:12])([H:8])([H:9])[H:10].[C:3](=[O:4])=[C:5]([C:6]([O:7][H:15])([H:13])[H:14])[H:11]"
C       -2.85689786      -0.30246082      -0.04901954
O       -1.59071307      -0.16092312       0.57356761
C       -0.25353337       0.66191029      -0.47267673
O       -0.54199956       0.74449361      -1.61432766
C        0.78171582       0.22909079       0.39081505
C        2.16457532       0.14916893      -0.19662784
O        2.94022296      -0.66403970       0.66796786
H       -2.75843128      -0.80292102      -1.01518319
H       -3.52424393      -0.84869381       0.61941874
H       -3.27947802       0.68820311      -0.22177096
H        0.74386319       0.81101075       1.31145999
H       -0.42730065      -0.80530358       1.07274080
H        2.14791031      -0.26972648      -1.20859103
H        2.59192584       1.15621007      -0.27573968
H        3.86238429      -0.58601901       0.41796656
