12
Frame=0 idx=008184 GeodesicLength=0.0 rxn_smarts="[O:1]([C:2]([C@@:3]([C:4]#[C:5][H:12])([C:6]#[N:7])[H:11])([H:9])[H:10])[H:8]>>[C:2](=[C:3]([C:4]#[C:5][H:12])[C:6]#[N:7])([H:9])[H:10].[O:1]([H:8])[H:11]"
O       -1.60710303      -0.65863200      -0.93489657
C       -0.87828985      -0.62157072       0.48209475
C        0.46643039      -0.24958402       0.01471908
C        0.86147990       1.12041504       0.14314941
C        1.14668776       2.28430728       0.22301726
C        1.47273527      -1.26226479       0.05306101
N        2.25566830      -2.10685591       0.05780517
H       -2.18320278       0.11021298      -1.05419478
H       -1.41716307       0.11595915       1.07033770
H       -1.00140277      -1.63401697       0.85010304
H       -0.53648376      -0.40701338      -1.21044691
H        1.42064361       3.30904339       0.30525079
12
Frame=1 idx=008184 GeodesicLength=0.09018442207278957 rxn_smarts="[O:1]([C:2]([C@@:3]([C:4]#[C:5][H:12])([C:6]#[N:7])[H:11])([H:9])[H:10])[H:8]>>[C:2](=[C:3]([C:4]#[C:5][H:12])[C:6]#[N:7])([H:9])[H:10].[O:1]([H:8])[H:11]"
O       -1.62139617      -0.67076534      -0.93775505
C       -0.88041255      -0.61348049       0.49590448
C        0.46101817      -0.24673144       0.02197060
C        0.85962546       1.12406513       0.14335576
C        1.14668435       2.28689025       0.22786480
C        1.47020401      -1.25725535       0.06843248
N        2.25560742      -2.09806018       0.02625187
H       -2.16414654       0.11824406      -1.07808320
H       -1.41077775       0.12336903       1.09242574
H       -1.00860894      -1.62846433       0.85492524
H       -0.53198374      -0.44838810      -1.22750413
H        1.42418628       3.31057674       0.31221143
12
Frame=2 idx=008184 GeodesicLength=0.180415055467589 rxn_smarts="[O:1]([C:2]([C@@:3]([C:4]#[C:5][H:12])([C:6]#[N:7])[H:11])([H:9])[H:10])[H:8]>>[C:2](=[C:3]([C:4]#[C:5][H:12])[C:6]#[N:7])([H:9])[H:10].[O:1]([H:8])[H:11]"
O       -1.63622170      -0.68243118      -0.94078726
C       -0.88248469      -0.60515281       0.50965054
C        0.45534896      -0.24371001       0.02821470
C        0.85775004       1.12774858       0.14349022
C        1.14725794       2.28930528       0.23316018
C        1.46736283      -1.25228746       0.08168452
N        2.25480906      -2.08758781      -0.00317176
H       -2.14473744       0.12482250      -1.10245063
H       -1.40343025       0.13051569       1.11561810
H       -1.01577419      -1.62279435       0.85905323
H       -0.52823354      -0.49035516      -1.24400669
H        1.42835300       3.31192674       0.31954484
12
Frame=3 idx=008184 GeodesicLength=0.270604831018932 rxn_smarts="[O:1]([C:2]([C@@:3]([C:4]#[C:5][H:12])([C:6]#[N:7])[H:11])([H:9])[H:10])[H:8]>>[C:2](=[C:3]([C:4]#[C:5][H:12])[C:6]#[N:7])([H:9])[H:10].[O:1]([H:8])[H:11]"
O       -1.65182869      -0.69425043      -0.94386429
C       -0.88456726      -0.59640576       0.52331004
C        0.44918549      -0.24026101       0.03306974
C        0.85533310       1.13182890       0.14249242
C        1.14765190       2.29197383       0.23746101
C        1.46419717      -1.24681286       0.09265772
N        2.25374529      -2.07507333      -0.03006822
H       -2.12545127       0.12910586      -1.12743312
H       -1.39517431       0.13765827       1.13969957
H       -1.02272132      -1.61665918       0.86291373
H       -0.52557562      -0.53345109      -1.26008817
H        1.43520552       3.31234679       0.32984957
12
Frame=4 idx=008184 GeodesicLength=0.3607602844224348 rxn_smarts="[O:1]([C:2]([C@@:3]([C:4]#[C:5][H:12])([C:6]#[N:7])[H:11])([H:9])[H:10])[H:8]>>[C:2](=[C:3]([C:4]#[C:5][H:12])[C:6]#[N:7])([H:9])[H:10].[O:1]([H:8])[H:11]"
O       -1.66765661      -0.70488858      -0.94736906
C       -0.88650004      -0.58754356       0.53689007
C        0.44294893      -0.23673169       0.03734837
C        0.85333975       1.13572867       0.14263473
C        1.14904666       2.29423001       0.24357705
C        1.46072237      -1.24162567       0.10156071
N        2.25184357      -2.06237558      -0.05496959
H       -2.10545769       0.13278267      -1.15261418
H       -1.38565363       0.14406989       1.16523259
H       -1.02982441      -1.61064073       0.86549885
H       -0.52331930      -0.57639228      -1.27560221
H        1.44051041       3.31338684       0.33781267
12
Frame=5 idx=008184 GeodesicLength=0.450934102203913 rxn_smarts="[O:1]([C:2]([C@@:3]([C:4]#[C:5][H:12])([C:6]#[N:7])[H:11])([H:9])[H:10])[H:8]>>[C:2](=[C:3]([C:4]#[C:5][H:12])[C:6]#[N:7])([H:9])[H:10].[O:1]([H:8])[H:11]"
O       -1.68385984      -0.71491590      -0.95125313
C       -0.88838381      -0.57839585       0.55043211
C        0.43646367      -0.23293686       0.04087394
C        0.85139290       1.13974152       0.14309433
C        1.15089172       2.29643054       0.25028811
C        1.45693703      -1.23634562       0.10867582
N        2.24943208      -2.04914540      -0.07811684
H       -2.08508591       0.13511821      -1.17821728
H       -1.37497498       0.15000177       1.19201468
H       -1.03705729      -1.60440374       0.86728841
H       -0.52164830      -0.61969474      -1.29064860
H        1.44589272       3.31454607       0.34556846
12
Frame=6 idx=008184 GeodesicLength=0.5410982748961828 rxn_smarts="[O:1]([C:2]([C@@:3]([C:4]#[C:5][H:12])([C:6]#[N:7])[H:11])([H:9])[H:10])[H:8]>>[C:2](=[C:3]([C:4]#[C:5][H:12])[C:6]#[N:7])([H:9])[H:10].[O:1]([H:8])[H:11]"
O       -1.70035571      -0.72436024      -0.95558958
C       -0.89024247      -0.56891492       0.56396218
C        0.42971974      -0.22885566       0.04376299
C        0.84949636       1.14389023       0.14393664
C        1.15317896       2.29859352       0.25763021
C        1.45281119      -1.23095694       0.11426749
N        2.24650798      -2.03554870      -0.09987725
H       -2.06428819       0.13606660      -1.20426577
H       -1.36308966       0.15543177       1.22005067
H       -1.04451589      -1.59785462       0.86832344
H       -0.52046850      -0.66337094      -1.30523153
H        1.45124619       3.31587990       0.35303051
12
Frame=7 idx=008184 GeodesicLength=0.6312528832800315 rxn_smarts="[O:1]([C:2]([C@@:3]([C:4]#[C:5][H:12])([C:6]#[N:7])[H:11])([H:9])[H:10])[H:8]>>[C:2](=[C:3]([C:4]#[C:5][H:12])[C:6]#[N:7])([H:9])[H:10].[O:1]([H:8])[H:11]"
O       -1.71707829      -0.73321894      -0.96045716
C       -0.89210313      -0.55906577       0.57750770
C        0.42271222      -0.22448105       0.04612990
C        0.84767134       1.14817791       0.14524209
C        1.15594026       2.30071166       0.26567630
C        1.44831292      -1.22547202       0.11855631
N        2.24307167      -2.02169907      -0.12055097
H       -2.04301439       0.13562381      -1.23077300
H       -1.34993439       0.16029690       1.24936558
H       -1.05230584      -1.59091833       0.86862294
H       -0.51969327      -0.70741628      -1.31936023
H        1.45642090       3.31746119       0.36004056
12
Frame=8 idx=008184 GeodesicLength=0.7213831100827957 rxn_smarts="[O:1]([C:2]([C@@:3]([C:4]#[C:5][H:12])([C:6]#[N:7])[H:11])([H:9])[H:10])[H:8]>>[C:2](=[C:3]([C:4]#[C:5][H:12])[C:6]#[N:7])([H:9])[H:10].[O:1]([H:8])[H:11]"
O       -1.73396274      -0.74147968      -0.96592942
C       -0.89398419      -0.54880489       0.59109375
C        0.41544391      -0.21980913       0.04806949
C        0.84595636       1.15259577       0.14705862
C        1.15923952       2.30276187       0.27441044
C        1.44341318      -1.21991248       0.12172099
N        2.23908978      -2.00769802      -0.14036893
H       -2.02120222       0.13380126      -1.25772070
H       -1.33541939       0.16453121       1.27998393
H       -1.06052753      -1.58350756       0.86819994
H       -0.51923983      -0.75182695      -1.33304546
H        1.46119315       3.31934861       0.36652734
12
Frame=9 idx=008184 GeodesicLength=0.811505363592007 rxn_smarts="[O:1]([C:2]([C@@:3]([C:4]#[C:5][H:12])([C:6]#[N:7])[H:11])([H:9])[H:10])[H:8]>>[C:2](=[C:3]([C:4]#[C:5][H:12])[C:6]#[N:7])([H:9])[H:10].[O:1]([H:8])[H:11]"
O       -1.75101145      -0.74926398      -0.97205120
C       -0.89591575      -0.53805882       0.60473766
C        0.40787127      -0.21479281       0.04959153
C        0.84428273       1.15721055       0.14921869
C        1.16299805       2.30482054       0.28356746
C        1.43808144      -1.21421119       0.12388323
N        2.23459299      -1.99350320      -0.15945890
H       -1.99891027       0.13043051      -1.28514313
H       -1.31946270       0.16810594       1.31187734
H       -1.06923272      -1.57548901       0.86714974
H       -0.51910099      -0.79672170      -1.34630646
H        1.46580737       3.32147317       0.37293404
12
Frame=10 idx=008184 GeodesicLength=0.90162194061073 rxn_smarts="[O:1]([C:2]([C@@:3]([C:4]#[C:5][H:12])([C:6]#[N:7])[H:11])([H:9])[H:10])[H:8]>>[C:2](=[C:3]([C:4]#[C:5][H:12])[C:6]#[N:7])([H:9])[H:10].[O:1]([H:8])[H:11]"
O       -1.76835141      -0.75715728      -0.97877141
C       -0.89797285      -0.52665919       0.61841810
C        0.39980946      -0.20922868       0.05048346
C        0.84222359       1.16233830       0.15094319
C        1.16659663       2.30729925       0.29194880
C        1.43231543      -1.20795346       0.12510487
N        2.22970910      -1.97867853      -0.17782351
H       -1.97648610       0.12476383      -1.31316452
H       -1.30207289       0.17119832       1.34482116
H       -1.07833309      -1.56660360       0.86580103
H       -0.51940701      -0.84257335      -1.35912938
H        1.47196913       3.32325438       0.38136821
12
Frame=11 idx=008184 GeodesicLength=0.9917313447057199 rxn_smarts="[O:1]([C:2]([C@@:3]([C:4]#[C:5][H:12])([C:6]#[N:7])[H:11])([H:9])[H:10])[H:8]>>[C:2](=[C:3]([C:4]#[C:5][H:12])[C:6]#[N:7])([H:9])[H:10].[O:1]([H:8])[H:11]"
O       -1.78583521      -0.76479866      -0.98624529
C       -0.90015456      -0.51465338       0.63217582
C        0.39134324      -0.20321895       0.05099860
C        0.84002923       1.16779878       0.15278003
C        1.17042652       2.30994396       0.30035152
C        1.42606009      -1.20139460       0.12550936
N        2.22432462      -1.96352962      -0.19565658
H       -1.95367142       0.11726356      -1.34163943
H       -1.28307880       0.17348014       1.37896955
H       -1.08803223      -1.55690809       0.86391530
H       -0.51995735      -0.88908542      -1.37151140
H        1.47854588       3.32510228       0.39035251
12
Frame=12 idx=008184 GeodesicLength=1.0818413920841345 rxn_smarts="[O:1]([C:2]([C@@:3]([C:4]#[C:5][H:12])([C:6]#[N:7])[H:11])([H:9])[H:10])[H:8]>>[C:2](=[C:3]([C:4]#[C:5][H:12])[C:6]#[N:7])([H:9])[H:10].[O:1]([H:8])[H:11]"
O       -1.80361335      -0.77288357      -0.99440150
C       -0.90256067      -0.50186074       0.64597614
C        0.38223777      -0.19651924       0.05088469
C        0.83715213       1.17398138       0.15386526
C        1.17374329       2.31324385       0.30760176
C        1.41931129      -1.19402860       0.12510727
N        2.21860345      -1.94747798      -0.21293419
H       -1.93089219       0.10705509      -1.37070623
H       -1.26252251       0.17513552       1.41402835
H       -1.09821592      -1.54614672       0.86183198
H       -0.52087856      -0.93678049      -1.38339705
H        1.48763528       3.32628149       0.40214352
12
Frame=13 idx=008184 GeodesicLength=1.1719374490546353 rxn_smarts="[O:1]([C:2]([C@@:3]([C:4]#[C:5][H:12])([C:6]#[N:7])[H:11])([H:9])[H:10])[H:8]>>[C:2](=[C:3]([C:4]#[C:5][H:12])[C:6]#[N:7])([H:9])[H:10].[O:1]([H:8])[H:11]"
O       -1.82118554      -0.77965174      -1.00365420
C       -0.90501682      -0.48856996       0.66000779
C        0.37302759      -0.18969537       0.05100156
C        0.83497001       1.17992978       0.15642509
C        1.17857419       2.31593031       0.31670822
C        1.41194564      -1.18715308       0.12413088
N        2.21205421      -1.93201841      -0.23001586
H       -1.90698855       0.09634847      -1.39982598
H       -1.23989659       0.17517158       1.45063904
H       -1.10949753      -1.53464983       0.85866837
H       -0.52162757      -0.98436476      -1.39490540
H        1.49364095       3.32872299       0.41082050
12
Frame=14 idx=008184 GeodesicLength=1.2620336812372914 rxn_smarts="[O:1]([C:2]([C@@:3]([C:4]#[C:5][H:12])([C:6]#[N:7])[H:11])([H:9])[H:10])[H:8]>>[C:2](=[C:3]([C:4]#[C:5][H:12])[C:6]#[N:7])([H:9])[H:10].[O:1]([H:8])[H:11]"
O       -1.83872264      -0.78579771      -1.01389101
C       -0.90758619      -0.47455157       0.67426304
C        0.36350931      -0.18251387       0.05104664
C        0.83300951       1.18602043       0.15945079
C        1.18430042       2.31848287       0.32624157
C        1.40396863      -1.18031486       0.12255915
N        2.20483309      -1.91665177      -0.24683353
H       -1.88238763       0.08425013      -1.42913187
H       -1.21521330       0.17382750       1.48840572
H       -1.12175891      -1.52206850       0.85484804
H       -0.52238689      -1.03244202      -1.40600142
H        1.49843461       3.33175937       0.41904288
12
Frame=15 idx=008184 GeodesicLength=1.3523913808486479 rxn_smarts="[O:1]([C:2]([C@@:3]([C:4]#[C:5][H:12])([C:6]#[N:7])[H:11])([H:9])[H:10])[H:8]>>[C:2](=[C:3]([C:4]#[C:5][H:12])[C:6]#[N:7])([H:9])[H:10].[O:1]([H:8])[H:11]"
O       -1.85624610      -0.79076924      -1.02523910
C       -0.91024559      -0.45979631       0.68885501
C        0.35394634      -0.17518631       0.05125838
C        0.83197178       1.19201120       0.16343789
C        1.19196752       2.32066577       0.33659492
C        1.39544328      -1.17414164       0.12048232
N        2.19696177      -1.90214615      -0.26352640
H       -1.85677257       0.07147587      -1.45841504
H       -1.18826400       0.17083426       1.52737974
H       -1.13540312      -1.50839275       0.85019507
H       -0.52309568      -1.08089219      -1.41671515
H        1.49973636       3.33633748       0.42569235
12
Frame=16 idx=008184 GeodesicLength=1.4421399002857058 rxn_smarts="[O:1]([C:2]([C@@:3]([C:4]#[C:5][H:12])([C:6]#[N:7])[H:11])([H:9])[H:10])[H:8]>>[C:2](=[C:3]([C:4]#[C:5][H:12])[C:6]#[N:7])([H:9])[H:10].[O:1]([H:8])[H:11]"
O       -1.87344879      -0.79589998      -1.03752050
C       -0.91282248      -0.44399610       0.70370148
C        0.34368684      -0.16711008       0.05116553
C        0.83021383       1.19835125       0.16697860
C        1.19944791       2.32272005       0.34589322
C        1.38594993      -1.16701622       0.11784239
N        2.18809380      -1.88641411      -0.27985829
H       -1.83083565       0.05608372      -1.48781230
H       -1.15922364       0.16638494       1.56677203
H       -1.14952622      -1.49287443       0.84528803
H       -0.52391219      -1.13017784      -1.42691882
H        1.50237667       3.33994880       0.43446863
