16
Frame=0 idx=008729 GeodesicLength=0.0 rxn_smarts="[C:1]([C@@:2]([O:3][H:12])([C:4]([C:5](=[O:6])[N:7]([H:15])[H:16])([H:13])[H:14])[H:11])([H:8])([H:9])[H:10]>>[C:1]([C:2]([O:3][H:12])=[C:4]([H:13])[H:14])([H:8])([H:9])[H:10].[C:5](=[O:6])=[N:7][H:15].[H:11][H:16]"
C       -1.37006989       0.04653251      -0.90086834
C       -0.75494661       0.33770011       0.41704334
O       -1.31181582       1.21231009       1.20755244
C        0.19348202      -0.57650478       1.02992411
C        1.59146423      -0.90569816       0.31317670
O        2.31627744      -1.60978360       1.00363798
N        1.69353035      -0.39067974      -0.88248448
H       -2.09290595      -0.76213290      -0.75088901
H       -0.58776795      -0.30367933      -1.57496725
H       -1.88195230       0.91353365      -1.31868929
H        0.48402262       1.67397388      -0.40385502
H       -1.96492764       1.74537244       0.73711475
H        0.39025171      -0.30492166       2.06377171
H       -0.28587936      -1.56198276       1.00101253
H        2.60933830      -0.57946593      -1.27294614
H        0.97189880       1.06542611      -0.66853405
16
Frame=1 idx=008729 GeodesicLength=0.15382026746159 rxn_smarts="[C:1]([C@@:2]([O:3][H:12])([C:4]([C:5](=[O:6])[N:7]([H:15])[H:16])([H:13])[H:14])[H:11])([H:8])([H:9])[H:10]>>[C:1]([C:2]([O:3][H:12])=[C:4]([H:13])[H:14])([H:8])([H:9])[H:10].[C:5](=[O:6])=[N:7][H:15].[H:11][H:16]"
C       -1.40333623       0.03217346      -0.89057930
C       -0.74898328       0.34055275       0.40574340
O       -1.28523370       1.23382893       1.19853786
C        0.18159436      -0.58722445       1.02192380
C        1.61389058      -0.93357531       0.30688155
O        2.32308404      -1.66957483       0.97649230
N        1.73573348      -0.37175685      -0.86368048
H       -2.15715793      -0.73960290      -0.70493645
H       -0.64607787      -0.36084384      -1.56977273
H       -1.89010774       0.90571832      -1.32503645
H        0.45951345       1.66684708      -0.44668199
H       -1.92820595       1.77791042       0.72756677
H        0.37155659      -0.32654862       2.06025902
H       -0.30199739      -1.57015363       0.99153633
H        2.68883968      -0.45868848      -1.19764116
H        0.98688792       1.06093792      -0.69061246
16
Frame=2 idx=008729 GeodesicLength=0.3072420369387556 rxn_smarts="[C:1]([C@@:2]([O:3][H:12])([C:4]([C:5](=[O:6])[N:7]([H:15])[H:16])([H:13])[H:14])[H:11])([H:8])([H:9])[H:10]>>[C:1]([C:2]([O:3][H:12])=[C:4]([H:13])[H:14])([H:8])([H:9])[H:10].[C:5](=[O:6])=[N:7][H:15].[H:11][H:16]"
C       -1.43754075       0.01811465      -0.87955193
C       -0.74234138       0.34268017       0.39279445
O       -1.25676651       1.25466918       1.18776982
C        0.17023418      -0.59806466       1.01259961
C        1.63774028      -0.96158017       0.29888380
O        2.33122316      -1.73023262       0.94414175
N        1.78180519      -0.34857968      -0.84106900
H       -2.21996041      -0.71417349      -0.65740506
H       -0.70796040      -0.41807004      -1.56274934
H       -1.89942135       0.89648490      -1.33162063
H        0.43461958       1.65845689      -0.49188945
H       -1.89001444       1.80908009       0.71652624
H        0.35341919      -0.34787504       2.05510357
H       -0.31686148      -1.57874939       0.98047588
H        2.75928750      -0.33975739      -1.11053801
H        1.00253766       1.05759660      -0.71347171
16
Frame=3 idx=008729 GeodesicLength=0.4605513919434203 rxn_smarts="[C:1]([C@@:2]([O:3][H:12])([C:4]([C:5](=[O:6])[N:7]([H:15])[H:16])([H:13])[H:14])[H:11])([H:8])([H:9])[H:10]>>[C:1]([C:2]([O:3][H:12])=[C:4]([H:13])[H:14])([H:8])([H:9])[H:10].[C:5](=[O:6])=[N:7][H:15].[H:11][H:16]"
C       -1.47335812       0.00443227      -0.86745582
C       -0.73506489       0.34404726       0.37795822
O       -1.22577068       1.27510437       1.17503018
C        0.15937565      -0.60920028       1.00159558
C        1.66289912      -0.99005202       0.28832974
O        2.34095657      -1.79134267       0.90585831
N        1.83200153      -0.32078316      -0.81387828
H       -2.28187038      -0.68548378      -0.60756553
H       -0.77462090      -0.47558213      -1.55357570
H       -1.91061729       0.88588466      -1.33815716
H        0.40929792       1.64802942      -0.54058808
H       -1.84991634       1.83922638       0.70400053
H        0.33596476      -0.36916627       2.04798566
H       -0.33052796      -1.58794310       0.96753156
H        2.82246925      -0.22203119      -1.00897106
H        1.01878175       1.05486024      -0.73809816
16
Frame=4 idx=008729 GeodesicLength=0.6135670853742995 rxn_smarts="[C:1]([C@@:2]([O:3][H:12])([C:4]([C:5](=[O:6])[N:7]([H:15])[H:16])([H:13])[H:14])[H:11])([H:8])([H:9])[H:10]>>[C:1]([C:2]([O:3][H:12])=[C:4]([H:13])[H:14])([H:8])([H:9])[H:10].[C:5](=[O:6])=[N:7][H:15].[H:11][H:16]"
C       -1.51126253      -0.00878675      -0.85393264
C       -0.72714540       0.34451252       0.36094563
O       -1.19147068       1.29528951       1.15991729
C        0.14900980      -0.62083081       0.98853952
C        1.68943863      -1.01878140       0.27442886
O        2.35283871      -1.85194275       0.86088875
N        1.88632786      -0.28768816      -0.78080070
H       -2.34316577      -0.65306355      -0.55473998
H       -0.84720687      -0.53358809      -1.54175697
H       -1.92415296       0.87391677      -1.34439388
H        0.38362929       1.63464305      -0.59368616
H       -1.80724468       1.86858324       0.68977515
H        0.31913744      -0.39082557       2.03859386
H       -0.34283460      -1.59800694       0.95209773
H        2.87843975      -0.10560904      -0.89041218
H        1.03566200       1.05217798      -0.76546429
16
Frame=5 idx=008729 GeodesicLength=0.7660007355341119 rxn_smarts="[C:1]([C@@:2]([O:3][H:12])([C:4]([C:5](=[O:6])[N:7]([H:15])[H:16])([H:13])[H:14])[H:11])([H:8])([H:9])[H:10]>>[C:1]([C:2]([O:3][H:12])=[C:4]([H:13])[H:14])([H:8])([H:9])[H:10].[C:5](=[O:6])=[N:7][H:15].[H:11][H:16]"
C       -1.55157501      -0.02128642      -0.83862104
C       -0.71856902       0.34379474       0.34148660
O       -1.15294549       1.31530580       1.14190582
C        0.13904020      -0.63337776       0.97314138
C        1.71783973      -1.04698241       0.25680659
O        2.36828320      -1.91015605       0.80910345
N        1.94395292      -0.24924693      -0.74058208
H       -2.40379116      -0.61636212      -0.49840483
H       -0.92681307      -0.59196087      -1.52676341
H       -1.94037567       0.86074807      -1.35002593
H        0.35813939       1.61699716      -0.65183557
H       -1.76076979       1.89760861       0.67332109
H        0.30236628      -0.41370416       2.02680558
H       -0.35345601      -1.60953823       0.93316700
H        2.92515357       0.00962305      -0.75292146
H        1.05351993       1.04853752      -0.79658321
16
Frame=6 idx=008729 GeodesicLength=0.9174423348671734 rxn_smarts="[C:1]([C@@:2]([O:3][H:12])([C:4]([C:5](=[O:6])[N:7]([H:15])[H:16])([H:13])[H:14])[H:11])([H:8])([H:9])[H:10]>>[C:1]([C:2]([O:3][H:12])=[C:4]([H:13])[H:14])([H:8])([H:9])[H:10].[C:5](=[O:6])=[N:7][H:15].[H:11][H:16]"
C       -1.59427687      -0.03264936      -0.82123987
C       -0.70939510       0.34155444       0.31942564
O       -1.10953278       1.33499168       1.12049604
C        0.12923545      -0.64731960       0.95528321
C        1.74899563      -1.07295941       0.23580518
O        2.38937846      -1.96308620       0.75123456
N        2.00309027      -0.20567512      -0.69223614
H       -2.46326571      -0.57478350      -0.43841181
H       -1.01408041      -0.65017245      -1.50795295
H       -1.95929216       0.84671043      -1.35478932
H        0.33359602       1.59376778      -0.71509347
H       -1.70928223       1.92657413       0.65395938
H        0.28450397      -0.43886784       2.01272950
H       -0.36189350      -1.62329648       0.90938829
H        2.95897675       0.12207031      -0.59713444
H        1.07324220       1.04314118      -0.83146381
16
Frame=7 idx=008729 GeodesicLength=1.0677408804838548 rxn_smarts="[C:1]([C@@:2]([O:3][H:12])([C:4]([C:5](=[O:6])[N:7]([H:15])[H:16])([H:13])[H:14])[H:11])([H:8])([H:9])[H:10]>>[C:1]([C:2]([O:3][H:12])=[C:4]([H:13])[H:14])([H:8])([H:9])[H:10].[C:5](=[O:6])=[N:7][H:15].[H:11][H:16]"
C       -1.63893457      -0.04228719      -0.80168742
C       -0.69977491       0.33736423       0.29481620
O       -1.06092892       1.35386386       1.09537095
C        0.11918336      -0.66327272       0.93504427
C        1.78404993      -1.09469541       0.21274966
O        2.41887826      -2.00716144       0.68952779
N        2.06077451      -0.15833679      -0.63623154
H       -2.52084842      -0.52736748      -0.37507010
H       -1.10918292      -0.70754680      -1.48452472
H       -1.98010695       0.83235432      -1.35871161
H        0.31113144       1.56373390      -0.78259416
H       -1.65155525       1.95553549       0.63095219
H        0.26393414      -0.46751387       1.99665078
H       -0.36773298      -1.64016003       0.87930142
H        2.97491076       0.22997216      -0.42705609
H        1.09620252       1.03551777      -0.86853761
16
Frame=8 idx=008729 GeodesicLength=1.216951114061984 rxn_smarts="[C:1]([C@@:2]([O:3][H:12])([C:4]([C:5](=[O:6])[N:7]([H:15])[H:16])([H:13])[H:14])[H:11])([H:8])([H:9])[H:10]>>[C:1]([C:2]([O:3][H:12])=[C:4]([H:13])[H:14])([H:8])([H:9])[H:10].[C:5](=[O:6])=[N:7][H:15].[H:11][H:16]"
C       -1.68466905      -0.04989412      -0.78016889
C       -0.69022178       0.33098596       0.26801329
O       -1.00830980       1.37108268       1.06659038
C        0.10849570      -0.68122638       0.91292002
C        1.82355855      -1.11041339       0.18900180
O        2.45816087      -2.03990600       0.62588499
N        2.11407826      -0.10839298      -0.57391142
H       -2.57560746      -0.47343025      -0.30960924
H       -1.21132233      -0.76354097      -1.45543258
H       -2.00148895       0.81771199      -1.36244418
H        0.29145448       1.52662429      -0.85244223
H       -1.58840915       1.98355088       0.60384936
H        0.23992342      -0.49936483       1.97893587
H       -0.37085233      -1.66015741       0.84292494
H        2.97108381       0.32860409      -0.25064193
H        1.12412576       1.02776643      -0.90347020
16
Frame=9 idx=008729 GeodesicLength=1.3656359545519896 rxn_smarts="[C:1]([C@@:2]([O:3][H:12])([C:4]([C:5](=[O:6])[N:7]([H:15])[H:16])([H:13])[H:14])[H:11])([H:8])([H:9])[H:10]>>[C:1]([C:2]([O:3][H:12])=[C:4]([H:13])[H:14])([H:8])([H:9])[H:10].[C:5](=[O:6])=[N:7][H:15].[H:11][H:16]"
C       -1.73061753      -0.05485947      -0.75706478
C       -0.68111413       0.32217030       0.23953301
O       -0.95271250       1.38560893       1.03480554
C        0.09675150      -0.70157633       0.88922886
C        1.86803098      -1.11958031       0.16701059
O        2.50883747      -2.05945289       0.56471906
N        2.16049004      -0.05870948      -0.50872313
H       -2.62664773      -0.41200810      -0.24354972
H       -1.31971035      -0.81711266      -1.41981459
H       -2.02194594       0.80320124      -1.36660832
H        0.27565840       1.48267498      -0.92206402
H       -1.52006889       2.00987179       0.57281833
H        0.21146568      -0.53494187       1.95983869
H       -0.37151361      -1.68346456       0.79992393
H        2.94578434       0.41709223      -0.07680072
H        1.15731227       1.02108619      -0.93325271
16
Frame=10 idx=008729 GeodesicLength=1.5144143900293998 rxn_smarts="[C:1]([C@@:2]([O:3][H:12])([C:4]([C:5](=[O:6])[N:7]([H:15])[H:16])([H:13])[H:14])[H:11])([H:8])([H:9])[H:10]>>[C:1]([C:2]([O:3][H:12])=[C:4]([H:13])[H:14])([H:8])([H:9])[H:10].[C:5](=[O:6])=[N:7][H:15].[H:11][H:16]"
C       -1.77634255      -0.05735401      -0.73240023
C       -0.67284923       0.31107169       0.20957273
O       -0.89550256       1.39700013       1.00015151
C        0.08389891      -0.72379674       0.86417766
C        1.91683171      -1.12252473       0.14685605
O        2.56954439      -2.06674301       0.50601067
N        2.19966674      -0.00962214      -0.44148515
H       -2.67284498      -0.34399182      -0.17758954
H       -1.43325612      -0.86699459      -1.37705426
H       -2.04175122       0.78801466      -1.37121861
H        0.26388798       1.43198647      -0.99063697
H       -1.44780240       2.03360541       0.53756019
H        0.17939636      -0.57280552       1.93911140
H       -0.37019753      -1.70903341       0.75163344
H        2.90181595       0.49304687       0.09084414
H        1.19550454       1.01814072      -0.95553305
16
Frame=11 idx=008729 GeodesicLength=1.6637282684462158 rxn_smarts="[C:1]([C@@:2]([O:3][H:12])([C:4]([C:5](=[O:6])[N:7]([H:15])[H:16])([H:13])[H:14])[H:11])([H:8])([H:9])[H:10]>>[C:1]([C:2]([O:3][H:12])=[C:4]([H:13])[H:14])([H:8])([H:9])[H:10].[C:5](=[O:6])=[N:7][H:15].[H:11][H:16]"
C       -1.82139321      -0.05691876      -0.70643723
C       -0.66567478       0.29776839       0.17857707
O       -0.83750320       1.40466336       0.96355920
C        0.06971321      -0.74809424       0.83783869
C        1.96988243      -1.11977445       0.13049636
O        2.64018744      -2.06195028       0.45298818
N        2.23114511       0.03741486      -0.37427723
H       -2.71338118      -0.26980423      -0.11285782
H       -1.55081763      -0.91137773      -1.32705061
H       -2.06089725       0.77251813      -1.37607526
H        0.25665538       1.37522305      -1.05656221
H       -1.37220370       2.05411519       0.49888650
H        0.14338465      -0.61340835       1.91675788
H       -0.36742627      -1.73657562       0.69793739
H        2.84134510       0.55720423       0.24701680
H        1.23698389       1.01899643      -0.97079772
16
Frame=12 idx=008729 GeodesicLength=1.8140719995659191 rxn_smarts="[C:1]([C@@:2]([O:3][H:12])([C:4]([C:5](=[O:6])[N:7]([H:15])[H:16])([H:13])[H:14])[H:11])([H:8])([H:9])[H:10]>>[C:1]([C:2]([O:3][H:12])=[C:4]([H:13])[H:14])([H:8])([H:9])[H:10].[C:5](=[O:6])=[N:7][H:15].[H:11][H:16]"
C       -1.86528599      -0.05316169      -0.67926732
C       -0.65967810       0.28235923       0.14692341
O       -0.77915076       1.40804701       0.92595751
C        0.05406603      -0.77465622       0.81002986
C        2.02689608      -1.11192947       0.11915291
O        2.72024969      -2.04533463       0.40774128
N        2.25505968       0.08175605      -0.30838608
H       -2.74763929      -0.18939918      -0.05013636
H       -1.67134098      -0.94885967      -1.26935202
H       -2.07914849       0.75686844      -1.38096221
H        0.25403751       1.31324624      -1.11867781
H       -1.29379049       2.07064051       0.45793595
H        0.10342039      -0.65723133       1.89240856
H       -0.36362437      -1.76561807       0.63854878
H        2.76604287       0.61109125       0.38920261
H        1.27988621       1.02218151      -0.98111907
16
Frame=13 idx=008729 GeodesicLength=1.9653879368272276 rxn_smarts="[C:1]([C@@:2]([O:3][H:12])([C:4]([C:5](=[O:6])[N:7]([H:15])[H:16])([H:13])[H:14])[H:11])([H:8])([H:9])[H:10]>>[C:1]([C:2]([O:3][H:12])=[C:4]([H:13])[H:14])([H:8])([H:9])[H:10].[C:5](=[O:6])=[N:7][H:15].[H:11][H:16]"
C       -1.90737327      -0.04693015      -0.65133921
C       -0.65522544       0.26537887       0.11503340
O       -0.72232223       1.40760324       0.88768070
C        0.03709114      -0.80243568       0.78156132
C        2.08639465      -1.09968133       0.11119254
O        2.80673262      -2.01925226       0.36631165
N        2.27192174       0.12388793      -0.24352645
H       -2.77521127      -0.10406868       0.00909143
H       -1.79294641      -0.97959290      -1.20338034
H       -2.09618780       0.73928828      -1.38691439
H        0.25578308       1.24732124      -1.17617471
H       -1.21510168       2.08271642       0.41470490
H        0.06174749      -0.70174505       1.86650500
H       -0.35967157      -1.79470252       0.57655690
H        2.68100128       0.65275376       0.51826694
H        1.32336766       1.02945883      -0.98556970
16
Frame=14 idx=008729 GeodesicLength=2.1188447339647807 rxn_smarts="[C:1]([C@@:2]([O:3][H:12])([C:4]([C:5](=[O:6])[N:7]([H:15])[H:16])([H:13])[H:14])[H:11])([H:8])([H:9])[H:10]>>[C:1]([C:2]([O:3][H:12])=[C:4]([H:13])[H:14])([H:8])([H:9])[H:10].[C:5](=[O:6])=[N:7][H:15].[H:11][H:16]"
C       -1.94755366      -0.03725567      -0.62245869
C       -0.65197565       0.24675654       0.08307297
O       -0.66579132       1.40253835       0.85006761
C        0.01856840      -0.83260186       0.75139100
C        2.14899977      -1.08336963       0.10906730
O        2.90095838      -1.98201196       0.33439053
N        2.28191730       0.16282110      -0.18139842
H       -2.79569119      -0.01319032       0.06481797
H       -1.91519969      -1.00145508      -1.12900500
H       -2.11253516       0.72099043      -1.39271317
H        0.26105163       1.17886986      -1.22869492
H       -1.13490962       2.09001785       0.37148958
H        0.01702807      -0.74988613       1.83813644
H       -0.35558428      -1.82430206       0.50897474
H        2.58464865       0.68598815       0.63186322
H        1.36606836       1.03609044      -0.98900116
16
Frame=15 idx=008729 GeodesicLength=2.2733303184256424 rxn_smarts="[C:1]([C@@:2]([O:3][H:12])([C:4]([C:5](=[O:6])[N:7]([H:15])[H:16])([H:13])[H:14])[H:11])([H:8])([H:9])[H:10]>>[C:1]([C:2]([O:3][H:12])=[C:4]([H:13])[H:14])([H:8])([H:9])[H:10].[C:5](=[O:6])=[N:7][H:15].[H:11][H:16]"
C       -1.98485194      -0.02600242      -0.59369042
C       -0.65042058       0.22741989       0.05158510
O       -0.61283636       1.39426510       0.81298462
C       -0.00145594      -0.86294997       0.72145933
C        2.21243324      -1.06382583       0.10909252
O        2.99829601      -1.93705613       0.30346420
N        2.28575406       0.19876771      -0.12122754
H       -2.80910085       0.08068392       0.11428532
H       -2.03465439      -1.01570166      -1.04631300
H       -2.12750667       0.69860880      -1.40027117
H        0.26965632       1.10964142      -1.27522223
H       -1.05753994       2.09258553       0.32747200
H       -0.02756898      -0.79661159       1.80895252
H       -0.35306795      -1.85223965       0.44205398
H        2.48459085       0.70625879       0.73256916
H        1.40827311       1.04615608      -0.98719438
16
Frame=16 idx=008729 GeodesicLength=2.430161773864118 rxn_smarts="[C:1]([C@@:2]([O:3][H:12])([C:4]([C:5](=[O:6])[N:7]([H:15])[H:16])([H:13])[H:14])[H:11])([H:8])([H:9])[H:10]>>[C:1]([C:2]([O:3][H:12])=[C:4]([H:13])[H:14])([H:8])([H:9])[H:10].[C:5](=[O:6])=[N:7][H:15].[H:11][H:16]"
C       -2.01975436      -0.01225388      -0.56454430
C       -0.65017072       0.20719346       0.02038022
O       -0.56139462       1.38212854       0.77737816
C       -0.02321039      -0.89491037       0.69031948
C        2.27772825      -1.04122381       0.11408940
O        3.10041129      -1.88242318       0.28020899
N        2.28392060       0.23082193      -0.06455873
H       -2.81535730       0.17748663       0.15848768
H       -2.15117959      -1.02016662      -0.95606435
H       -2.14294709       0.67401973      -1.40740436
H        0.28010034       1.04025409      -1.31689541
H       -0.98111162       2.09054198       0.28485028
H       -0.07361780      -0.84531162       1.77777592
H       -0.35202955      -1.87943772       0.37210430
H        2.37904992       0.71754821       0.81826586
H        1.44956263       1.05573265      -0.98439312
