14
Frame=0 idx=001164 GeodesicLength=0.0 rxn_smarts="[C:1]([O:2][C:3]([C:4](=[O:5])[C:6]([H:12])([H:13])[H:14])([H:10])[H:11])([H:7])([H:8])[H:9]>>[C:1]([O:2]/[C:3](=[C:4](/[O:5][H:10])[C:6]([H:12])([H:13])[H:14])[H:11])([H:7])([H:8])[H:9]"
C       -2.09082424       0.58385779      -0.05158028
O       -1.08285364       0.21155559       0.86074140
C       -0.26070012      -0.80656545       0.41914924
C        1.10891359      -0.57144007       0.12825736
O        1.73807651      -1.67236173       0.31160327
C        1.80761173       0.67533605      -0.25467068
H       -2.73921368      -0.26661737      -0.29452259
H       -2.68982513       1.35967236       0.42380101
H       -1.66589639       0.97704365      -0.98336912
H        0.60521727      -1.92783817       0.84186782
H       -0.71111769      -1.48951774      -0.30886434
H        2.62907670       0.88302526       0.43071109
H        1.11689194       1.51605829      -0.27321633
H        2.23464312       0.52779154      -1.24990781
14
Frame=1 idx=001164 GeodesicLength=0.05138211684862892 rxn_smarts="[C:1]([O:2][C:3]([C:4](=[O:5])[C:6]([H:12])([H:13])[H:14])([H:10])[H:11])([H:7])([H:8])[H:9]>>[C:1]([O:2]/[C:3](=[C:4](/[O:5][H:10])[C:6]([H:12])([H:13])[H:14])[H:11])([H:7])([H:8])[H:9]"
C       -2.08669484       0.58037906      -0.06933358
O       -1.08487780       0.21342735       0.85168860
C       -0.26116895      -0.80833006       0.42173875
C        1.10891286      -0.57134042       0.13178482
O        1.74071616      -1.66915910       0.32824110
C        1.80453162       0.67810456      -0.24677068
H       -2.73698806      -0.27036510      -0.30635772
H       -2.68487338       1.36341458       0.39513399
H       -1.65664062       0.96225027      -1.00346368
H        0.60146869      -1.92853498       0.86787034
H       -0.71161535      -1.50170252      -0.29628338
H        2.68887039       0.83717298       0.36985155
H        1.14502348       1.53951347      -0.16026628
H        2.13333579       0.57516990      -1.28383381
14
Frame=2 idx=001164 GeodesicLength=0.10340788055464166 rxn_smarts="[C:1]([O:2][C:3]([C:4](=[O:5])[C:6]([H:12])([H:13])[H:14])([H:10])[H:11])([H:7])([H:8])[H:9]>>[C:1]([O:2]/[C:3](=[C:4](/[O:5][H:10])[C:6]([H:12])([H:13])[H:14])[H:11])([H:7])([H:8])[H:9]"
C       -2.08194386       0.57709619      -0.08723863
O       -1.08557726       0.21635003       0.84191342
C       -0.26143590      -0.81003255       0.42431170
C        1.10878295      -0.57198551       0.13308510
O        1.74362123      -1.66579262       0.34492871
C        1.80079620       0.68097843      -0.23924518
H       -2.73406040      -0.27396049      -0.31804210
H       -2.67939831       1.36694362       0.36640264
H       -1.64702302       0.94763565      -1.02361098
H        0.59782960      -1.92869690       0.89394198
H       -0.71278485      -1.51407252      -0.28258327
H        2.74038794       0.79301816       0.30120862
H        1.18041667       1.55479392      -0.04898873
H        2.03038901       0.62772459      -1.30608327
14
Frame=3 idx=001164 GeodesicLength=0.1555329481290931 rxn_smarts="[C:1]([O:2][C:3]([C:4](=[O:5])[C:6]([H:12])([H:13])[H:14])([H:10])[H:11])([H:7])([H:8])[H:9]>>[C:1]([O:2]/[C:3](=[C:4](/[O:5][H:10])[C:6]([H:12])([H:13])[H:14])[H:11])([H:7])([H:8])[H:9]"
C       -2.07632825       0.57422018      -0.10497732
O       -1.08447472       0.22015553       0.83135873
C       -0.26140936      -0.81204565       0.42638590
C        1.10818639      -0.57445297       0.12872361
O        1.74690787      -1.66264091       0.36003922
C        1.79657448       0.68374619      -0.23199469
H       -2.73166724      -0.27669189      -0.32700311
H       -2.67118560       1.37244522       0.33717688
H       -1.63757656       0.93118681      -1.04476827
H        0.59505163      -1.92784340       0.92030039
H       -0.71582440      -1.52789877      -0.26643553
H        2.78111413       0.75272568       0.22983183
H        1.21999623       1.56050940       0.05740617
H        1.93063539       0.68658456      -1.31604382
14
Frame=4 idx=001164 GeodesicLength=0.20856408746905847 rxn_smarts="[C:1]([O:2][C:3]([C:4](=[O:5])[C:6]([H:12])([H:13])[H:14])([H:10])[H:11])([H:7])([H:8])[H:9]>>[C:1]([O:2]/[C:3](=[C:4](/[O:5][H:10])[C:6]([H:12])([H:13])[H:14])[H:11])([H:7])([H:8])[H:9]"
C       -2.07076354       0.57130039      -0.12281609
O       -1.08194463       0.22549661       0.81962259
C       -0.26118091      -0.81358719       0.42789907
C        1.10739708      -0.57787605       0.12072105
O        1.75027959      -1.65924744       0.37456386
C        1.79245969       0.68645377      -0.22492522
H       -2.72956089      -0.27965621      -0.33420754
H       -2.66258383       1.37810531       0.30761285
H       -1.62941947       0.91357805      -1.06680823
H        0.59243749      -1.92559147       0.94698936
H       -0.71988750      -1.54187020      -0.24886413
H        2.81369314       0.71493740       0.15392599
H        1.26608211       1.55793630       0.16069964
H        1.83299168       0.75002073      -1.31441320
14
Frame=5 idx=001164 GeodesicLength=0.262122638508707 rxn_smarts="[C:1]([O:2][C:3]([C:4](=[O:5])[C:6]([H:12])([H:13])[H:14])([H:10])[H:11])([H:7])([H:8])[H:9]>>[C:1]([O:2]/[C:3](=[C:4](/[O:5][H:10])[C:6]([H:12])([H:13])[H:14])[H:11])([H:7])([H:8])[H:9]"
C       -2.06506111       0.56844578      -0.14065003
O       -1.07800194       0.23193223       0.80681807
C       -0.26067845      -0.81484585       0.42867335
C        1.10631166      -0.58256193       0.10827063
O        1.75386419      -1.65550622       0.38788567
C        1.78834659       0.68888716      -0.21796951
H       -2.72818248      -0.28230571      -0.33892360
H       -2.65255533       1.38480762       0.27741763
H       -1.62250553       0.89406794      -1.08989781
H        0.59040908      -1.92164571       0.97399986
H       -0.72520349      -1.55625564      -0.22949367
H        2.83757272       0.68104368       0.07566289
H        1.31647448       1.54633266       0.25929283
H        1.73920960       0.81760398      -1.30108632
14
Frame=6 idx=001164 GeodesicLength=0.3164837078400646 rxn_smarts="[C:1]([O:2][C:3]([C:4](=[O:5])[C:6]([H:12])([H:13])[H:14])([H:10])[H:11])([H:7])([H:8])[H:9]>>[C:1]([O:2]/[C:3](=[C:4](/[O:5][H:10])[C:6]([H:12])([H:13])[H:14])[H:11])([H:7])([H:8])[H:9]"
C       -2.05956462       0.56550371      -0.15847034
O       -1.07297694       0.23951702       0.79301184
C       -0.25995991      -0.81555764       0.42881597
C        1.10509515      -0.58791254       0.09304047
O        1.75751855      -1.65120040       0.40029688
C        1.78438164       0.69112051      -0.21107610
H       -2.72731652      -0.28498789      -0.34178216
H       -2.64215850       1.39171783       0.24682554
H       -1.61708731       0.87317092      -1.11368424
H        0.58860928      -1.91616870       1.00098396
H       -0.73114703      -1.57020940      -0.20914586
H        2.85350788       0.65102632      -0.00504763
H        1.37169518       1.52661267       0.35261336
H        1.64940315       0.88736760      -1.27638168
14
Frame=7 idx=001164 GeodesicLength=0.37140194779071567 rxn_smarts="[C:1]([O:2][C:3]([C:4](=[O:5])[C:6]([H:12])([H:13])[H:14])([H:10])[H:11])([H:7])([H:8])[H:9]>>[C:1]([O:2]/[C:3](=[C:4](/[O:5][H:10])[C:6]([H:12])([H:13])[H:14])[H:11])([H:7])([H:8])[H:9]"
C       -2.05400338       0.56262569      -0.17611883
O       -1.06716285       0.24762139       0.77866304
C       -0.25903001      -0.81597875       0.42847428
C        1.10371687      -0.59382863       0.07563934
O        1.76134053      -1.64624147       0.41152829
C        1.78027247       0.69309725      -0.20431543
H       -2.72685775      -0.28721453      -0.34309731
H       -2.63093134       1.39909832       0.21593554
H       -1.61252699       0.85112183      -1.13771688
H        0.58722403      -1.90944274       1.02765058
H       -0.73753127      -1.58366673      -0.18800421
H        2.86132074       0.62601751      -0.08661144
H        1.42975981       1.49931596       0.43891666
H        1.56440914       0.95747490      -1.24094362
14
Frame=8 idx=001164 GeodesicLength=0.42689487210050175 rxn_smarts="[C:1]([O:2][C:3]([C:4](=[O:5])[C:6]([H:12])([H:13])[H:14])([H:10])[H:11])([H:7])([H:8])[H:9]>>[C:1]([O:2]/[C:3](=[C:4](/[O:5][H:10])[C:6]([H:12])([H:13])[H:14])[H:11])([H:7])([H:8])[H:9]"
C       -2.04841528       0.55978335      -0.19352420
O       -1.06091376       0.25602598       0.76410952
C       -0.25796495      -0.81609972       0.42794586
C        1.10216853      -0.59987009       0.05715612
O        1.76519224      -1.64066851       0.42122739
C        1.77592256       0.69494662      -0.19766565
H       -2.72659536      -0.28901815      -0.34342801
H       -2.61927046       1.40659714       0.18488600
H       -1.60848984       0.82831668      -1.16155901
H        0.58621529      -1.90177102       1.05373124
H       -0.74406647      -1.59628644      -0.16637821
H        2.86137875       0.60605798      -0.16804854
H        1.49011799       1.46586428       0.51725539
H        1.48472076       1.02612190      -1.19570788
14
Frame=9 idx=001164 GeodesicLength=0.4828089848102465 rxn_smarts="[C:1]([O:2][C:3]([C:4](=[O:5])[C:6]([H:12])([H:13])[H:14])([H:10])[H:11])([H:7])([H:8])[H:9]>>[C:1]([O:2]/[C:3](=[C:4](/[O:5][H:10])[C:6]([H:12])([H:13])[H:14])[H:11])([H:7])([H:8])[H:9]"
C       -2.04247327       0.55715331      -0.21051738
O       -1.05461811       0.26407486       0.74999462
C       -0.25683463      -0.81623762       0.42755262
C        1.10041435      -0.60586122       0.03850418
O        1.76915647      -1.63453008       0.42947633
C        1.77098642       0.69671677      -0.19127901
H       -2.72615771      -0.29003835      -0.34366624
H       -2.60698756       1.41418866       0.15403230
H       -1.60398584       0.80556764      -1.18453032
H        0.58560994      -1.89377273       1.07898144
H       -0.75053344      -1.60805428      -0.14459503
H        2.85390757       0.59165173      -0.24810264
H        1.55104879       1.42781147       0.58638896
H        1.41046703       1.09132984      -1.14223984
14
Frame=10 idx=001164 GeodesicLength=0.5391602570444114 rxn_smarts="[C:1]([O:2][C:3]([C:4](=[O:5])[C:6]([H:12])([H:13])[H:14])([H:10])[H:11])([H:7])([H:8])[H:9]>>[C:1]([O:2]/[C:3](=[C:4](/[O:5][H:10])[C:6]([H:12])([H:13])[H:14])[H:11])([H:7])([H:8])[H:9]"
C       -2.03610921       0.55472659      -0.22712274
O       -1.04857004       0.27158284       0.73664361
C       -0.25572011      -0.81643970       0.42762132
C        1.09833672      -0.61159442       0.02011571
O        1.77309546      -1.62801085       0.43592982
C        1.76534065       0.69851035      -0.18515080
H       -2.72532865      -0.29033614      -0.34442761
H       -2.59426522       1.42167220       0.12339158
H       -1.59849255       0.78324594      -1.20636417
H        0.58549111      -1.88561201       1.10348169
H       -0.75690576      -1.61899580      -0.12252349
H        2.83943147       0.58241806      -0.32610309
H        1.61208216       1.38652479       0.64631029
H        1.34161396       1.15230816      -1.08180214
14
Frame=11 idx=001164 GeodesicLength=0.5959663779069247 rxn_smarts="[C:1]([O:2][C:3]([C:4](=[O:5])[C:6]([H:12])([H:13])[H:14])([H:10])[H:11])([H:7])([H:8])[H:9]>>[C:1]([O:2]/[C:3](=[C:4](/[O:5][H:10])[C:6]([H:12])([H:13])[H:14])[H:11])([H:7])([H:8])[H:9]"
C       -2.02909909       0.55258823      -0.24334222
O       -1.04302511       0.27821837       0.72444391
C       -0.25467924      -0.81688235       0.42841156
C        1.09584327      -0.61704920       0.00229254
O        1.77701210      -1.62123939       0.44065978
C        1.75878366       0.70034729      -0.17936400
H       -2.72384513      -0.28981599      -0.34642231
H       -2.58099271       1.42902117       0.09307183
H       -1.59128449       0.76188118      -1.22677305
H        0.58592514      -1.87754365       1.12735526
H       -0.76316720      -1.62926035      -0.10009192
H        2.81838420       0.57822448      -0.40162823
H        1.67240726       1.34313604       0.69705585
H        1.27773733       1.20837416      -1.01566899
14
Frame=12 idx=001164 GeodesicLength=0.65314700636174 rxn_smarts="[C:1]([O:2][C:3]([C:4](=[O:5])[C:6]([H:12])([H:13])[H:14])([H:10])[H:11])([H:7])([H:8])[H:9]>>[C:1]([O:2]/[C:3](=[C:4](/[O:5][H:10])[C:6]([H:12])([H:13])[H:14])[H:11])([H:7])([H:8])[H:9]"
C       -2.02146807       0.55071057      -0.25918491
O       -1.03814423       0.28394842       0.71354329
C       -0.25377444      -0.81755135       0.43005453
C        1.09286475      -0.62212654      -0.01476065
O        1.78081067      -1.61433043       0.44373782
C        1.75130033       0.70228005      -0.17390448
H       -2.72155064      -0.28868643      -0.35011949
H       -2.56747269       1.43597712       0.06326281
H       -1.58210827       0.74189251      -1.24560850
H        0.58685536      -1.86966293       1.15071003
H       -0.76931088      -1.63886465      -0.07730951
H        2.79129192       0.57846188      -0.47431352
H        1.73191056       1.29873177       0.73889438
H        1.21879562       1.25921999      -0.94500179
14
Frame=13 idx=001164 GeodesicLength=0.710791810112837 rxn_smarts="[C:1]([O:2][C:3]([C:4](=[O:5])[C:6]([H:12])([H:13])[H:14])([H:10])[H:11])([H:7])([H:8])[H:9]>>[C:1]([O:2]/[C:3](=[C:4](/[O:5][H:10])[C:6]([H:12])([H:13])[H:14])[H:11])([H:7])([H:8])[H:9]"
C       -2.01293849       0.54923577      -0.27460485
O       -1.03405856       0.28842075       0.70425728
C       -0.25302675      -0.81868976       0.43262501
C        1.08943924      -0.62696100      -0.03072803
O        1.78463640      -1.60724456       0.44592638
C        1.74271010       0.70426363      -0.16888945
H       -2.71817596      -0.28681631      -0.35617016
H       -2.55345177       1.44261007       0.03427388
H       -1.57032603       0.72392111      -1.26264006
H        0.58813904      -1.86237940       1.17362394
H       -0.77525848      -1.64796939      -0.05446496
H        2.75842681       0.58298940      -0.54422285
H        1.78990169       1.25433406       0.77192056
H        1.16398275       1.30428563      -0.87090670
14
Frame=14 idx=001164 GeodesicLength=0.7686832157042385 rxn_smarts="[C:1]([O:2][C:3]([C:4](=[O:5])[C:6]([H:12])([H:13])[H:14])([H:10])[H:11])([H:7])([H:8])[H:9]>>[C:1]([O:2]/[C:3](=[C:4](/[O:5][H:10])[C:6]([H:12])([H:13])[H:14])[H:11])([H:7])([H:8])[H:9]"
C       -2.00384555       0.54794620      -0.28975319
O       -1.03076112       0.29210536       0.69626661
C       -0.25247369      -0.81996952       0.43612620
C        1.08540521      -0.63142450      -0.04603177
O        1.78817298      -1.60020030       0.44654115
C        1.73323774       0.70634262      -0.16416435
H       -2.71381699      -0.28475179      -0.36436318
H       -2.53953827       1.44859517       0.00591806
H       -1.55636644       0.70769385      -1.27814271
H        0.58989421      -1.85512456       1.19638507
H       -0.78118097      -1.65654278      -0.03105276
H        2.72040003       0.59091481      -0.61092416
H        1.84699614       1.21002820       0.79703628
H        1.11387672       1.34438724      -0.79384124
14
Frame=15 idx=001164 GeodesicLength=0.8270397584613077 rxn_smarts="[C:1]([O:2][C:3]([C:4](=[O:5])[C:6]([H:12])([H:13])[H:14])([H:10])[H:11])([H:7])([H:8])[H:9]>>[C:1]([O:2]/[C:3](=[C:4](/[O:5][H:10])[C:6]([H:12])([H:13])[H:14])[H:11])([H:7])([H:8])[H:9]"
C       -1.99378625       0.54708435      -0.30450030
O       -1.02830029       0.29449251       0.68990896
C       -0.25210304      -0.82179109       0.44049474
C        1.08095883      -0.63578343      -0.06016322
O        1.79174971      -1.59298354       0.44699432
C        1.72265550       0.70843599      -0.15988937
H       -2.70818969      -0.28215675      -0.37528389
H       -2.52517038       1.45421089      -0.02133303
H       -1.53957256       0.69392709      -1.29184580
H        0.59177815      -1.84861049       1.21895241
H       -0.78690493      -1.66477432      -0.00781731
H        2.67719697       0.60226253      -0.67480281
H        1.90235940       1.16696768       0.81409028
H        1.06732858       1.37871858      -0.71480498
14
Frame=16 idx=001164 GeodesicLength=0.8854921784755965 rxn_smarts="[C:1]([O:2][C:3]([C:4](=[O:5])[C:6]([H:12])([H:13])[H:14])([H:10])[H:11])([H:7])([H:8])[H:9]>>[C:1]([O:2]/[C:3](=[C:4](/[O:5][H:10])[C:6]([H:12])([H:13])[H:14])[H:11])([H:7])([H:8])[H:9]"
C       -1.98319771       0.54639088      -0.31899560
O       -1.02657244       0.29621519       0.68467883
C       -0.25192749      -0.82371880       0.44564273
C        1.07594147      -0.63988764      -0.07370572
O        1.79500376      -1.58582554       0.44637177
C        1.71125388       0.71056998      -0.15590894
H       -2.70142349      -0.27964754      -0.38845242
H       -2.51111592       1.45907472      -0.04769410
H       -1.52063495       0.68219762      -1.30407706
H        0.59395029      -1.84206161       1.24156956
H       -0.79261024      -1.67254894       0.01582318
H        2.62959295       0.61619742      -0.73512474
H        1.95653108       1.12477136       0.82394288
H        1.02520881       1.40827290      -0.63407035
