19
Frame=0 idx=010810 GeodesicLength=0.0 rxn_smarts="[C:1]([C:2]([C:3]([C:4]([C:5]#[C:6][C:7]([H:17])([H:18])[H:19])([H:15])[H:16])([H:13])[H:14])([H:11])[H:12])([H:8])([H:9])[H:10]>>[C:1]([C:2](=[C:3]([H:13])[H:14])[H:12])([H:8])([H:9])[H:10].[C:4](=[C:5]=[C:6]([C:7]([H:17])([H:18])[H:19])[H:11])([H:15])[H:16]"
C       -1.70847424       0.84654937       1.01110697
C       -1.33002925      -0.15736623      -0.05386568
C       -1.13677010       0.24322108      -1.37410800
C        0.89332224       0.42386227      -1.92236645
C        1.50848349      -0.06114844      -0.81423539
C        1.31656330      -0.52363159       0.34241301
C        1.97052308      -1.04473707       1.56490901
H       -1.17169987       1.78645506       0.86428073
H       -2.77914518       1.06885212       0.98632464
H       -1.47261279       0.48539897       2.01404890
H        0.04713336      -0.47439984       0.34717668
H       -1.69485221      -1.17000655       0.10078317
H       -1.32564493       1.27982952      -1.62929331
H       -1.35567060      -0.46354221      -2.16415273
H        0.88185506      -0.18585544      -2.82013817
H        0.94849457       1.49076017      -2.11443178
H        1.71946070      -0.42696170       2.42936330
H        3.05395916      -1.05610334       1.45250652
H        1.63510413      -2.06117608       1.77967858
19
Frame=1 idx=010810 GeodesicLength=0.15411406596140345 rxn_smarts="[C:1]([C:2]([C:3]([C:4]([C:5]#[C:6][C:7]([H:17])([H:18])[H:19])([H:15])[H:16])([H:13])[H:14])([H:11])[H:12])([H:8])([H:9])[H:10]>>[C:1]([C:2](=[C:3]([H:13])[H:14])[H:12])([H:8])([H:9])[H:10].[C:4](=[C:5]=[C:6]([C:7]([H:17])([H:18])[H:19])[H:11])([H:15])[H:16]"
C       -1.77124044       0.81069713       1.02619934
C       -1.34999083      -0.14248476      -0.06836155
C       -1.12809000       0.30504827      -1.37008667
C        0.90715444       0.36614689      -1.93977314
C        1.52787981      -0.08181571      -0.81746790
C        1.34190260      -0.51201216       0.35248617
C        2.01843715      -1.01851470       1.56925412
H       -1.22090114       1.75099654       0.94969312
H       -2.83762271       1.04669281       0.96840708
H       -1.58597076       0.39614157       2.01929237
H        0.04402386      -0.45070798       0.36785314
H       -1.72458749      -1.15893580       0.03391069
H       -1.25026662       1.36387036      -1.57078617
H       -1.42756842      -0.33499877      -2.19065666
H        0.85398418      -0.29547595      -2.79866506
H        1.02985400       1.41167600      -2.20526707
H        1.81700795      -0.36973034       2.42402376
H        3.09685939      -1.06983173       1.42300815
H        1.65913502      -2.01676166       1.82693630
19
Frame=2 idx=010810 GeodesicLength=0.3041491402062993 rxn_smarts="[C:1]([C:2]([C:3]([C:4]([C:5]#[C:6][C:7]([H:17])([H:18])[H:19])([H:15])[H:16])([H:13])[H:14])([H:11])[H:12])([H:8])([H:9])[H:10]>>[C:1]([C:2](=[C:3]([H:13])[H:14])[H:12])([H:8])([H:9])[H:10].[C:4](=[C:5]=[C:6]([C:7]([H:17])([H:18])[H:19])[H:11])([H:15])[H:16]"
C       -1.83431263       0.77547864       1.03588650
C       -1.37037591      -0.12754417      -0.08309433
C       -1.11807595       0.36533913      -1.36409846
C        0.91659357       0.30954258      -1.95291358
C        1.54585869      -0.10516453      -0.82075591
C        1.36804125      -0.50221330       0.36212242
C        2.06832120      -0.99288315       1.57235986
H       -1.27259986       1.71199073       1.02939366
H       -2.89462748       1.02792485       0.94617373
H       -1.69973859       0.30895964       2.01419453
H        0.04062116      -0.42563380       0.39094500
H       -1.75482613      -1.14496143      -0.03385845
H       -1.17096782       1.43955187      -1.50722612
H       -1.48811552      -0.19914639      -2.21148872
H        0.81797990      -0.39740472      -2.77095587
H        1.10197524       1.32545257      -2.28858134
H        1.91757819      -0.31378082       2.41406871
H        3.13925247      -1.08498935       1.39309644
H        1.68741823      -1.97051835       1.87473195
19
Frame=3 idx=010810 GeodesicLength=0.4508412705056726 rxn_smarts="[C:1]([C:2]([C:3]([C:4]([C:5]#[C:6][C:7]([H:17])([H:18])[H:19])([H:15])[H:16])([H:13])[H:14])([H:11])[H:12])([H:8])([H:9])[H:10]>>[C:1]([C:2](=[C:3]([H:13])[H:14])[H:12])([H:8])([H:9])[H:10].[C:4](=[C:5]=[C:6]([C:7]([H:17])([H:18])[H:19])[H:11])([H:15])[H:16]"
C       -1.89695956       0.74177534       1.04028072
C       -1.39139990      -0.11280366      -0.09794908
C       -1.10714401       0.42307320      -1.35633950
C        0.92185941       0.25521731      -1.96167584
C        1.56223596      -0.13023832      -0.82347614
C        1.39472101      -0.49486896       0.37133127
C        2.11994926      -0.96836859       1.57412863
H       -1.32552676       1.67017448       1.10255354
H       -2.94935903       1.01371083       0.92024231
H       -1.81299786       0.22543786       1.99923844
H        0.03667161      -0.39995146       0.41624198
H       -1.78651244      -1.12799485      -0.10175699
H       -1.09056862       1.50508446      -1.44022565
H       -1.53657322      -0.06011056      -2.22615357
H        0.77587364      -0.49009758      -2.73776801
H        1.16412115       1.23463580      -2.36363762
H        2.01924261      -0.26056525       2.39975514
H        3.18125547      -1.10033830       1.36336738
H        1.72111128      -1.92377176       1.92184298
19
Frame=4 idx=010810 GeodesicLength=0.5949968054093494 rxn_smarts="[C:1]([C:2]([C:3]([C:4]([C:5]#[C:6][C:7]([H:17])([H:18])[H:19])([H:15])[H:16])([H:13])[H:14])([H:11])[H:12])([H:8])([H:9])[H:10]>>[C:1]([C:2](=[C:3]([H:13])[H:14])[H:12])([H:8])([H:9])[H:10].[C:4](=[C:5]=[C:6]([C:7]([H:17])([H:18])[H:19])[H:11])([H:15])[H:16]"
C       -1.95897958       0.70950504       1.03980129
C       -1.41319307      -0.09856157      -0.11307291
C       -1.09554631       0.47803162      -1.34692113
C        0.92352837       0.20380189      -1.96628242
C        1.57702302      -0.15690050      -0.82541386
C        1.42178768      -0.49035941       0.38017663
C        2.17315235      -0.94485527       1.57465672
H       -1.37964161       1.62580902       1.16918214
H       -3.00175021       1.00350230       0.89161070
H       -1.92497006       0.14582320       1.97506637
H        0.03201676      -0.37425549       0.44345327
H       -1.82003448      -1.10816447      -0.16997456
H       -1.01107777       1.56023535      -1.37047287
H       -1.57322884       0.07994445      -2.23487720
H        0.72951883      -0.57293090      -2.70021511
H        1.21685324       1.14119732      -2.43015225
H        2.12329047      -0.20881767       2.38020981
H        3.22239380      -1.11779094       1.33362296
H        1.75885742      -1.87521398       1.96960240
19
Frame=5 idx=010810 GeodesicLength=0.7369708217922731 rxn_smarts="[C:1]([C:2]([C:3]([C:4]([C:5]#[C:6][C:7]([H:17])([H:18])[H:19])([H:15])[H:16])([H:13])[H:14])([H:11])[H:12])([H:8])([H:9])[H:10]>>[C:1]([C:2](=[C:3]([H:13])[H:14])[H:12])([H:8])([H:9])[H:10].[C:4](=[C:5]=[C:6]([C:7]([H:17])([H:18])[H:19])[H:11])([H:15])[H:16]"
C       -2.01980998       0.67896175       1.03507707
C       -1.43604862      -0.08496249      -0.12860657
C       -1.08353832       0.52994215      -1.33605299
C        0.92213889       0.15552944      -1.96708731
C        1.59016461      -0.18475521      -0.82630669
C        1.44896400      -0.48907861       0.38874640
C        2.22764490      -0.92222275       1.57404552
H       -1.43351497       1.57896589       1.22970468
H       -3.05115360       0.99804090       0.86142921
H       -2.03520747       0.07054680       1.94258682
H        0.02626083      -0.35000883       0.47206183
H       -1.85645756      -1.08524392      -0.23860874
H       -0.93414148       1.60507860      -1.29901976
H       -1.59888052       0.21886464      -2.23789958
H        0.68057627      -0.64614883      -2.65923065
H        1.26084318       1.04643305      -2.48849872
H        2.22729964      -0.15920499       2.35587416
H        3.26291660      -1.13509850       1.30480866
H        1.80194361      -1.82563909       2.01697665
19
Frame=6 idx=010810 GeodesicLength=0.8773871634821553 rxn_smarts="[C:1]([C:2]([C:3]([C:4]([C:5]#[C:6][C:7]([H:17])([H:18])[H:19])([H:15])[H:16])([H:13])[H:14])([H:11])[H:12])([H:8])([H:9])[H:10]>>[C:1]([C:2](=[C:3]([H:13])[H:14])[H:12])([H:8])([H:9])[H:10].[C:4](=[C:5]=[C:6]([C:7]([H:17])([H:18])[H:19])[H:11])([H:15])[H:16]"
C       -2.07983794       0.64988895       1.02646831
C       -1.45992484      -0.07207253      -0.14462807
C       -1.07128950       0.57885434      -1.32376662
C        0.91838239       0.11055214      -1.96434171
C        1.60206628      -0.21257481      -0.82573323
C        1.47653713      -0.48959753       0.39760042
C        2.28348896      -0.90051245       1.57225402
H       -1.48809270       1.53000219       1.28434622
H       -3.09821237       0.99611251       0.83018311
H       -2.14365565      -0.00039810       1.90247699
H        0.01946801      -0.32675576       0.50223100
H       -1.89519546      -1.05934237      -0.30777664
H       -0.86103295       1.64031962      -1.22628434
H       -1.61448282       0.35547273      -2.23548496
H        0.63063843      -0.71077705      -2.61495399
H        1.29675121       0.95114440      -2.53961343
H        2.33378969      -0.11150750       2.32627038
H        3.30211221      -1.15524290       1.27635165
H        1.84848992      -1.77356587       2.06440088
19
Frame=7 idx=010810 GeodesicLength=1.0164538637862144 rxn_smarts="[C:1]([C:2]([C:3]([C:4]([C:5]#[C:6][C:7]([H:17])([H:18])[H:19])([H:15])[H:16])([H:13])[H:14])([H:11])[H:12])([H:8])([H:9])[H:10]>>[C:1]([C:2](=[C:3]([H:13])[H:14])[H:12])([H:8])([H:9])[H:10].[C:4](=[C:5]=[C:6]([C:7]([H:17])([H:18])[H:19])[H:11])([H:15])[H:16]"
C       -2.13881730       0.62236932       1.01452891
C       -1.48506722      -0.05980776      -0.16136660
C       -1.05891434       0.62487307      -1.31017405
C        0.91271901       0.06855187      -1.95842567
C        1.61286760      -0.23996086      -0.82363035
C        1.50451308      -0.49163932       0.40685679
C        2.34050492      -0.87948113       1.56935816
H       -1.54234070       1.47862315       1.33383690
H       -3.14256326       0.99829578       0.79876046
H       -2.25046178      -0.06701510       1.85537647
H        0.01127879      -0.30569336       0.53362075
H       -1.93685542      -1.02998862      -0.37783071
H       -0.79232838       1.66669479      -1.15278540
H       -1.62110691       0.48892836      -2.22783574
H        0.58060407      -0.76796864      -2.56768776
H        1.32534963       0.85533527      -2.58440045
H        2.44031062      -0.06636856       2.29223957
H        3.34051939      -1.17561500       1.24892764
H        1.89978819      -1.72013325       2.11063108
19
Frame=8 idx=010810 GeodesicLength=1.1545229081606603 rxn_smarts="[C:1]([C:2]([C:3]([C:4]([C:5]#[C:6][C:7]([H:17])([H:18])[H:19])([H:15])[H:16])([H:13])[H:14])([H:11])[H:12])([H:8])([H:9])[H:10]>>[C:1]([C:2](=[C:3]([H:13])[H:14])[H:12])([H:8])([H:9])[H:10].[C:4](=[C:5]=[C:6]([C:7]([H:17])([H:18])[H:19])[H:11])([H:15])[H:16]"
C       -2.19712774       0.59596105       0.99950982
C       -1.51146324      -0.04812930      -0.17902207
C       -1.04644703       0.66830502      -1.29521037
C        0.90561117       0.02930203      -1.94960337
C        1.62289763      -0.26658459      -0.81995441
C        1.53320901      -0.49426162       0.41673195
C        2.39881711      -0.85888896       1.56534332
H       -1.59703192       1.42465410       1.37861987
H       -3.18471352       1.00356475       0.76751896
H       -2.35584759      -0.12974630       1.80158102
H        0.00160966      -0.28676016       0.56632601
H       -1.98085442      -0.99701977      -0.44919420
H       -0.72835170       1.68511398      -1.07835681
H       -1.61960947       0.61928653      -2.21508198
H        0.53116774      -0.81874044      -2.51754208
H        1.34719094       0.75913362      -2.62338443
H        2.54898973      -0.02322766       2.25294554
H        3.37747242      -1.19848941       1.22250092
H        1.95448122      -1.66347288       2.15627231
19
Frame=9 idx=010810 GeodesicLength=1.2915720206935672 rxn_smarts="[C:1]([C:2]([C:3]([C:4]([C:5]#[C:6][C:7]([H:17])([H:18])[H:19])([H:15])[H:16])([H:13])[H:14])([H:11])[H:12])([H:8])([H:9])[H:10]>>[C:1]([C:2](=[C:3]([H:13])[H:14])[H:12])([H:8])([H:9])[H:10].[C:4](=[C:5]=[C:6]([C:7]([H:17])([H:18])[H:19])[H:11])([H:15])[H:16]"
C       -2.25466647       0.57058732       0.98176841
C       -1.53935368      -0.03690296      -0.19792678
C       -1.03375111       0.70937161      -1.27877160
C        0.89730129      -0.00783571      -1.93822415
C        1.63207084      -0.29343551      -0.81494189
C        1.56255853      -0.49812475       0.42704257
C        2.45838573      -0.83816631       1.56024190
H       -1.65146182       1.36735633       1.41940328
H       -3.22429250       1.01236468       0.73722608
H       -2.46027050      -0.18866370       1.74125362
H       -0.01000553      -0.27157511       0.60004674
H       -2.02771265      -0.95963923      -0.52250568
H       -0.66875616       1.69608625      -1.00275681
H       -1.61057031       0.74686758      -2.19711922
H        0.48242371      -0.86389319      -2.46518350
H        1.36292518       0.66240583      -2.65662689
H        2.65780769       0.01830538       2.20846206
H        3.41362998      -1.22144881       1.19794161
H        2.01373778      -1.60365969       2.20067025
19
Frame=10 idx=010810 GeodesicLength=1.4279747484073466 rxn_smarts="[C:1]([C:2]([C:3]([C:4]([C:5]#[C:6][C:7]([H:17])([H:18])[H:19])([H:15])[H:16])([H:13])[H:14])([H:11])[H:12])([H:8])([H:9])[H:10]>>[C:1]([C:2](=[C:3]([H:13])[H:14])[H:12])([H:8])([H:9])[H:10].[C:4](=[C:5]=[C:6]([C:7]([H:17])([H:18])[H:19])[H:11])([H:15])[H:16]"
C       -2.31194069       0.54609953       0.96130578
C       -1.56864034      -0.02588901      -0.21816668
C       -1.02093813       0.74820394      -1.26080701
C        0.88808953      -0.04302310      -1.92434902
C        1.64086551      -0.31936505      -0.80840004
C        1.59312994      -0.50158261       0.43807050
C        2.51942188      -0.81748188       1.55392099
H       -1.70672670       1.30686191       1.45610872
H       -3.26198180       1.02382426       0.70787962
H       -2.56399500      -0.24371870       1.67447300
H       -0.02352766      -0.25934743       0.63517305
H       -2.07635596      -0.91759348      -0.59765440
H       -0.61402025       1.70023937      -0.92612753
H       -1.59467608       0.87124230      -2.17380856
H        0.43492226      -0.90456514      -2.40994280
H        1.37261719       0.56490204      -2.68484861
H        2.76825538       0.05749508       2.15877069
H        3.44865622      -1.24602367       1.17498841
H        2.07684469      -1.54027836       2.24341390
19
Frame=11 idx=010810 GeodesicLength=1.5637345390266912 rxn_smarts="[C:1]([C:2]([C:3]([C:4]([C:5]#[C:6][C:7]([H:17])([H:18])[H:19])([H:15])[H:16])([H:13])[H:14])([H:11])[H:12])([H:8])([H:9])[H:10]>>[C:1]([C:2](=[C:3]([H:13])[H:14])[H:12])([H:8])([H:9])[H:10].[C:4](=[C:5]=[C:6]([C:7]([H:17])([H:18])[H:19])[H:11])([H:15])[H:16]"
C       -2.36906158       0.52265419       0.93820598
C       -1.59936014      -0.01481489      -0.23989382
C       -1.00802613       0.78480279      -1.24131344
C        0.87813364      -0.07672227      -1.90810614
C        1.64942812      -0.34432587      -0.80037479
C        1.62514873      -0.50442893       0.44974168
C        2.58199510      -0.79678573       1.54631062
H       -1.76295900       1.24315923       1.48866959
H       -3.29785159       1.03789079       0.67979183
H       -2.66720417      -0.29442310       1.60141588
H       -0.03914955      -0.25032740       0.67178865
H       -2.12644246      -0.87031420      -0.67454074
H       -0.56421581       1.69793407      -0.84868860
H       -1.57249255       0.99203527      -2.14502595
H        0.38883730      -0.94161620      -2.35168157
H        1.37641907       0.46639163      -2.70815337
H        2.87879188       0.09382573       2.10484627
H        3.48336968      -1.27035742       1.15379124
H        2.14463945      -1.47457769       2.28321669
19
Frame=12 idx=010810 GeodesicLength=1.6991060291973814 rxn_smarts="[C:1]([C:2]([C:3]([C:4]([C:5]#[C:6][C:7]([H:17])([H:18])[H:19])([H:15])[H:16])([H:13])[H:14])([H:11])[H:12])([H:8])([H:9])[H:10]>>[C:1]([C:2](=[C:3]([H:13])[H:14])[H:12])([H:8])([H:9])[H:10].[C:4](=[C:5]=[C:6]([C:7]([H:17])([H:18])[H:19])[H:11])([H:15])[H:16]"
C       -2.42646201       0.50004432       0.91231876
C       -1.63134187      -0.00346454      -0.26318290
C       -0.99532296       0.81924493      -1.22038186
C        0.86763875      -0.10886506      -1.88940155
C        1.65832967      -0.36674748      -0.79067057
C        1.65928199      -0.50470892       0.46223003
C        2.64637336      -0.77644080       1.53729894
H       -1.82127244       1.17653523       1.51668944
H       -3.33266469       1.05345783       0.65274396
H       -2.76982030      -0.34082548       1.52211649
H       -0.05671491      -0.24318883       0.71029829
H       -2.17663904      -0.81790264      -0.75279104
H       -0.52010789       1.68990885      -0.77083715
H       -1.54496140       1.10856193      -2.11081552
H        0.34472391      -0.97584888      -2.28940146
H        1.37415335       0.36680374      -2.72680493
H        2.99184542       0.12612822       2.04642447
H        3.51681493      -1.29687543       1.13417207
H        2.21614611      -1.40581699       2.31999454
19
Frame=13 idx=010810 GeodesicLength=1.8338705808896354 rxn_smarts="[C:1]([C:2]([C:3]([C:4]([C:5]#[C:6][C:7]([H:17])([H:18])[H:19])([H:15])[H:16])([H:13])[H:14])([H:11])[H:12])([H:8])([H:9])[H:10]>>[C:1]([C:2](=[C:3]([H:13])[H:14])[H:12])([H:8])([H:9])[H:10].[C:4](=[C:5]=[C:6]([C:7]([H:17])([H:18])[H:19])[H:11])([H:15])[H:16]"
C       -2.48400921       0.47831959       0.88372644
C       -1.66487099       0.00868990      -0.28855315
C       -0.98204014       0.85197424      -1.19733558
C        0.85631093      -0.14102485      -1.86851832
C        1.66675842      -0.39040776      -0.77984992
C        1.69485484      -0.50592915       0.47486160
C        2.71251826      -0.75513139       1.52676439
H       -1.88093507       1.10545679       1.54079648
H       -3.36555650       1.07159046       0.62760276
H       -2.87272085      -0.38265509       1.43580068
H       -0.07721189      -0.24114454       0.75029673
H       -2.22770338      -0.75834647      -0.83353703
H       -0.47985239       1.67565108      -0.69100902
H       -1.51113284       1.22268496      -2.07008101
H        0.30117666      -1.00772848      -2.22434882
H        1.36631821       0.26543422      -2.74001204
H        3.10267723       0.15719054       1.98354034
H        3.55166572      -1.32000731       1.11680473
H        2.29375297      -1.33461674       2.35305075
19
Frame=14 idx=010810 GeodesicLength=1.9683248639677378 rxn_smarts="[C:1]([C:2]([C:3]([C:4]([C:5]#[C:6][C:7]([H:17])([H:18])[H:19])([H:15])[H:16])([H:13])[H:14])([H:11])[H:12])([H:8])([H:9])[H:10]>>[C:1]([C:2](=[C:3]([H:13])[H:14])[H:12])([H:8])([H:9])[H:10].[C:4](=[C:5]=[C:6]([C:7]([H:17])([H:18])[H:19])[H:11])([H:15])[H:16]"
C       -2.54227254       0.45733020       0.85205280
C       -1.69949337       0.02177414      -0.31579918
C       -0.96913357       0.88271940      -1.17272863
C        0.84448173      -0.17223265      -1.84501898
C        1.67583927      -0.41108151      -0.76732412
C        1.73315105      -0.50363419       0.48812163
C        2.78085292      -0.73422687       1.51454374
H       -1.94378875       1.03133914       1.55963653
H       -3.39807359       1.09013667       0.60354321
H       -2.97501008      -0.41975410       1.34298949
H       -0.09993491      -0.24044815       0.79263910
H       -2.27720318      -0.69297253      -0.91523198
H       -0.44572266       1.65636383      -0.61093606
H       -1.47296475       1.33197119      -2.02348835
H        0.25967202      -1.03781464      -2.15431760
H        1.35235157       0.16279325      -2.74806120
H        3.21646544       0.18340752       1.91625269
H        3.58538915      -1.34520667       1.10101015
H        2.37539425      -1.26046402       2.38211676
19
Frame=15 idx=010810 GeodesicLength=2.1023900782460405 rxn_smarts="[C:1]([C:2]([C:3]([C:4]([C:5]#[C:6][C:7]([H:17])([H:18])[H:19])([H:15])[H:16])([H:13])[H:14])([H:11])[H:12])([H:8])([H:9])[H:10]>>[C:1]([C:2](=[C:3]([H:13])[H:14])[H:12])([H:8])([H:9])[H:10].[C:4](=[C:5]=[C:6]([C:7]([H:17])([H:18])[H:19])[H:11])([H:15])[H:16]"
C       -2.60130733       0.43724790       0.81711941
C       -1.73513223       0.03622957      -0.34507356
C       -0.95662782       0.91161033      -1.14651300
C        0.83199431      -0.20311987      -1.81875920
C        1.68549915      -0.42914096      -0.75314460
C        1.77426698      -0.49826260       0.50176050
C        2.85154075      -0.71368253       1.50049131
H       -2.01004579       0.95437141       1.57272909
H       -3.43043225       1.10886311       0.58050191
H       -3.07650640      -0.45169573       1.24364395
H       -0.12516467      -0.24103067       0.83755659
H       -2.32454874      -0.62141548      -0.99762584
H       -0.41764605       1.63237105      -0.53069600
H       -1.43088709       1.43629550      -1.97094776
H        0.21987900      -1.06657120      -2.07882741
H        1.33228492       0.05841963      -2.75035621
H        3.33143373       0.20487574       1.84566954
H        3.61928124      -1.37014773       1.08636772
H        2.46211829      -1.18521747       2.40610357
19
Frame=16 idx=010810 GeodesicLength=2.236156212184667 rxn_smarts="[C:1]([C:2]([C:3]([C:4]([C:5]#[C:6][C:7]([H:17])([H:18])[H:19])([H:15])[H:16])([H:13])[H:14])([H:11])[H:12])([H:8])([H:9])[H:10]>>[C:1]([C:2](=[C:3]([H:13])[H:14])[H:12])([H:8])([H:9])[H:10].[C:4](=[C:5]=[C:6]([C:7]([H:17])([H:18])[H:19])[H:11])([H:15])[H:16]"
C       -2.66132537       0.41780293       0.77855434
C       -1.77164636       0.05249234      -0.37662376
C       -0.94452403       0.93897905      -1.11844863
C        0.81866422      -0.23403589      -1.78942188
C        1.69574413      -0.44462694      -0.73729290
C        1.81847379      -0.48948376       0.51558480
C        2.92487701      -0.69336642       1.48435597
H       -2.08019293       0.87402473       1.57962904
H       -3.46300178       1.12720263       0.55834396
H       -3.17720449      -0.47868032       1.13710035
H       -0.15323849      -0.24281636       0.88534398
H       -2.36888117      -0.54333922      -1.08075414
H       -0.39567245       1.60402528      -0.44996308
H       -1.38526319       1.53592754      -1.91203817
H        0.18151023      -1.09415276      -1.99704344
H        1.30599515      -0.04811637      -2.74622352
H        3.44854780       0.22149783       1.77074923
H        3.65292889      -1.39545066       1.07301978
H        2.55420904      -1.10788362       2.42512806
