19
Frame=0 idx=011037 GeodesicLength=0.0 rxn_smarts="[C:1]([C:2]([C:3]([C@@:4]1([H:15])[C:5]([H:16])([H:17])[C@:6]1([O:7][H:19])[H:18])([H:13])[H:14])([H:11])[H:12])([H:8])([H:9])[H:10]>>[C:1]([C:2](=[C:3]([H:13])[H:14])[H:11])([H:8])([H:9])[H:10].[C:4]1([H:15])=[C:5]([H:17])[C:6]1([O:7][H:19])[H:18].[H:12][H:16]"
C       -2.42922335      -0.56613017      -0.70034952
C       -1.42210234       0.37983989      -0.09764358
C       -0.78006882       0.10419431       1.07294546
C        1.35316390      -0.64647229       0.74872887
C        1.71411354      -0.67785448      -0.54008147
C        2.21271067       0.45415675       0.25180957
O        1.68487945       1.73669848      -0.01099900
H       -2.17024879      -1.60300021      -0.47758503
H       -3.42431233      -0.37690285      -0.28824736
H       -2.49748675      -0.45993580      -1.78377583
H       -1.46219611       1.41466748      -0.42473046
H       -0.27534473       0.17594800      -1.25381199
H       -0.99474541      -0.82262364       1.59178741
H       -0.35424865       0.90061099       1.66576999
H        1.28699345      -1.30286374       1.59780934
H        0.49634119      -0.09541328      -1.38710486
H        2.05946225      -1.36551790      -1.29449334
H        3.26686779       0.50096691       0.53238027
H        1.73544505       2.24963162       0.79759159
19
Frame=1 idx=011037 GeodesicLength=0.11656757767205721 rxn_smarts="[C:1]([C:2]([C:3]([C@@:4]1([H:15])[C:5]([H:16])([H:17])[C@:6]1([O:7][H:19])[H:18])([H:13])[H:14])([H:11])[H:12])([H:8])([H:9])[H:10]>>[C:1]([C:2](=[C:3]([H:13])[H:14])[H:11])([H:8])([H:9])[H:10].[C:4]1([H:15])=[C:5]([H:17])[C:6]1([O:7][H:19])[H:18].[H:12][H:16]"
C       -2.44678031      -0.53959374      -0.70165657
C       -1.41473834       0.37980286      -0.09947137
C       -0.77099482       0.07643769       1.06758736
C        1.37150764      -0.63821938       0.76563720
C        1.73435919      -0.69046330      -0.52622567
C        2.22103204       0.46035555       0.24743655
O        1.68507830       1.73069757      -0.04960757
H       -2.20039267      -1.58491789      -0.50550587
H       -3.43370819      -0.34638498      -0.27248303
H       -2.52767208      -0.41030460      -1.78183856
H       -1.46188007       1.42422708      -0.39428259
H       -0.27412750       0.16859704      -1.27161669
H       -0.98371517      -0.86913450       1.55317750
H       -0.39026059       0.86476762       1.70116898
H        1.33666314      -1.27455060       1.63218302
H        0.51904007      -0.12157626      -1.39536351
H        2.09488163      -1.39844285      -1.25443983
H        3.27452244       0.52406875       0.52567958
H        1.66718528       2.24463394       0.75962108
19
Frame=2 idx=011037 GeodesicLength=0.23231044574988943 rxn_smarts="[C:1]([C:2]([C:3]([C@@:4]1([H:15])[C:5]([H:16])([H:17])[C@:6]1([O:7][H:19])[H:18])([H:13])[H:14])([H:11])[H:12])([H:8])([H:9])[H:10]>>[C:1]([C:2](=[C:3]([H:13])[H:14])[H:11])([H:8])([H:9])[H:10].[C:4]1([H:15])=[C:5]([H:17])[C:6]1([O:7][H:19])[H:18].[H:12][H:16]"
C       -2.46251611      -0.51451941      -0.70236332
C       -1.40839712       0.38057350      -0.10112591
C       -0.76268295       0.05060178       1.06201315
C        1.38810047      -0.62903885       0.78227521
C        1.75330229      -0.70251363      -0.51222182
C        2.22988641       0.46555133       0.24340400
O        1.68895164       1.72411241      -0.08725630
H       -2.22651326      -1.56697535      -0.53319486
H       -3.44161656      -0.32053632      -0.25628385
H       -2.55584535      -0.36184912      -1.77862430
H       -1.46543124       1.43378820      -0.36194371
H       -0.27357323       0.16530590      -1.28946441
H       -0.97240854      -0.91279497       1.51364578
H       -0.42830250       0.82736307       1.73546962
H        1.38266057      -1.24430811       1.66509229
H        0.54196318      -0.14496952      -1.40356119
H        2.12800262      -1.43010020      -1.21363111
H        3.28260373       0.54381995       0.51939350
H        1.60181596       2.23648936       0.71837722
19
Frame=3 idx=011037 GeodesicLength=0.347481923682011 rxn_smarts="[C:1]([C:2]([C:3]([C@@:4]1([H:15])[C:5]([H:16])([H:17])[C@:6]1([O:7][H:19])[H:18])([H:13])[H:14])([H:11])[H:12])([H:8])([H:9])[H:10]>>[C:1]([C:2](=[C:3]([H:13])[H:14])[H:11])([H:8])([H:9])[H:10].[C:4]1([H:15])=[C:5]([H:17])[C:6]1([O:7][H:19])[H:18].[H:12][H:16]"
C       -2.47673861      -0.49079828      -0.70254082
C       -1.40307295       0.38218758      -0.10254251
C       -0.75507065       0.02650134       1.05625939
C        1.40313927      -0.61887718       0.79872283
C        1.77107779      -0.71404303      -0.49797797
C        2.23935123       0.46990625       0.23970516
O        1.69629547       1.71708293      -0.12393957
H       -2.24906702      -1.54916579      -0.56080271
H       -3.44835620      -0.29905544      -0.23977222
H       -2.58239951      -0.31445514      -1.77417167
H       -1.47262236       1.44319182      -0.32757791
H       -0.27368493       0.16598607      -1.30729635
H       -0.96077619      -0.95378505       1.47314831
H       -0.46836369       0.78803453       1.76864770
H        1.42529359      -1.21222644       1.69669636
H        0.56518505      -0.16590505      -1.41171440
H        2.15893521      -1.46061761      -1.17193611
H        3.29127121       0.56053638       0.51352332
H        1.53960328       2.22550210       0.67356918
19
Frame=4 idx=011037 GeodesicLength=0.4622752494129511 rxn_smarts="[C:1]([C:2]([C:3]([C@@:4]1([H:15])[C:5]([H:16])([H:17])[C@:6]1([O:7][H:19])[H:18])([H:13])[H:14])([H:11])[H:12])([H:8])([H:9])[H:10]>>[C:1]([C:2](=[C:3]([H:13])[H:14])[H:11])([H:8])([H:9])[H:10].[C:4]1([H:15])=[C:5]([H:17])[C:6]1([O:7][H:19])[H:18].[H:12][H:16]"
C       -2.48973937      -0.46825998      -0.70223206
C       -1.39871925       0.38465923      -0.10365458
C       -0.74808889       0.00392113       1.05036511
C        1.41681524      -0.60768377       0.81505320
C        1.78784480      -0.72509114      -0.48339910
C        2.24943593       0.47359898       0.23632111
O        1.70675685       1.70970640      -0.15968033
H       -2.26856582      -1.53140714      -0.58843794
H       -3.45419143      -0.28152728      -0.22303289
H       -2.60770153      -0.26794554      -1.76849118
H       -1.48308080       1.45223532      -0.29110767
H       -0.27448497       0.17044506      -1.32507535
H       -0.94873690      -0.99232824       1.43159105
H       -0.51042465       0.74633714       1.80066454
H        1.46486975      -1.17835287       1.72715760
H        0.58879143      -0.18479865      -1.41984326
H        2.18787091      -1.49009161      -1.12920720
H        3.30058848       0.57461723       0.50805908
H        1.48076021       2.21196574       0.62494987
19
Frame=5 idx=011037 GeodesicLength=0.5768157139124007 rxn_smarts="[C:1]([C:2]([C:3]([C@@:4]1([H:15])[C:5]([H:16])([H:17])[C@:6]1([O:7][H:19])[H:18])([H:13])[H:14])([H:11])[H:12])([H:8])([H:9])[H:10]>>[C:1]([C:2](=[C:3]([H:13])[H:14])[H:11])([H:8])([H:9])[H:10].[C:4]1([H:15])=[C:5]([H:17])[C:6]1([O:7][H:19])[H:18].[H:12][H:16]"
C       -2.50178954      -0.44666751      -0.70145358
C       -1.39523854       0.38797748      -0.10439611
C       -0.74166557      -0.01739908       1.04437790
C        1.42930955      -0.59540807       0.83135458
C        1.80379459      -0.73571133      -0.46836881
C        2.26008127       0.47683112       0.23323765
O        1.71984179       1.70203477      -0.19458266
H       -2.28554153      -1.51353983      -0.61623078
H       -3.45932068      -0.26746212      -0.20607722
H       -2.63213443      -0.22201664      -1.76154667
H       -1.49630191       1.46069114      -0.25249516
H       -0.27600563       0.17837379      -1.34278182
H       -0.93617360      -1.02870814       1.38881182
H       -0.55448316       0.70173136       1.83146565
H        1.50167078      -1.14271471       1.75665686
H        0.61288063      -0.20220015      -1.42798248
H        2.21507842      -1.51860498      -1.08527096
H        3.31052028       0.58655879       0.50300278
H        1.42547728       2.19623412       0.57227901
19
Frame=6 idx=011037 GeodesicLength=0.6911523567828282 rxn_smarts="[C:1]([C:2]([C:3]([C@@:4]1([H:15])[C:5]([H:16])([H:17])[C@:6]1([O:7][H:19])[H:18])([H:13])[H:14])([H:11])[H:12])([H:8])([H:9])[H:10]>>[C:1]([C:2](=[C:3]([H:13])[H:14])[H:11])([H:8])([H:9])[H:10].[C:4]1([H:15])=[C:5]([H:17])[C:6]1([O:7][H:19])[H:18].[H:12][H:16]"
C       -2.51313104      -0.42577796      -0.70017462
C       -1.39253659       0.39211007      -0.10469981
C       -0.73574362      -0.03770242       1.03831549
C        1.44076455      -0.58197524       0.84764571
C        1.81910624      -0.74591537      -0.45279834
C        2.27119702       0.47979432       0.23039070
O        1.73503873       1.69409427      -0.22871501
H       -2.30059626      -1.49536474      -0.64409347
H       -3.46392494      -0.25625054      -0.18896117
H       -2.65592188      -0.17650467      -1.75328082
H       -1.51167093       1.46830340      -0.21181622
H       -0.27832957       0.18946257      -1.36041859
H       -0.92297396      -1.06312955       1.34462502
H       -0.60046426       0.65361889       1.86088990
H        1.53595691      -1.10523545       1.78529967
H        0.63757373      -0.21862434      -1.43614494
H        2.24086042      -1.54616572      -1.03992474
H        3.32097777       0.59685228       0.49831121
H        1.37381768       2.17841021       0.51555004
19
Frame=7 idx=011037 GeodesicLength=0.8052897899550823 rxn_smarts="[C:1]([C:2]([C:3]([C@@:4]1([H:15])[C:5]([H:16])([H:17])[C@:6]1([O:7][H:19])[H:18])([H:13])[H:14])([H:11])[H:12])([H:8])([H:9])[H:10]>>[C:1]([C:2](=[C:3]([H:13])[H:14])[H:11])([H:8])([H:9])[H:10].[C:4]1([H:15])=[C:5]([H:17])[C:6]1([O:7][H:19])[H:18].[H:12][H:16]"
C       -2.52399017      -0.40529941      -0.69834449
C       -1.39048102       0.39699662      -0.10449401
C       -0.73027410      -0.05728773       1.03220533
C        1.45130262      -0.56730340       0.86396327
C        1.83398617      -0.75573166      -0.43656384
C        2.28264722       0.48269042       0.22772606
O        1.75176811       1.68586588      -0.26224647
H       -2.31432462      -1.47663434      -0.67199566
H       -3.46814051      -0.24725763      -0.17165495
H       -2.67931254      -0.13110516      -1.74359541
H       -1.52848801       1.47483527      -0.16915502
H       -0.28155119       0.20334042      -1.37800778
H       -0.90900024      -1.09584383       1.29877682
H       -0.64829353       0.60131830       1.88872113
H        1.56795114      -1.06579266       1.81321383
H        0.66300705      -0.23469984      -1.44433978
H        2.26558758      -1.57276795      -0.99291583
H        3.33180269       0.60605092       0.49396583
H        1.32580336       2.15862579       0.45474094
19
Frame=8 idx=011037 GeodesicLength=0.9191930441810054 rxn_smarts="[C:1]([C:2]([C:3]([C@@:4]1([H:15])[C:5]([H:16])([H:17])[C@:6]1([O:7][H:19])[H:18])([H:13])[H:14])([H:11])[H:12])([H:8])([H:9])[H:10]>>[C:1]([C:2](=[C:3]([H:13])[H:14])[H:11])([H:8])([H:9])[H:10].[C:4]1([H:15])=[C:5]([H:17])[C:6]1([O:7][H:19])[H:18].[H:12][H:16]"
C       -2.53456400      -0.38494347      -0.69588958
C       -1.38893061       0.40256200      -0.10370243
C       -0.72521707      -0.07646146       1.02607694
C        1.46100567      -0.55130802       0.88032585
C        1.84863422      -0.76518787      -0.41953837
C        2.29427428       0.48570918       0.22518752
O        1.76946236       1.67730735      -0.29537966
H       -2.32729769      -1.45709958      -0.69986283
H       -3.47207973      -0.23984886      -0.15410606
H       -2.70250145      -0.08552001      -1.73237208
H       -1.54602692       1.48008928      -0.12463122
H       -0.28579228       0.21967270      -1.39559641
H       -0.89410739      -1.12706027       1.25100424
H       -0.69784022       0.54413948       1.91464406
H        1.59782083      -1.02423028       1.84050282
H        0.68932518      -0.25107005      -1.45257692
H        2.28964093      -1.59838035      -0.94396962
H        3.34279911       0.61469924       0.48996534
H        1.28139477       2.13693099       0.38991841
19
Frame=9 idx=011037 GeodesicLength=1.0328908039377294 rxn_smarts="[C:1]([C:2]([C:3]([C@@:4]1([H:15])[C:5]([H:16])([H:17])[C@:6]1([O:7][H:19])[H:18])([H:13])[H:14])([H:11])[H:12])([H:8])([H:9])[H:10]>>[C:1]([C:2](=[C:3]([H:13])[H:14])[H:11])([H:8])([H:9])[H:10].[C:4]1([H:15])=[C:5]([H:17])[C:6]1([O:7][H:19])[H:18].[H:12][H:16]"
C       -2.54502280      -0.36440246      -0.69272316
C       -1.38772797       0.40871166      -0.10223695
C       -0.72055496      -0.09557425       1.01997364
C        1.46991506      -0.53390827       0.89676204
C        1.86327471      -0.77433770      -0.40157179
C        2.30589563       0.48903030       0.22272800
O        1.78755894       1.66833793      -0.32841455
H       -2.34003850      -1.43647382      -0.72768580
H       -3.47580954      -0.23344212      -0.13619550
H       -2.72569241      -0.03934435      -1.71944201
H       -1.56356276       1.48389718      -0.07831792
H       -0.29120310       0.23813797      -1.41322855
H       -0.87815278      -1.15699382       1.20102000
H       -0.74897307       0.48136777       1.93825707
H        1.62565876      -0.98034622       1.86730490
H        0.71673062      -0.26844091      -1.46089429
H        2.31344622      -1.62297962      -0.89279049
H        3.35373030       0.62334908       0.48633496
H        1.24052767       2.11341165       0.32112040
19
Frame=10 idx=011037 GeodesicLength=1.1463335191650603 rxn_smarts="[C:1]([C:2]([C:3]([C@@:4]1([H:15])[C:5]([H:16])([H:17])[C@:6]1([O:7][H:19])[H:18])([H:13])[H:14])([H:11])[H:12])([H:8])([H:9])[H:10]>>[C:1]([C:2](=[C:3]([H:13])[H:14])[H:11])([H:8])([H:9])[H:10].[C:4]1([H:15])=[C:5]([H:17])[C:6]1([O:7][H:19])[H:18].[H:12][H:16]"
C       -2.55550633      -0.34342490      -0.68871124
C       -1.38673314       0.41533462      -0.10002602
C       -0.71627567      -0.11494474       1.01387711
C        1.47801464      -0.51502627       0.91322114
C        1.87809322      -0.78317902      -0.38253374
C        2.31733446       0.49280504       0.22029004
O        1.80559527       1.65886102      -0.36154665
H       -2.35308018      -1.41452468      -0.75523484
H       -3.47941014      -0.22742038      -0.11782953
H       -2.74894392       0.00762841      -1.70463435
H       -1.58037449       1.48612697      -0.03038621
H       -0.29798523       0.25854554      -1.43100706
H       -0.86103272      -1.18571254       1.14854296
H       -0.80136621       0.41236327       1.95896884
H        1.65146845      -0.93392482       1.89361919
H        0.74545472      -0.28741829      -1.46926908
H        2.33737020      -1.64644457      -0.83904808
H        3.36435083       0.63249545       0.48311046
H        1.20302623       2.08785987       0.24859705
19
Frame=11 idx=011037 GeodesicLength=1.2594904338673738 rxn_smarts="[C:1]([C:2]([C:3]([C@@:4]1([H:15])[C:5]([H:16])([H:17])[C@:6]1([O:7][H:19])[H:18])([H:13])[H:14])([H:11])[H:12])([H:8])([H:9])[H:10]>>[C:1]([C:2](=[C:3]([H:13])[H:14])[H:11])([H:8])([H:9])[H:10].[C:4]1([H:15])=[C:5]([H:17])[C:6]1([O:7][H:19])[H:18].[H:12][H:16]"
C       -2.56612233      -0.32177895      -0.68371635
C       -1.38579808       0.42232005      -0.09700087
C       -0.71236528      -0.13489366       1.00775769
C        1.48524700      -0.49462351       0.92964937
C        1.89327458      -0.79174346      -0.36228090
C        2.32839271       0.49714948       0.21783695
O        1.82311521       1.64873367      -0.39499721
H       -2.36684916      -1.39102546      -0.78236621
H       -3.48292223      -0.22129632      -0.09885045
H       -2.77234132       0.05567015      -1.68773553
H       -1.59581864       1.48669010       0.01904450
H       -0.30636846       0.28079973      -1.44903741
H       -0.84265863      -1.21322159       1.09331886
H       -0.85461641       0.33661857       1.97606587
H        1.67517175      -0.88476023       1.91945081
H        0.77576783      -0.30865175      -1.47769512
H        2.36179451      -1.66865351      -0.78241194
H        3.37438555       0.64260299       0.48036057
H        1.16871141       2.06006370       0.17260738
19
Frame=12 idx=011037 GeodesicLength=1.3723754799556853 rxn_smarts="[C:1]([C:2]([C:3]([C@@:4]1([H:15])[C:5]([H:16])([H:17])[C@:6]1([O:7][H:19])[H:18])([H:13])[H:14])([H:11])[H:12])([H:8])([H:9])[H:10]>>[C:1]([C:2](=[C:3]([H:13])[H:14])[H:11])([H:8])([H:9])[H:10].[C:4]1([H:15])=[C:5]([H:17])[C:6]1([O:7][H:19])[H:18].[H:12][H:16]"
C       -2.57696269      -0.29927694      -0.67759071
C       -1.38479434       0.42956278      -0.09310996
C       -0.70880266      -0.15571402       1.00155192
C        1.49152683      -0.47272170       0.94596877
C        1.90900886      -0.80007445      -0.34067872
C        2.33887348       0.50213294       0.21534780
O        1.83969811       1.63777577      -0.42894737
H       -2.38170328      -1.36578493      -0.80891415
H       -3.48638890      -0.21466896      -0.07907768
H       -2.79595985       0.10500216      -1.66852156
H       -1.60935470       1.48553605       0.06985017
H       -0.31663280       0.30495873      -1.46745844
H       -0.82297698      -1.23942130       1.03515878
H       -0.90819575       0.25383788       1.98871595
H        1.69662384      -0.83271491       1.94476582
H        0.80800490      -0.33277799      -1.48617083
H        2.38712081      -1.68945198      -0.72256595
H        3.38355705       0.65408205       0.47817814
H        1.13735807       2.02971883       0.09349802
19
Frame=13 idx=011037 GeodesicLength=1.4850742801429762 rxn_smarts="[C:1]([C:2]([C:3]([C@@:4]1([H:15])[C:5]([H:16])([H:17])[C@:6]1([O:7][H:19])[H:18])([H:13])[H:14])([H:11])[H:12])([H:8])([H:9])[H:10]>>[C:1]([C:2](=[C:3]([H:13])[H:14])[H:11])([H:8])([H:9])[H:10].[C:4]1([H:15])=[C:5]([H:17])[C:6]1([O:7][H:19])[H:18].[H:12][H:16]"
C       -2.58805325      -0.27576953      -0.67018628
C       -1.38358884       0.43695776      -0.08831288
C       -0.70557026      -0.17768031       0.99515862
C        1.49671831      -0.44941314       0.96208786
C        1.92548259      -0.80826430      -0.31758388
C        2.34854482       0.50775700       0.21280326
O        1.85492483       1.62571865      -0.46359448
H       -2.39784128      -1.33859086      -0.83484469
H       -3.48973423      -0.20736384      -0.05824870
H       -2.81989628       0.15589947      -1.64667875
H       -1.62054570       1.48259030       0.12199956
H       -0.32914802       0.33122812      -1.48640390
H       -0.80198419      -1.26413812       0.97391776
H       -0.96154759       0.16403410       1.99597118
H        1.71555751      -0.77762562       1.96953992
H        0.84264119      -0.36047061      -1.49470372
H        2.41372526      -1.70869618      -0.65924793
H        3.39153326       0.66727897       0.47663735
H        1.10878187       1.99654814       0.01168972
19
Frame=14 idx=011037 GeodesicLength=1.597572240959908 rxn_smarts="[C:1]([C:2]([C:3]([C@@:4]1([H:15])[C:5]([H:16])([H:17])[C@:6]1([O:7][H:19])[H:18])([H:13])[H:14])([H:11])[H:12])([H:8])([H:9])[H:10]>>[C:1]([C:2](=[C:3]([H:13])[H:14])[H:11])([H:8])([H:9])[H:10].[C:4]1([H:15])=[C:5]([H:17])[C:6]1([O:7][H:19])[H:18].[H:12][H:16]"
C       -2.59944723      -0.25117992      -0.66133292
C       -1.38209584       0.44441713      -0.08263314
C       -0.70260403      -0.20100772       0.98834769
C        1.50069467      -0.42484632       0.97786915
C        1.94285531      -0.81636191      -0.29286614
C        2.35721866       0.51400438       0.21019150
O        1.86846035       1.61231236      -0.49898297
H       -2.41552196      -1.30934599      -0.85986393
H       -3.49298403      -0.19912334      -0.03617892
H       -2.84417592       0.20837666      -1.62197169
H       -1.62904508       1.47782496       0.17531363
H       -0.34434314       0.36006243      -1.50606844
H       -0.77972026      -1.28708299       0.90947062
H       -1.01383554       0.06739945       1.99684343
H        1.73170587      -0.71951780       1.99360497
H        0.88019156      -0.39233128      -1.50323102
H        2.44191604      -1.72616925      -0.59212441
H        3.39802251       0.68252005       0.47581882
H        1.08270804       1.96004910      -0.07220621
19
Frame=15 idx=011037 GeodesicLength=1.7099361918938971 rxn_smarts="[C:1]([C:2]([C:3]([C@@:4]1([H:15])[C:5]([H:16])([H:17])[C@:6]1([O:7][H:19])[H:18])([H:13])[H:14])([H:11])[H:12])([H:8])([H:9])[H:10]>>[C:1]([C:2](=[C:3]([H:13])[H:14])[H:11])([H:8])([H:9])[H:10].[C:4]1([H:15])=[C:5]([H:17])[C:6]1([O:7][H:19])[H:18].[H:12][H:16]"
C       -2.61115223      -0.22545478      -0.65087890
C       -1.38023613       0.45187060      -0.07610911
C       -0.69983055      -0.22589388       0.98081952
C        1.50330846      -0.39922702       0.99319083
C        1.96129398      -0.82449287      -0.26634838
C        2.36468235       0.52077416       0.20748082
O        1.87995741       1.59717112      -0.53523841
H       -2.43483368      -1.27789701      -0.88392493
H       -3.49604073      -0.18998269      -0.01258820
H       -2.86892293       0.26258290      -1.59404178
H       -1.63462554       1.47116417       0.22974230
H       -0.36276427       0.39215136      -1.52660706
H       -0.75624304      -1.30793275       0.84168015
H       -1.06426691      -0.03557712       1.99032056
H        1.74472467      -0.65833753       2.01683910
H        0.92133944      -0.42907068      -1.51165560
H        2.47201085      -1.74168683      -0.52084981
H        3.40268758       0.70006168       0.47573712
H        1.05891128       1.91977717      -0.15756825
19
Frame=16 idx=011037 GeodesicLength=1.8222765887764527 rxn_smarts="[C:1]([C:2]([C:3]([C@@:4]1([H:15])[C:5]([H:16])([H:17])[C@:6]1([O:7][H:19])[H:18])([H:13])[H:14])([H:11])[H:12])([H:8])([H:9])[H:10]>>[C:1]([C:2](=[C:3]([H:13])[H:14])[H:11])([H:8])([H:9])[H:10].[C:4]1([H:15])=[C:5]([H:17])[C:6]1([O:7][H:19])[H:18].[H:12][H:16]"
C       -2.62319341      -0.19858510      -0.63867834
C       -1.37798146       0.45927719      -0.06880847
C       -0.69715149      -0.25249320       0.97217778
C        1.50443188      -0.37279654       1.00794173
C        1.98098034      -0.83281151      -0.23780822
C        2.37076699       0.52790449       0.20462169
O        1.88915501       1.57980732      -0.57252618
H       -2.45582046      -1.24409278      -0.90702523
H       -3.49881484      -0.18012292       0.01280330
H       -2.89432488       0.31862643      -1.56248819
H       -1.63719772       1.46250271       0.28526157
H       -0.38508963       0.42852682      -1.54813897
H       -0.73161065      -1.32631062       0.77036814
H       -1.11205359      -0.14422131       1.97543358
H        1.75424877      -0.59405394       2.03910198
H        0.96693083      -0.47145038      -1.51980319
H        2.50431681      -1.75505313      -0.44501411
H        3.40522703       0.72009847       0.47634852
H        1.03718049       1.87524799      -0.24376739
