17
Frame=0 idx=008501 GeodesicLength=0.0 rxn_smarts="[C:1]([C@@:2]1([H:11])[C:3]([H:12])([H:13])[C@@:4]2([H:14])[O:5][C:6]([H:15])([H:16])[C@@:7]12[H:17])([H:8])([H:9])[H:10]>>[C:1]([C:2][C:3]([C@@:4]1([H:14])[O:5][C:6]([H:15])([H:16])[C:7]1([H:11])[H:17])([H:12])[H:13])([H:8])([H:9])[H:10]"
C        1.78370124      -0.47784356      -0.41597798
C        1.15151616       0.57953518       0.42131301
C        0.19147746       1.48622521      -0.35305304
C       -1.11960267       0.79540142      -0.05509276
O       -1.40184023      -0.29618142      -0.95568639
C       -1.18043981      -1.27615404       0.07211030
C       -0.75752390      -0.20435916       1.04801175
H        2.22806680      -1.28261018       0.17086372
H        2.61225320       0.05115677      -0.90466019
H        1.16666293      -0.89173268      -1.22710552
H        0.44468680       0.03789357       1.37068711
H        0.21195015       2.51415385       0.01830796
H        0.37532642       1.49957715      -1.43079711
H       -1.99254697       1.44345897       0.06556526
H       -0.42923877      -2.01661159      -0.22213610
H       -2.10350543      -1.79796198       0.34775580
H       -1.18094340      -0.16394745       2.04989418
17
Frame=1 idx=008501 GeodesicLength=0.07051267743151654 rxn_smarts="[C:1]([C@@:2]1([H:11])[C:3]([H:12])([H:13])[C@@:4]2([H:14])[O:5][C:6]([H:15])([H:16])[C@@:7]12[H:17])([H:8])([H:9])[H:10]>>[C:1]([C:2][C:3]([C@@:4]1([H:14])[O:5][C:6]([H:15])([H:16])[C:7]1([H:11])[H:17])([H:12])[H:13])([H:8])([H:9])[H:10]"
C        1.80303768      -0.47287940      -0.42147441
C        1.14406129       0.56599176       0.41599226
C        0.19032252       1.47754889      -0.35653046
C       -1.12505416       0.79482802      -0.05463853
O       -1.41484317      -0.29572514      -0.95332415
C       -1.19289354      -1.27542203       0.07473917
C       -0.76187413      -0.20401176       1.04952370
H        2.25639118      -1.27414167       0.16329039
H        2.62218152       0.06861819      -0.91215081
H        1.18945533      -0.89538778      -1.23063673
H        0.44459751       0.03874444       1.39318344
H        0.22312947       2.50290087       0.02185120
H        0.37253982       1.49463735      -1.43454676
H       -1.99279354       1.44943333       0.06685545
H       -0.44498433      -2.01836597      -0.22109735
H       -2.11672843      -1.79462287       0.35230824
H       -1.19654503      -0.16214626       2.04665535
17
Frame=2 idx=008501 GeodesicLength=0.141089524185682 rxn_smarts="[C:1]([C@@:2]1([H:11])[C:3]([H:12])([H:13])[C@@:4]2([H:14])[O:5][C:6]([H:15])([H:16])[C@@:7]12[H:17])([H:8])([H:9])[H:10]>>[C:1]([C:2][C:3]([C@@:4]1([H:14])[O:5][C:6]([H:15])([H:16])[C:7]1([H:11])[H:17])([H:12])[H:13])([H:8])([H:9])[H:10]"
C        1.82276991      -0.46756126      -0.42701261
C        1.13639519       0.55157307       0.41049825
C        0.18922969       1.46845109      -0.36004323
C       -1.13058626       0.79423848      -0.05413818
O       -1.42833926      -0.29515840      -0.95085775
C       -1.20582007      -1.27467150       0.07738340
C       -0.76635544      -0.20380626       1.05104067
H        2.28546928      -1.26496716       0.15571404
H        2.63211158       0.08677829      -0.91946334
H        1.21306436      -0.89912033      -1.23421695
H        0.44423645       0.03997129       1.41559097
H        0.23469335       2.49104455       0.02531991
H        0.36972714       1.48930983      -1.43833237
H       -1.99286497       1.45559592       0.06831646
H       -0.46135939      -2.02015997      -0.22024030
H       -2.13044581      -1.79113047       0.35701033
H       -1.21192575      -0.16038715       2.04343071
17
Frame=3 idx=008501 GeodesicLength=0.21172967288422206 rxn_smarts="[C:1]([C@@:2]1([H:11])[C:3]([H:12])([H:13])[C@@:4]2([H:14])[O:5][C:6]([H:15])([H:16])[C@@:7]12[H:17])([H:8])([H:9])[H:10]>>[C:1]([C:2][C:3]([C@@:4]1([H:14])[O:5][C:6]([H:15])([H:16])[C:7]1([H:11])[H:17])([H:12])[H:13])([H:8])([H:9])[H:10]"
C        1.84290205      -0.46186194      -0.43258111
C        1.12851822       0.53623481       0.40478847
C        0.18820058       1.45890828      -0.36359393
C       -1.13619416       0.79362934      -0.05358480
O       -1.44234825      -0.29446871      -0.94827942
C       -1.21924825      -1.27390081       0.08004262
C       -0.77097079      -0.20375785       1.05255985
H        2.31531544      -1.25502487       0.14816241
H        2.64202379       0.10565672      -0.92657093
H        1.23755591      -0.90291798      -1.23785169
H        0.44362505       0.04157496       1.43787043
H        0.24665548       2.47854247       0.02870560
H        0.36687865       1.48357954      -1.44215773
H       -1.99273996       1.46195039       0.06996229
H       -0.47841269      -2.02200311      -0.21957647
H       -2.14469123      -1.78746786       0.36186854
H       -1.22706984      -0.15867338       2.04023587
17
Frame=4 idx=008501 GeodesicLength=0.2824305861275293 rxn_smarts="[C:1]([C@@:2]1([H:11])[C:3]([H:12])([H:13])[C@@:4]2([H:14])[O:5][C:6]([H:15])([H:16])[C@@:7]12[H:17])([H:8])([H:9])[H:10]>>[C:1]([C:2][C:3]([C@@:4]1([H:14])[O:5][C:6]([H:15])([H:16])[C:7]1([H:11])[H:17])([H:12])[H:13])([H:8])([H:9])[H:10]"
C        1.86343626      -0.45575232      -0.43816531
C        1.12042930       0.51992615       0.39881517
C        0.18723627       1.44889398      -0.36718742
C       -1.14187221       0.79299653      -0.05297120
O       -1.45689281      -0.29364246      -0.94558100
C       -1.23321121      -1.27310796       0.08271644
C       -0.77572113      -0.20388417       1.05407668
H        2.34594241      -1.24424379       0.14067197
H        2.65189842       0.12528013      -0.93344453
H        1.26300468      -0.90676571      -1.24154549
H        0.44279098       0.04355078       1.45997431
H        0.25903084       2.46534849       0.03199810
H        0.36398365       1.47742934      -1.44602829
H       -1.99239308       1.46850070       0.07181024
H       -0.49620174      -2.02390720      -0.21911877
H       -2.15950268      -1.78361358       0.36689190
H       -1.24195793      -0.15700891       2.03708720
17
Frame=5 idx=008501 GeodesicLength=0.3531871742797788 rxn_smarts="[C:1]([C@@:2]1([H:11])[C:3]([H:12])([H:13])[C@@:4]2([H:14])[O:5][C:6]([H:15])([H:16])[C@@:7]12[H:17])([H:8])([H:9])[H:10]>>[C:1]([C:2][C:3]([C@@:4]1([H:14])[O:5][C:6]([H:15])([H:16])[C:7]1([H:11])[H:17])([H:12])[H:13])([H:8])([H:9])[H:10]"
C        1.88437297      -0.44919800      -0.44374705
C        1.11212735       0.50259831       0.39252317
C        0.18633655       1.43838319      -0.37083248
C       -1.14761582       0.79233559      -0.05229060
O       -1.47199447      -0.29266671      -0.94275434
C       -1.24774006      -1.27229078       0.08540530
C       -0.78060315      -0.20420250       1.05558547
H        2.37734444      -1.23255486       0.13328393
H        2.66171347       0.14566451      -0.94004163
H        1.28948948      -0.91063946      -1.24530630
H        0.44177126       0.04589133       1.48184815
H        0.27183454       2.45141493       0.03518975
H        0.36102850       1.47084498      -1.44995388
H       -1.99180106       1.47524786       0.07387800
H       -0.51478413      -2.02588417      -0.21887944
H       -2.17491769      -1.77954555       0.37209154
H       -1.25656217      -0.15539868       2.03400041
17
Frame=6 idx=008501 GeodesicLength=0.423997971698562 rxn_smarts="[C:1]([C@@:2]1([H:11])[C:3]([H:12])([H:13])[C@@:4]2([H:14])[O:5][C:6]([H:15])([H:16])[C@@:7]12[H:17])([H:8])([H:9])[H:10]>>[C:1]([C:2][C:3]([C@@:4]1([H:14])[O:5][C:6]([H:15])([H:16])[C:7]1([H:11])[H:17])([H:12])[H:13])([H:8])([H:9])[H:10]"
C        1.90570931      -0.44216505      -0.44930457
C        1.10360987       0.48419479       0.38585048
C        0.18550048       1.42734562      -0.37454016
C       -1.15341724       0.79164107      -0.05153518
O       -1.48768086      -0.29152423      -0.93978822
C       -1.26287348      -1.27144555       0.08811001
C       -0.78561138      -0.20473392       1.05707851
H        2.40951618      -1.21987899       0.12605189
H        2.67145041       0.16683940      -0.94631408
H        1.31710236      -0.91450484      -1.24914539
H        0.44060983       0.04857793       1.50342997
H        0.28508019       2.43668680       0.03826103
H        0.35799848       1.46380509      -1.45394540
H       -1.99093300       1.48219419       0.07618877
H       -0.53423090      -2.02794803      -0.21887357
H       -2.19097867      -1.77523484       0.37748408
H       -1.27085158      -0.15384944       2.03099182
17
Frame=7 idx=008501 GeodesicLength=0.49485644657718997 rxn_smarts="[C:1]([C@@:2]1([H:11])[C:3]([H:12])([H:13])[C@@:4]2([H:14])[O:5][C:6]([H:15])([H:16])[C@@:7]12[H:17])([H:8])([H:9])[H:10]>>[C:1]([C:2][C:3]([C@@:4]1([H:14])[O:5][C:6]([H:15])([H:16])[C:7]1([H:11])[H:17])([H:12])[H:13])([H:8])([H:9])[H:10]"
C        1.92743769      -0.43461637      -0.45481241
C        1.09487380       0.46466290       0.37872738
C        0.18472470       1.41575180      -0.37832802
C       -1.15927032       0.79090729      -0.05069769
O       -1.50397825      -0.29019815      -0.93667100
C       -1.27864817      -1.27056806       0.09083206
C       -0.79073535      -0.20549996       1.05854579
H        2.44243165      -1.20614004       0.11903758
H        2.68109188       0.18882256      -0.95220323
H        1.34593900      -0.91832151      -1.25307513
H        0.43936215       0.05158907       1.52464913
H        0.29877891       2.42111390       0.04120216
H        0.35487571       1.45629078      -1.45802204
H       -1.98975861       1.48933840       0.07876572
H       -0.55461258      -2.03011160      -0.21911664
H       -2.20772568      -1.77065242       0.38308877
H       -1.28478653      -0.15236856       2.02807756
17
Frame=8 idx=008501 GeodesicLength=0.5657559009271362 rxn_smarts="[C:1]([C@@:2]1([H:11])[C:3]([H:12])([H:13])[C@@:4]2([H:14])[O:5][C:6]([H:15])([H:16])[C@@:7]12[H:17])([H:8])([H:9])[H:10]>>[C:1]([C:2][C:3]([C@@:4]1([H:14])[O:5][C:6]([H:15])([H:16])[C:7]1([H:11])[H:17])([H:12])[H:13])([H:8])([H:9])[H:10]"
C        1.94954891      -0.42651009      -0.46023626
C        1.08591389       0.44394469       0.37107591
C        0.18400431       1.40357029      -0.38221668
C       -1.16516556       0.79012720      -0.04977088
O       -1.52091602      -0.28866907      -0.93338950
C       -1.29510313      -1.26965262       0.09357377
C       -0.79596121      -0.20652459       1.05997476
H        2.47605501      -1.19125730       0.11231446
H        2.69062500       0.21163510      -0.95764601
H        1.37610406      -0.92203517      -1.25711134
H        0.43809234       0.05489061       1.54542635
H        0.31293810       2.40463758       0.04399196
H        0.35164087       1.44828149      -1.46220342
H       -1.98824275       1.49667775       0.08163605
H       -0.57600975      -2.03238890      -0.21962369
H       -2.22520259      -1.76576188       0.38893006
H       -1.29832146      -0.15096511       2.02527445
17
Frame=9 idx=008501 GeodesicLength=0.6367215288725872 rxn_smarts="[C:1]([C@@:2]1([H:11])[C:3]([H:12])([H:13])[C@@:4]2([H:14])[O:5][C:6]([H:15])([H:16])[C@@:7]12[H:17])([H:8])([H:9])[H:10]>>[C:1]([C:2][C:3]([C@@:4]1([H:14])[O:5][C:6]([H:15])([H:16])[C:7]1([H:11])[H:17])([H:12])[H:13])([H:8])([H:9])[H:10]"
C        1.97205319      -0.41780442      -0.46554352
C        1.07668757       0.42194568       0.36278013
C        0.18332572       1.39072100      -0.38628571
C       -1.17109553       0.78928503      -0.04874891
O       -1.53857280      -0.28690863      -0.92990069
C       -1.31232565      -1.26868325       0.09636609
C       -0.80126991      -0.20784521       1.06134550
H        2.51033240      -1.17515577       0.10595827
H        2.70009012       0.23539517      -0.96247388
H        1.40782816      -0.92546545      -1.26129680
H        0.43687495       0.05838899       1.56563238
H        0.32758751       2.38718317       0.04661917
H        0.34826375       1.43967991      -1.46657004
H       -1.98633261       1.50421749       0.08483929
H       -0.59858856      -2.03479536      -0.22039532
H       -2.24349217      -1.76049621       0.39509023
H       -1.31136615      -0.14966214       2.02258380
17
Frame=10 idx=008501 GeodesicLength=0.7077033153282114 rxn_smarts="[C:1]([C@@:2]1([H:11])[C:3]([H:12])([H:13])[C@@:4]2([H:14])[O:5][C:6]([H:15])([H:16])[C@@:7]12[H:17])([H:8])([H:9])[H:10]>>[C:1]([C:2][C:3]([C@@:4]1([H:14])[O:5][C:6]([H:15])([H:16])[C:7]1([H:11])[H:17])([H:12])[H:13])([H:8])([H:9])[H:10]"
C        1.99490465      -0.40845229      -0.47068117
C        1.06721715       0.39862417       0.35374635
C        0.18268752       1.37720734      -0.39052325
C       -1.17704677       0.78837819      -0.04762277
O       -1.55694412      -0.28490041      -0.92621004
C       -1.33031787      -1.26766066       0.09918977
C       -0.80663152      -0.20948453       1.06264109
H        2.54518038      -1.15775516       0.10008004
H        2.70941048       0.26006133      -0.96663483
H        1.44112886      -0.92861833      -1.26563022
H        0.43580956       0.06209143       1.58519154
H        0.34273012       2.36868836       0.04902847
H        0.34472093       1.43052304      -1.47110979
H       -1.98399673       1.51194566       0.08840713
H       -0.62237520      -2.03734460      -0.22146812
H       -2.26260322      -1.75483746       0.40156024
H       -1.32387421      -0.14846607       2.02003556
17
Frame=11 idx=008501 GeodesicLength=0.7786810112472631 rxn_smarts="[C:1]([C@@:2]1([H:11])[C:3]([H:12])([H:13])[C@@:4]2([H:14])[O:5][C:6]([H:15])([H:16])[C@@:7]12[H:17])([H:8])([H:9])[H:10]>>[C:1]([C:2][C:3]([C@@:4]1([H:14])[O:5][C:6]([H:15])([H:16])[C:7]1([H:11])[H:17])([H:12])[H:13])([H:8])([H:9])[H:10]"
C        2.01807062      -0.39841089      -0.47559658
C        1.05748949       0.37392095       0.34386209
C        0.18207914       1.36299514      -0.39496877
C       -1.18300811       0.78739789      -0.04638471
O       -1.57606477      -0.28261985      -0.92229878
C       -1.34912165      -1.26657522       0.10205015
C       -0.81201251      -0.21147471       1.06383900
H        2.58050782      -1.13897785       0.09479571
H        2.71857812       0.28566182      -0.97001498
H        1.47612728      -0.93140667      -1.27013139
H        0.43500249       0.06594266       1.60398911
H        0.35837231       2.34909400       0.05118147
H        0.34098283       1.42078271      -1.47586229
H       -1.98119366       1.51985680       0.09238081
H       -0.64746831      -2.04005163      -0.22286232
H       -2.28257838      -1.74873903       0.40837790
H       -1.33576271      -0.14739613       2.01764357
17
Frame=12 idx=008501 GeodesicLength=0.8496342131779849 rxn_smarts="[C:1]([C@@:2]1([H:11])[C:3]([H:12])([H:13])[C@@:4]2([H:14])[O:5][C:6]([H:15])([H:16])[C@@:7]12[H:17])([H:8])([H:9])[H:10]>>[C:1]([C:2][C:3]([C@@:4]1([H:14])[O:5][C:6]([H:15])([H:16])[C:7]1([H:11])[H:17])([H:12])[H:13])([H:8])([H:9])[H:10]"
C        2.04151572      -0.38763148      -0.48022555
C        1.04748933       0.34776866       0.33299008
C        0.18148596       1.34804477      -0.39967465
C       -1.18896476       0.78633308      -0.04502696
O       -1.59597663      -0.28003875      -0.91814173
C       -1.36878236      -1.26541647       0.10495440
C       -0.81736825      -0.21385390       1.06490979
H        2.61618801      -1.11875713       0.09023992
H        2.72758045       0.31223761      -0.97245391
H        1.51295732      -0.93370499      -1.27482821
H        0.43458178       0.06987492       1.62188970
H        0.37452265       2.32832933       0.05302049
H        0.33701284       1.41042387      -1.48088018
H       -1.97787239       1.52794203       0.09680778
H       -0.67397979      -2.04293084      -0.22460125
H       -2.30345841      -1.74214673       0.41559599
H       -1.34693148      -0.14647400       2.01542428
17
Frame=13 idx=008501 GeodesicLength=0.9205399469699606 rxn_smarts="[C:1]([C@@:2]1([H:11])[C:3]([H:12])([H:13])[C@@:4]2([H:14])[O:5][C:6]([H:15])([H:16])[C@@:7]12[H:17])([H:8])([H:9])[H:10]>>[C:1]([C:2][C:3]([C@@:4]1([H:14])[O:5][C:6]([H:15])([H:16])[C:7]1([H:11])[H:17])([H:12])[H:13])([H:8])([H:9])[H:10]"
C        2.06519034      -0.37606476      -0.48448859
C        1.03720120       0.32011008       0.32097106
C        0.18088929       1.33232119      -0.40470631
C       -1.19490188       0.78517239      -0.04354317
O       -1.61672217      -0.27712921      -0.91371365
C       -1.38933864      -1.26417219       0.10791026
C       -0.82264285      -0.21666064       1.06581798
H        2.65205803      -1.09703900       0.08656523
H        2.73639999       0.33981423      -0.97376434
H        1.55175131      -0.93537109      -1.27974147
H        0.43469877       0.07381369       1.63874248
H        0.39118546       2.30632543       0.05448450
H        0.33276756       1.39941889      -1.48622834
H       -1.97398122       1.53618790       0.10174156
H       -0.70202020      -2.04599384      -0.22671113
H       -2.32527619      -1.73500597       0.42327280
H       -1.35725881      -0.14572709       2.01339113
17
Frame=14 idx=008501 GeodesicLength=0.9913758504684842 rxn_smarts="[C:1]([C@@:2]1([H:11])[C:3]([H:12])([H:13])[C@@:4]2([H:14])[O:5][C:6]([H:15])([H:16])[C@@:7]12[H:17])([H:8])([H:9])[H:10]>>[C:1]([C:2][C:3]([C@@:4]1([H:14])[O:5][C:6]([H:15])([H:16])[C:7]1([H:11])[H:17])([H:12])[H:13])([H:8])([H:9])[H:10]"
C        2.08903048      -0.36366910      -0.48830072
C        1.02660571       0.29088119       0.30763419
C        0.18026844       1.31578536      -0.41013516
C       -1.20079686       0.78390111      -0.04192912
O       -1.63834170      -0.27385709      -0.90898180
C       -1.41083039      -1.26282518       0.11093186
C       -0.82777218      -0.21994078       1.06652117
H        2.68793139      -1.07378128       0.08395193
H        2.74504025       0.36844157      -0.97375024
H        1.59263978      -0.93623419      -1.28490202
H        0.43551602       0.07766444       1.65438723
H        0.40834915       2.28301840       0.05549408
H        0.32820427       1.38772902      -1.49197733
H       -1.96945701       1.54457660       0.10723424
H       -0.73171490      -2.04925104      -0.22921104
H       -2.34806136      -1.72725062       0.43147868
H       -1.36661110      -0.14518838       2.01155405
17
Frame=15 idx=008501 GeodesicLength=1.062117146715185 rxn_smarts="[C:1]([C@@:2]1([H:11])[C:3]([H:12])([H:13])[C@@:4]2([H:14])[O:5][C:6]([H:15])([H:16])[C@@:7]12[H:17])([H:8])([H:9])[H:10]>>[C:1]([C:2][C:3]([C@@:4]1([H:14])[O:5][C:6]([H:15])([H:16])[C:7]1([H:11])[H:17])([H:12])[H:13])([H:8])([H:9])[H:10]"
C        2.11295293      -0.35040263      -0.49155473
C        1.01568490       0.26003161       0.29277821
C        0.17959810       1.29840518      -0.41604994
C       -1.20662599       0.78250358      -0.04018357
O       -1.66087349      -0.27019039      -0.90391291
C       -1.43328757      -1.26135865       0.11403295
C       -0.83267470      -0.22374130       1.06696801
H        2.72357016      -1.04896964       0.08260073
H        2.75348874       0.39815376      -0.97217501
H        1.63573833      -0.93609327      -1.29032871
H        0.43722463       0.08132878       1.66864307
H        0.42600421       2.25834552       0.05596427
H        0.32327318       1.37532652      -1.49821455
H       -1.96423702       1.55308294       0.11334174
H       -0.76318180      -2.05271033      -0.23212237
H       -2.37182696      -1.71881577       0.44029292
H       -1.37482765      -0.14489590       2.00991988
17
Frame=16 idx=008501 GeodesicLength=1.1327421391929948 rxn_smarts="[C:1]([C@@:2]1([H:11])[C:3]([H:12])([H:13])[C@@:4]2([H:14])[O:5][C:6]([H:15])([H:16])[C@@:7]12[H:17])([H:8])([H:9])[H:10]>>[C:1]([C:2][C:3]([C@@:4]1([H:14])[O:5][C:6]([H:15])([H:16])[C:7]1([H:11])[H:17])([H:12])[H:13])([H:8])([H:9])[H:10]"
C        2.13685114      -0.33623227      -0.49412898
C        1.00442086       0.22751884       0.27617691
C        0.17884984       1.28015247      -0.42255418
C       -1.21235928       0.78096217      -0.03830836
O       -1.68435221      -0.26609382      -0.89846994
C       -1.45673159      -1.25975316       0.11722874
C       -0.83725240      -0.22811516       1.06709489
H        2.75869933      -1.02261509       0.08274707
H        2.76172672       0.42899282      -0.96877589
H        1.68114272      -0.93472224      -1.29602637
H        0.44004177       0.08469277       1.68131093
H        0.44412850       2.23225718       0.05579496
H        0.31792160       1.36218316      -1.50504225
H       -1.95825051       1.56167649       0.12012445
H       -0.79654276      -2.05637693      -0.23546762
H       -2.39657255      -1.70963105       0.44980617
H       -1.38172118      -0.14489620       2.00848946
