16
Frame=0 idx=011318 GeodesicLength=0.0 rxn_smarts="[C:1]([C@@:2]1([H:11])[C@:3]([C:4]([H:13])([H:14])[H:15])([H:12])[C@:5]1([C:6]#[N:7])[H:16])([H:8])([H:9])[H:10]>>[C:1](/[C:2](=[C:5](\[C:6]#[N:7])[H:16])[H:11])([H:8])([H:9])[H:10].[C:3](=[C:4]([H:13])[H:15])([H:12])[H:14]"
C        1.29887497      -0.67171310       0.92098050
C        0.92296517       0.16523155      -0.28976470
C       -0.34425858      -0.25025441      -1.00805500
C       -1.51796125      -0.63268292      -0.30167478
C        0.43893655       1.57124723      -0.03283587
C       -0.71475967       1.59999920       0.69910420
N       -1.70795072       1.26514331       1.22892401
H        0.53340294      -0.61744119       1.69676262
H        1.45611696      -1.72026207       0.65268775
H        2.22277601      -0.28632707       1.35118948
H        1.74991338       0.18997571      -0.99882294
H       -0.49106159       0.16836842      -1.99751033
H       -2.48515760      -0.57931924      -0.78242181
H       -0.64504692      -1.44680316      -1.10953467
H       -1.44329514      -1.14345576       0.64656900
H        0.72650555       2.38829355      -0.67559750
16
Frame=1 idx=011318 GeodesicLength=0.12722511127166644 rxn_smarts="[C:1]([C@@:2]1([H:11])[C@:3]([C:4]([H:13])([H:14])[H:15])([H:12])[C@:5]1([C:6]#[N:7])[H:16])([H:8])([H:9])[H:10]>>[C:1](/[C:2](=[C:5](\[C:6]#[N:7])[H:16])[H:11])([H:8])([H:9])[H:10].[C:3](=[C:4]([H:13])[H:15])([H:12])[H:14]"
C        1.30712820      -0.66520771       0.92877922
C        0.93753485       0.16781916      -0.28529402
C       -0.35520237      -0.25625975      -1.01669516
C       -1.52578403      -0.65089576      -0.31409351
C        0.43532719       1.56349177      -0.04397079
C       -0.70500427       1.60350073       0.71491958
N       -1.70062960       1.28715520       1.24809426
H        0.53520701      -0.61433899       1.69821229
H        1.46795351      -1.71337975       0.66147909
H        2.22803098      -0.27996772       1.36578060
H        1.76790600       0.19465638      -0.99020807
H       -0.50125695       0.17083698      -2.00269114
H       -2.49731025      -0.56166722      -0.78088490
H       -0.65995597      -1.46254482      -1.13130172
H       -1.45379526      -1.16716261       0.63157699
H        0.71985096       2.38396412      -0.68370274
16
Frame=2 idx=011318 GeodesicLength=0.25451796365203194 rxn_smarts="[C:1]([C@@:2]1([H:11])[C@:3]([C:4]([H:13])([H:14])[H:15])([H:12])[C@:5]1([C:6]#[N:7])[H:16])([H:8])([H:9])[H:10]>>[C:1](/[C:2](=[C:5](\[C:6]#[N:7])[H:16])[H:11])([H:8])([H:9])[H:10].[C:3](=[C:4]([H:13])[H:15])([H:12])[H:14]"
C        1.31526689      -0.65857212       0.93673515
C        0.95249539       0.17070576      -0.28061566
C       -0.36644878      -0.26260705      -1.02572784
C       -1.53375279      -0.66978842      -0.32708777
C        0.43122193       1.55536249      -0.05528075
C       -0.69511770       1.60721726       0.73022171
N       -1.69250229       1.31045281       1.26794701
H        0.53669948      -0.61122458       1.69950484
H        1.47974902      -1.70632043       0.67034169
H        2.23293006      -0.27346099       1.38088988
H        1.78641190       0.19994796      -0.98115299
H       -0.51175879       0.17322811      -2.00805193
H       -2.50901315      -0.54409263      -0.77777081
H       -0.67546009      -1.47856862      -1.15430427
H       -1.46411639      -1.19161918       0.61591199
H        0.71339532       2.37933964      -0.69156026
16
Frame=3 idx=011318 GeodesicLength=0.3818827384768737 rxn_smarts="[C:1]([C@@:2]1([H:11])[C@:3]([C:4]([H:13])([H:14])[H:15])([H:12])[C@:5]1([C:6]#[N:7])[H:16])([H:8])([H:9])[H:10]>>[C:1](/[C:2](=[C:5](\[C:6]#[N:7])[H:16])[H:11])([H:8])([H:9])[H:10].[C:3](=[C:4]([H:13])[H:15])([H:12])[H:14]"
C        1.32326240      -0.65180298       0.94485780
C        0.96785591       0.17392627      -0.27570407
C       -0.37801508      -0.26931165      -1.03517801
C       -1.54187701      -0.68939067      -0.34069732
C        0.42661377       1.54683277      -0.06677941
C       -0.68509856       1.61118190       0.74498313
N       -1.68347636       1.33516342       1.28852678
H        0.53784023      -0.60809711       1.70062314
H        1.49147981      -1.69907624       0.67927291
H        2.23742937      -0.26681981       1.39654916
H        1.80545099       0.20590500      -0.97160816
H       -0.52259519       0.17553836      -2.01360128
H       -2.52019543      -0.52668708      -0.77295078
H       -0.69160712      -1.49485898      -1.17862595
H       -1.47422315      -1.21689844       0.59950928
H        0.70715542       2.37439524      -0.69917722
16
Frame=4 idx=011318 GeodesicLength=0.5093248587414623 rxn_smarts="[C:1]([C@@:2]1([H:11])[C@:3]([C:4]([H:13])([H:14])[H:15])([H:12])[C@:5]1([C:6]#[N:7])[H:16])([H:8])([H:9])[H:10]>>[C:1](/[C:2](=[C:5](\[C:6]#[N:7])[H:16])[H:11])([H:8])([H:9])[H:10].[C:3](=[C:4]([H:13])[H:15])([H:12])[H:14]"
C        1.33108319      -0.64489811       0.95315780
C        0.98362536       0.17751972      -0.27052909
C       -0.38991938      -0.27639034      -1.04507225
C       -1.55016707      -0.70973345      -0.35496490
C        0.42149578       1.53787339      -0.07847871
C       -0.67494308       1.61542825       0.75917696
N       -1.67344374       1.36143316       1.30987587
H        0.53858530      -0.60495790       1.70154827
H        1.50312071      -1.69163944       0.68826852
H        2.24147979      -0.26006015       1.41279466
H        1.82504343       0.21258895      -0.96151683
H       -0.53379627       0.17776383      -2.01934786
H       -2.53077453      -0.50954882      -0.76628436
H       -0.70845117      -1.51139623      -1.20435634
H       -1.48407475      -1.24308200       0.58229548
H        0.70113644       2.36909915      -0.70656723
16
Frame=5 idx=011318 GeodesicLength=0.6368490766825523 rxn_smarts="[C:1]([C@@:2]1([H:11])[C@:3]([C:4]([H:13])([H:14])[H:15])([H:12])[C@:5]1([C:6]#[N:7])[H:16])([H:8])([H:9])[H:10]>>[C:1](/[C:2](=[C:5](\[C:6]#[N:7])[H:16])[H:11])([H:8])([H:9])[H:10].[C:3](=[C:4]([H:13])[H:15])([H:12])[H:14]"
C        1.33869363      -0.63785701       0.96164707
C        0.99981228       0.18152978      -0.26505473
C       -0.40218081      -0.28385999      -1.05543866
C       -1.55863395      -0.73084739      -0.36993587
C        0.41586253       1.52845260      -0.09038684
C       -0.66464504       1.61999171       0.77277613
N       -1.66227669       1.38942990       1.33203294
H        0.53888598      -0.60181010       1.70225947
H        1.51464305      -1.68400284       0.69732228
H        2.24502581      -0.25320314       1.42966714
H        1.84520933       0.22006849      -0.95081328
H       -0.54539509       0.17990292      -2.02529912
H       -2.54065374      -0.49279161      -0.75761787
H       -0.72605379      -1.52815385      -1.23159194
H       -1.49362329      -1.27026063       0.56418656
H        0.69532978       2.36341116      -0.71375327
16
Frame=6 idx=011318 GeodesicLength=0.7644612315964331 rxn_smarts="[C:1]([C@@:2]1([H:11])[C@:3]([C:4]([H:13])([H:14])[H:15])([H:12])[C@:5]1([C:6]#[N:7])[H:16])([H:8])([H:9])[H:10]>>[C:1](/[C:2](=[C:5](\[C:6]#[N:7])[H:16])[H:11])([H:8])([H:9])[H:10].[C:3](=[C:4]([H:13])[H:15])([H:12])[H:14]"
C        1.34605401      -0.63068151       0.97033949
C        1.01642488       0.18600572      -0.25923791
C       -0.41481969      -0.29173725      -1.06630657
C       -1.56728961      -0.75276347      -0.38565810
C        0.40971102       1.51853670      -0.10250655
C       -0.65419703       1.62490973       0.78575288
N       -1.64982494       1.41934650       1.35502985
H        0.53868916      -0.59865815       1.70273498
H        1.52601305      -1.67616079       0.70642624
H        2.24800673      -0.24627765       1.44721192
H        1.86596881       0.22842116      -0.93942150
H       -0.55742861       0.18195773      -2.03146029
H       -2.54971874      -0.47654582      -0.74678330
H       -0.74448545      -1.54509726      -1.26043686
H       -1.50281256      -1.29853694       0.54508601
H        0.68970896       2.35728129      -0.72077029
16
Frame=7 idx=011318 GeodesicLength=0.8921631268865758 rxn_smarts="[C:1]([C@@:2]1([H:11])[C@:3]([C:4]([H:13])([H:14])[H:15])([H:12])[C@:5]1([C:6]#[N:7])[H:16])([H:8])([H:9])[H:10]>>[C:1](/[C:2](=[C:5](\[C:6]#[N:7])[H:16])[H:11])([H:8])([H:9])[H:10].[C:3](=[C:4]([H:13])[H:15])([H:12])[H:14]"
C        1.35311778      -0.62337538       0.97925125
C        1.03347029       0.19100255      -0.25302681
C       -0.42785732      -0.30003644      -1.07770701
C       -1.57614519      -0.77551035      -0.40218195
C        0.40304330       1.50808954      -0.11483226
C       -0.64359018       1.63022363       0.79807586
N       -1.63590698       1.45140152       1.37889393
H        0.53793523      -0.59550593       1.70295181
H        1.53718785      -1.66810843       0.71557067
H        2.25035258      -0.23932155       1.46548039
H        1.88734078       0.23773242      -0.92725232
H       -0.56993865       0.18393768      -2.03783314
H       -2.55783619      -0.46097082      -0.73359491
H       -0.76382650      -1.56217873      -1.29100587
H       -1.51157458      -1.32802715       0.52488160
H        0.68422777       2.35064744      -0.72767123
16
Frame=8 idx=011318 GeodesicLength=1.0199887284837814 rxn_smarts="[C:1]([C@@:2]1([H:11])[C@:3]([C:4]([H:13])([H:14])[H:15])([H:12])[C@:5]1([C:6]#[N:7])[H:16])([H:8])([H:9])[H:10]>>[C:1](/[C:2](=[C:5](\[C:6]#[N:7])[H:16])[H:11])([H:8])([H:9])[H:10].[C:3](=[C:4]([H:13])[H:15])([H:12])[H:14]"
C        1.35984440      -0.61595250       0.98841233
C        1.05096695       0.19658273      -0.24636374
C       -0.44131751      -0.30876290      -1.08968195
C       -1.58522693      -0.79911175      -0.41955880
C        0.39587115       1.49707834      -0.12735742
C       -0.63282737       1.63598236       0.80969748
N       -1.62032377       1.48583677       1.40366296
H        0.53655769      -0.59237094       1.70289879
H        1.54813582      -1.65985239       0.72475892
H        2.25200010      -0.23239001       1.48454867
H        1.90936758       0.24810176      -0.91420934
H       -0.58297637       0.18587877      -2.04443574
H       -2.56488877      -0.44626585      -0.71784563
H       -0.78416733      -1.57932933      -1.32343178
H       -1.51984524      -1.35887618       0.50345964
H        0.67882960       2.34345115      -0.73455439
16
Frame=9 idx=011318 GeodesicLength=1.1478624199184078 rxn_smarts="[C:1]([C@@:2]1([H:11])[C@:3]([C:4]([H:13])([H:14])[H:15])([H:12])[C@:5]1([C:6]#[N:7])[H:16])([H:8])([H:9])[H:10]>>[C:1](/[C:2](=[C:5](\[C:6]#[N:7])[H:16])[H:11])([H:8])([H:9])[H:10].[C:3](=[C:4]([H:13])[H:15])([H:12])[H:14]"
C        1.36614975      -0.60840747       0.99781392
C        1.06888854       0.20281209      -0.23916120
C       -0.45522368      -0.31795432      -1.10222742
C       -1.59451225      -0.82361061      -0.43783912
C        0.38819589       1.48544714      -0.14002243
C       -0.62187139       1.64221040       0.82063568
N       -1.60279977       1.52298073       1.42924387
H        0.53449408      -0.58922703       1.70251409
H        1.55875789      -1.65136817       0.73392756
H        2.25283625      -0.22553123       1.50442685
H        1.93199874       0.25963272      -0.90015146
H       -0.59659209       0.18775003      -2.05118664
H       -2.57055941      -0.43257928      -0.69933344
H       -0.80563381      -1.59649949      -1.35781987
H       -1.52748577      -1.39120656       0.48061977
H        0.67335702       2.33555106      -0.74144018
16
Frame=10 idx=011318 GeodesicLength=1.2758588569649154 rxn_smarts="[C:1]([C@@:2]1([H:11])[C@:3]([C:4]([H:13])([H:14])[H:15])([H:12])[C@:5]1([C:6]#[N:7])[H:16])([H:8])([H:9])[H:10]>>[C:1](/[C:2](=[C:5](\[C:6]#[N:7])[H:16])[H:11])([H:8])([H:9])[H:10].[C:3](=[C:4]([H:13])[H:15])([H:12])[H:14]"
C        1.37199602      -0.60077231       1.00751830
C        1.08727315       0.20976881      -0.23134292
C       -0.46961298      -0.32757656      -1.11540321
C       -1.60404898      -0.84901159      -0.45706366
C        0.38006517       1.47317496      -0.15281058
C       -0.61075036       1.64899389       0.83079851
N       -1.58306291       1.56311253       1.45567435
H        0.53166628      -0.58609304       1.70182441
H        1.56900816      -1.64268815       0.74311590
H        2.25281369      -0.21885360       1.52523191
H        1.95531732       0.27244356      -0.88496112
H       -0.61087600       0.18967225      -2.05812037
H       -2.57476649      -0.42029660      -0.67782298
H       -0.82834780      -1.61354317      -1.39434712
H       -1.53442323      -1.42523031       0.45623515
H        0.66774896       2.32689934      -0.74852656
16
Frame=11 idx=011318 GeodesicLength=1.4039405532196763 rxn_smarts="[C:1]([C@@:2]1([H:11])[C@:3]([C:4]([H:13])([H:14])[H:15])([H:12])[C@:5]1([C:6]#[N:7])[H:16])([H:8])([H:9])[H:10]>>[C:1](/[C:2](=[C:5](\[C:6]#[N:7])[H:16])[H:11])([H:8])([H:9])[H:10].[C:3](=[C:4]([H:13])[H:15])([H:12])[H:14]"
C        1.37729554      -0.59305773       1.01755200
C        1.10611195       0.21753209      -0.22280163
C       -0.48452185      -0.33762828      -1.12922704
C       -1.61382860      -0.87534426      -0.47726927
C        0.37151476       1.46021216      -0.16565708
C       -0.59945695       1.65638932       0.84015077
N       -1.56075023       1.60660385       1.48284784
H        0.52799097      -0.58294334       1.70080497
H        1.57877185      -1.63380952       0.75230073
H        2.25182131      -0.21245403       1.54702505
H        1.97931355       0.28665708      -0.86846880
H       -0.62593060       0.19170955      -2.06516622
H       -2.57721848      -0.40975394      -0.65305363
H       -0.85247875      -1.63031902      -1.43317967
H       -1.54048950      -1.46115698       0.43007907
H        0.66185501       2.31736304      -0.75593710
16
Frame=12 idx=011318 GeodesicLength=1.5321003914005662 rxn_smarts="[C:1]([C@@:2]1([H:11])[C@:3]([C:4]([H:13])([H:14])[H:15])([H:12])[C@:5]1([C:6]#[N:7])[H:16])([H:8])([H:9])[H:10]>>[C:1](/[C:2](=[C:5](\[C:6]#[N:7])[H:16])[H:11])([H:8])([H:9])[H:10].[C:3](=[C:4]([H:13])[H:15])([H:12])[H:14]"
C        1.38196334      -0.58528413       1.02795708
C        1.12540401       0.22618969      -0.21341569
C       -0.49999689      -0.34809502      -1.14372060
C       -1.62385600      -0.90263816      -0.49848301
C        0.36259419       1.44651669      -0.17848877
C       -0.58800823       1.66446937       0.84863572
N       -1.53545649       1.65386037       1.51061832
H        0.52337981      -0.57975250       1.69944837
H        1.58793233      -1.62474478       0.76147401
H        2.24975932      -0.20645536       1.56988385
H        2.00399492       0.30241107      -0.85048689
H       -0.64188787       0.19396467      -2.07224712
H       -2.57761656      -0.40137242      -0.62474290
H       -0.87823215      -1.64664485      -1.47450049
H       -1.54550417      -1.49924466       0.40189914
H        0.65553044       2.30682002      -0.76383103
16
Frame=13 idx=011318 GeodesicLength=1.6603235767008688 rxn_smarts="[C:1]([C@@:2]1([H:11])[C@:3]([C:4]([H:13])([H:14])[H:15])([H:12])[C@:5]1([C:6]#[N:7])[H:16])([H:8])([H:9])[H:10]>>[C:1](/[C:2](=[C:5](\[C:6]#[N:7])[H:16])[H:11])([H:8])([H:9])[H:10].[C:3](=[C:4]([H:13])[H:15])([H:12])[H:14]"
C        1.38590039      -0.57746897       1.03878522
C        1.14514184       0.23583463      -0.20304621
C       -0.51609656      -0.35895222      -1.15890640
C       -1.63413056      -0.93092390      -0.52071951
C        0.35336301       1.43204136      -0.19122164
C       -0.57643949       1.67331557       0.85617813
N       -1.50669664       1.70531713       1.53878145
H        0.51773392      -0.57647717       1.69775717
H        1.59634941      -1.61550302       0.77063472
H        2.24651440      -0.20099313       1.59389433
H        2.02936088       0.31985055      -0.83080217
H       -0.65891915       0.19656950      -2.07926149
H       -2.57561553      -0.39567384      -0.59258159
H       -0.90586142      -1.66228470      -1.51851065
H       -1.54924847      -1.53978968       0.37139479
H        0.64864396       2.29513791      -0.77237616
16
Frame=14 idx=011318 GeodesicLength=1.788599009727204 rxn_smarts="[C:1]([C@@:2]1([H:11])[C@:3]([C:4]([H:13])([H:14])[H:15])([H:12])[C@:5]1([C:6]#[N:7])[H:16])([H:8])([H:9])[H:10]>>[C:1](/[C:2](=[C:5](\[C:6]#[N:7])[H:16])[H:11])([H:8])([H:9])[H:10].[C:3](=[C:4]([H:13])[H:15])([H:12])[H:14]"
C        1.38899134      -0.56962491       1.05009704
C        1.16530739       0.24656588      -0.19153199
C       -0.53289472      -0.37017108      -1.17480559
C       -1.64464507      -0.96024512      -0.54398163
C        0.34388590       1.41673619      -0.20376002
C       -0.56481202       1.68301969       0.86268449
N       -1.47389959       1.76144639       1.56703542
H        0.51094404      -0.57305037       1.69574341
H        1.60385532      -1.60609123       0.77978748
H        2.24196178      -0.19621348       1.61914480
H        2.05539728       0.33912912      -0.80916774
H       -0.67724641       0.19968178      -2.08606893
H       -2.57079097      -0.39327618      -0.55621488
H       -0.93568724      -1.67694756      -1.56542907
H       -1.55145467      -1.58313617       0.33819423
H        0.64108764       2.28217704      -0.78172703
16
Frame=15 idx=011318 GeodesicLength=1.9169241518341118 rxn_smarts="[C:1]([C@@:2]1([H:11])[C@:3]([C:4]([H:13])([H:14])[H:15])([H:12])[C@:5]1([C:6]#[N:7])[H:16])([H:8])([H:9])[H:10]>>[C:1](/[C:2](=[C:5](\[C:6]#[N:7])[H:16])[H:11])([H:8])([H:9])[H:10].[C:3](=[C:4]([H:13])[H:15])([H:12])[H:14]"
C        1.39110429      -0.56175545       1.06197324
C        1.18587188       0.25848709      -0.17869126
C       -0.55048556      -0.38171107      -1.19144920
C       -1.65538676      -0.99065199      -0.56825651
C        0.33423242       1.40054671      -0.21600737
C       -0.55323452       1.69368505       0.86802497
N       -1.43637486       1.82273134       1.59499835
H        0.50288513      -0.56937936       1.69344422
H        1.61025912      -1.59650846       0.78895857
H        2.23596274      -0.19226808       1.64574128
H        2.08208027       0.36040309      -0.78530815
H       -0.69715766       0.20349584      -2.09250109
H       -2.56263800      -0.39493675      -0.51525453
H       -0.96811287      -1.69026326      -1.61549174
H       -1.55180340      -1.62966405       0.30184947
H        0.63279777       2.26778935      -0.79203025
16
Frame=16 idx=011318 GeodesicLength=2.045287603791961 rxn_smarts="[C:1]([C@@:2]1([H:11])[C@:3]([C:4]([H:13])([H:14])[H:15])([H:12])[C@:5]1([C:6]#[N:7])[H:16])([H:8])([H:9])[H:10]>>[C:1](/[C:2](=[C:5](\[C:6]#[N:7])[H:16])[H:11])([H:8])([H:9])[H:10].[C:3](=[C:4]([H:13])[H:15])([H:12])[H:14]"
C        1.39207893      -0.55384785       1.07451051
C        1.20678354       0.27171015      -0.16431471
C       -0.56898536      -0.39352241      -1.20886991
C       -1.66632867      -1.02220485      -0.59350816
C        0.32447288       1.38341736      -0.22786374
C       -0.54187607       1.70542718       0.87202509
N       -1.39325593       1.88963990       1.62218304
H        0.49341158      -0.56534099       1.69091598
H        1.61533180      -1.58674004       0.79819298
H        2.22835174      -0.18930571       1.67379459
H        2.10935628       0.38383355      -0.75891021
H       -0.71901327       0.20823752      -2.09833539
H       -2.55052203      -0.40158105      -0.46931550
H       -1.00364533      -1.70177582      -1.66891768
H       -1.54991882      -1.67976712       0.26181728
H        0.62375871       2.25182018      -0.80340415
