17
Frame=0 idx=009533 GeodesicLength=0.0 rxn_smarts="[C:1]([C@@:2]1([H:11])[C@:3]([C:4]([H:13])([H:14])[H:15])([H:12])[C@:5]1([C:6]#[C:7][H:17])[H:16])([H:8])([H:9])[H:10]>>[C:1]([C@@:2]1([H:11])[C@:3]([C:4]([H:13])([H:14])[H:15])([H:12])[C:5]1=[C:6]=[C:7]([H:16])[H:17])([H:8])([H:9])[H:10]"
C       -1.50971996      -1.23291679      -0.03475175
C       -0.21777653      -0.74222463      -0.63385771
C        0.19469989       0.74722648      -0.63324086
C       -0.66155476       1.84080446      -0.04972816
C        0.85010781      -0.22767388       0.25607313
C        1.17841653      -0.25105999       1.68906120
C        2.23157447      -0.71709783       1.00962477
H       -2.34251176      -1.06090753      -0.71979502
H       -1.45246089      -2.30387809       0.16689245
H       -1.72646417      -0.73298560       0.90844888
H        0.08584020      -1.25913981      -1.53906058
H        0.74037458       1.02183323      -1.53060638
H       -0.05804572       2.72749386       0.15124978
H       -1.45928238       2.12167217      -0.74040549
H       -1.10875794       1.53183530       0.89406735
H        1.95348135      -0.90475916      -0.19531250
H        3.30207927      -0.55822223       1.00134096
17
Frame=1 idx=009533 GeodesicLength=0.12121058198560701 rxn_smarts="[C:1]([C@@:2]1([H:11])[C@:3]([C:4]([H:13])([H:14])[H:15])([H:12])[C@:5]1([C:6]#[C:7][H:17])[H:16])([H:8])([H:9])[H:10]>>[C:1]([C@@:2]1([H:11])[C@:3]([C:4]([H:13])([H:14])[H:15])([H:12])[C:5]1=[C:6]=[C:7]([H:16])[H:17])([H:8])([H:9])[H:10]"
C       -1.51439453      -1.23006780      -0.03393670
C       -0.22702206      -0.73995103      -0.64359430
C        0.18639535       0.74701048      -0.64412516
C       -0.66305127       1.83996047      -0.04937544
C        0.85347277      -0.23068738       0.23535287
C        1.17892699      -0.26104252       1.66171478
C        2.25430090      -0.72093352       1.02500892
H       -2.35350774      -1.05826602      -0.71123045
H       -1.45500991      -2.30075526       0.16865801
H       -1.72472015      -0.72963036       0.91050341
H        0.06714188      -1.25686893      -1.55190563
H        0.72331063       1.02492218      -1.54574860
H       -0.05613160       2.72471912       0.14991352
H       -1.46694019       2.12471179      -0.73124418
H       -1.10392420       1.52903004       0.89681649
H        1.97940673      -0.91247604      -0.20120349
H        3.32174640      -0.54967524       1.06439596
17
Frame=2 idx=009533 GeodesicLength=0.24239071344868296 rxn_smarts="[C:1]([C@@:2]1([H:11])[C@:3]([C:4]([H:13])([H:14])[H:15])([H:12])[C@:5]1([C:6]#[C:7][H:17])[H:16])([H:8])([H:9])[H:10]>>[C:1]([C@@:2]1([H:11])[C@:3]([C:4]([H:13])([H:14])[H:15])([H:12])[C:5]1=[C:6]=[C:7]([H:16])[H:17])([H:8])([H:9])[H:10]"
C       -1.51892262      -1.22727334      -0.03293831
C       -0.23664053      -0.73759928      -0.65389199
C        0.17773181       0.74686179      -0.65561750
C       -0.66441533       1.83906568      -0.04902109
C        0.85696191      -0.23379461       0.21324018
C        1.18053283      -0.27107528       1.63283679
C        2.27738040      -0.72428075       1.04080145
H       -2.36473152      -1.05559156      -0.70183780
H       -1.45723202      -2.29771591       0.17037342
H       -1.72218345      -0.72648697       0.91291868
H        0.04754724      -1.25443099      -1.56541745
H        0.70530779       1.02821746      -1.56167774
H       -0.05395169       2.72184661       0.14828560
H       -1.47478504       2.12778701      -0.72146434
H       -1.09832893       1.52603139       0.89975612
H        2.00629907      -0.91964476      -0.20754447
H        3.33943010      -0.54191651       1.13119846
17
Frame=3 idx=009533 GeodesicLength=0.3635252767748564 rxn_smarts="[C:1]([C@@:2]1([H:11])[C@:3]([C:4]([H:13])([H:14])[H:15])([H:12])[C@:5]1([C:6]#[C:7][H:17])[H:16])([H:8])([H:9])[H:10]>>[C:1]([C@@:2]1([H:11])[C@:3]([C:4]([H:13])([H:14])[H:15])([H:12])[C:5]1=[C:6]=[C:7]([H:16])[H:17])([H:8])([H:9])[H:10]"
C       -1.52322852      -1.22454983      -0.03170338
C       -0.24663070      -0.73514940      -0.66476774
C        0.16867951       0.74680857      -0.66776180
C       -0.66565284       1.83812384      -0.04868592
C        0.86059697      -0.23695280       0.18962061
C        1.18335947      -0.28104328       1.60229536
C        2.30079468      -0.72705624       1.05701346
H       -2.37613409      -1.05292503      -0.69149994
H       -1.45901180      -2.29477628       0.17207760
H       -1.71872193      -0.72357872       0.91574798
H        0.02699969      -1.25179364      -1.57961925
H        0.68626981       1.03176212      -1.57844910
H       -0.05152772       2.71889514       0.14630957
H       -1.48284239       2.13087735      -0.71103605
H       -1.09191736       1.52283193       0.90287265
H        2.03426791      -0.92606162      -0.21441554
H        3.35469929      -0.53541212       1.20200148
17
Frame=4 idx=009533 GeodesicLength=0.4845923108088469 rxn_smarts="[C:1]([C@@:2]1([H:11])[C@:3]([C:4]([H:13])([H:14])[H:15])([H:12])[C@:5]1([C:6]#[C:7][H:17])[H:16])([H:8])([H:9])[H:10]>>[C:1]([C@@:2]1([H:11])[C@:3]([C:4]([H:13])([H:14])[H:15])([H:12])[C:5]1=[C:6]=[C:7]([H:16])[H:17])([H:8])([H:9])[H:10]"
C       -1.52734995      -1.22189513      -0.03023926
C       -0.25703968      -0.73267246      -0.67624122
C        0.15926271       0.74675914      -0.68055953
C       -0.66660373       1.83708039      -0.04831492
C        0.86435837      -0.24031191       0.16441016
C        1.18742515      -0.29125126       1.56999674
C        2.32461039      -0.72906344       1.07366720
H       -2.38773867      -1.05019763      -0.68018364
H       -1.46046143      -2.29194220       0.17373845
H       -1.71431558      -0.72090603       0.91897875
H        0.00538754      -1.24902424      -1.59452968
H        0.66618286       1.03546159      -1.59606077
H       -0.04863109       2.71576399       0.14401309
H       -1.49094472       2.13399495      -0.69984045
H       -1.08448207       1.51937634       0.90622222
H        2.06337794      -0.93173738      -0.22181899
H        3.36696194      -0.52943471       1.27676186
17
Frame=5 idx=009533 GeodesicLength=0.6055823727249855 rxn_smarts="[C:1]([C@@:2]1([H:11])[C@:3]([C:4]([H:13])([H:14])[H:15])([H:12])[C@:5]1([C:6]#[C:7][H:17])[H:16])([H:8])([H:9])[H:10]>>[C:1]([C@@:2]1([H:11])[C@:3]([C:4]([H:13])([H:14])[H:15])([H:12])[C:5]1=[C:6]=[C:7]([H:16])[H:17])([H:8])([H:9])[H:10]"
C       -1.53090294      -1.21937547      -0.02830719
C       -0.26774295      -0.72996205      -0.68830209
C        0.14931911       0.74699916      -0.69417227
C       -0.66762504       1.83606578      -0.04812263
C        0.86836810      -0.24337624       0.13738379
C        1.19314464      -0.30060487       1.53566825
C        2.34860249      -0.73037634       1.09075104
H       -2.39928351      -1.04770952      -0.66749729
H       -1.46090465      -2.28925782       0.17560474
H       -1.70849391      -0.71854145       0.92284713
H       -0.01723183      -1.24590357      -1.61013975
H        0.64471458       1.03964060      -1.61472408
H       -0.04582356       2.71274107       0.14109055
H       -1.49953758       2.13702432      -0.68804119
H       -1.07624891       1.51577581       0.90961700
H        2.09393348      -0.93577356      -0.23005864
H        3.37571248      -0.52736586       1.35640263
17
Frame=6 idx=009533 GeodesicLength=0.7264636768641952 rxn_smarts="[C:1]([C@@:2]1([H:11])[C@:3]([C:4]([H:13])([H:14])[H:15])([H:12])[C@:5]1([C:6]#[C:7][H:17])[H:16])([H:8])([H:9])[H:10]>>[C:1]([C@@:2]1([H:11])[C@:3]([C:4]([H:13])([H:14])[H:15])([H:12])[C:5]1=[C:6]=[C:7]([H:16])[H:17])([H:8])([H:9])[H:10]"
C       -1.53409998      -1.21696272      -0.02602029
C       -0.27886311      -0.72723274      -0.70097966
C        0.13897139       0.74724452      -0.70852061
C       -0.66827209       1.83492789      -0.04791119
C        0.87254367      -0.24662078       0.10850115
C        1.20035178      -0.31010240       1.49927343
C        2.37295127      -0.73061239       1.10833777
H       -2.41090077      -1.04521151      -0.65354184
H       -1.46080898      -2.28671908       0.17750896
H       -1.70140495      -0.71646291       0.92722899
H       -0.04106294      -1.24264349      -1.62647153
H        0.62199157       1.04399511      -1.63432698
H       -0.04245321       2.70952445       0.13773430
H       -1.50812372       2.14003682      -0.67534572
H       -1.06674551       1.51188396       0.91324007
H        2.12594780      -0.93850151      -0.23899775
H        3.37997776      -0.52654323       1.44029091
17
Frame=7 idx=009533 GeodesicLength=0.8472177040825968 rxn_smarts="[C:1]([C@@:2]1([H:11])[C@:3]([C:4]([H:13])([H:14])[H:15])([H:12])[C@:5]1([C:6]#[C:7][H:17])[H:16])([H:8])([H:9])[H:10]>>[C:1]([C@@:2]1([H:11])[C@:3]([C:4]([H:13])([H:14])[H:15])([H:12])[C:5]1=[C:6]=[C:7]([H:16])[H:17])([H:8])([H:9])[H:10]"
C       -1.53654111      -1.21472461      -0.02311457
C       -0.29025790      -0.72431458      -0.71422143
C        0.12807963       0.74774681      -0.72374846
C       -0.66885857       1.83379555      -0.04790925
C        0.87700176      -0.24956870       0.07757156
C        1.20946425      -0.31870019       1.46056823
C        2.39739740      -0.72982879       1.12649154
H       -2.42229135      -1.04300630      -0.63790508
H       -1.45950551      -2.28436915       0.17974102
H       -1.69256467      -0.71471751       0.93236074
H       -0.06602403      -1.23909072      -1.64344567
H        0.59770631       1.04878689      -1.65505518
H       -0.03903430       2.70640697       0.13359018
H       -1.51709718       2.14290264      -0.66193425
H       -1.05614630       1.50784075       0.91689045
H        2.15977902      -0.93893095      -0.24889265
H        3.37889255      -0.53022811       1.52901283
17
Frame=8 idx=009533 GeodesicLength=0.9678027626047987 rxn_smarts="[C:1]([C@@:2]1([H:11])[C@:3]([C:4]([H:13])([H:14])[H:15])([H:12])[C@:5]1([C:6]#[C:7][H:17])[H:16])([H:8])([H:9])[H:10]>>[C:1]([C@@:2]1([H:11])[C@:3]([C:4]([H:13])([H:14])[H:15])([H:12])[C:5]1=[C:6]=[C:7]([H:16])[H:17])([H:8])([H:9])[H:10]"
C       -1.53889938      -1.21257208      -0.02004322
C       -0.30222455      -0.72168781      -0.72809576
C        0.11704388       0.74782629      -0.73950191
C       -0.66833601       1.83226494      -0.04752986
C        0.88149341      -0.25347087       0.04475839
C        1.21983924      -0.32878865       1.41975439
C        2.42217525      -0.72750510       1.14563884
H       -2.43387539      -1.04035163      -0.62114152
H       -1.45836214      -2.28220774       0.18161841
H       -1.68258528      -0.71333497       0.93782686
H       -0.09249662      -1.23564019      -1.66115774
H        0.57248723       1.05333734      -1.67639431
H       -0.03402987       2.70257902       0.12946031
H       -1.52517468       2.14584617      -0.64714457
H       -1.04356268       1.50319347       0.92103800
H        2.19512304      -0.93849141      -0.25910117
H        3.37138454      -0.53099677       1.62001487
17
Frame=9 idx=009533 GeodesicLength=1.088114210509303 rxn_smarts="[C:1]([C@@:2]1([H:11])[C@:3]([C:4]([H:13])([H:14])[H:15])([H:12])[C@:5]1([C:6]#[C:7][H:17])[H:16])([H:8])([H:9])[H:10]>>[C:1]([C@@:2]1([H:11])[C@:3]([C:4]([H:13])([H:14])[H:15])([H:12])[C:5]1=[C:6]=[C:7]([H:16])[H:17])([H:8])([H:9])[H:10]"
C       -1.53920864      -1.21076310      -0.01543005
C       -0.31396126      -0.71838129      -0.74225790
C        0.10497790       0.74891440      -0.75663575
C       -0.66881760       1.83118322      -0.04822700
C        0.88661588      -0.25545466       0.00944709
C        1.23337826      -0.33461057       1.37601388
C        2.44633756      -0.72413260       1.16536794
H       -2.44422173      -1.03899204      -0.60138960
H       -1.45387716      -2.28028224       0.18497165
H       -1.66937335      -0.71226930       0.94480834
H       -0.11968668      -1.23159553      -1.67906324
H        0.54469906       1.05898702      -1.69953403
H       -0.03067353       2.69981631       0.12321015
H       -1.53495704       2.14820884      -0.63242979
H       -1.03051803       1.49898007       0.92447335
H        2.23328702      -0.93252295      -0.27101736
H        3.35599935      -0.54708559       1.71769233
17
Frame=10 idx=009533 GeodesicLength=1.2081769379716647 rxn_smarts="[C:1]([C@@:2]1([H:11])[C@:3]([C:4]([H:13])([H:14])[H:15])([H:12])[C@:5]1([C:6]#[C:7][H:17])[H:16])([H:8])([H:9])[H:10]>>[C:1]([C@@:2]1([H:11])[C@:3]([C:4]([H:13])([H:14])[H:15])([H:12])[C:5]1=[C:6]=[C:7]([H:16])[H:17])([H:8])([H:9])[H:10]"
C       -1.53863986      -1.20916767      -0.01010602
C       -0.32597593      -0.71518237      -0.75687132
C        0.09256177       0.74990129      -0.77451990
C       -0.66856839       1.82989686      -0.04892756
C        0.89198327      -0.25764557      -0.02808854
C        1.24887159      -0.34035809       1.32972038
C        2.47025720      -0.71896143       1.18634024
H       -2.45409862      -1.03771552      -0.57966106
H       -1.44833582      -2.27861485       0.18860608
H       -1.65404461      -0.71159104       0.95254775
H       -0.14823668      -1.22756846      -1.69740893
H        0.51540366       1.06467790      -1.72357661
H       -0.02640635       2.69679410       0.11628789
H       -1.54435109       2.15041391      -0.61657218
H       -1.01554650       1.49442895       0.92807204
H        2.27384197      -0.92329938      -0.28359373
H        3.33128439      -0.56600863       1.81775146
17
Frame=11 idx=009533 GeodesicLength=1.3279946146418744 rxn_smarts="[C:1]([C@@:2]1([H:11])[C@:3]([C:4]([H:13])([H:14])[H:15])([H:12])[C@:5]1([C:6]#[C:7][H:17])[H:16])([H:8])([H:9])[H:10]>>[C:1]([C@@:2]1([H:11])[C@:3]([C:4]([H:13])([H:14])[H:15])([H:12])[C:5]1=[C:6]=[C:7]([H:16])[H:17])([H:8])([H:9])[H:10]"
C       -1.53696783      -1.20780765      -0.00394593
C       -0.33813016      -0.71208937      -0.77177850
C        0.07988717       0.75079531      -0.79305878
C       -0.66754825       1.82840913      -0.04969348
C        0.89762485      -0.25997148      -0.06774572
C        1.26641624      -0.34563490       1.28094687
C        2.49298505      -0.71285165       1.20934532
H       -2.46322348      -1.03660193      -0.55580493
H       -1.44148192      -2.27721641       0.19265867
H       -1.63635402      -0.71130370       0.96110296
H       -0.17800541      -1.22357895      -1.71596694
H        0.48470146       1.07038000      -1.74836818
H       -0.02127753       2.69356832       0.10859780
H       -1.55326064       2.15235952      -0.59966202
H       -0.99861524       1.48959561       0.93172964
H        2.31710955      -0.90998818      -0.29652335
H        3.29614016      -0.58806368       1.91816656
17
Frame=12 idx=009533 GeodesicLength=1.4477144369154256 rxn_smarts="[C:1]([C@@:2]1([H:11])[C@:3]([C:4]([H:13])([H:14])[H:15])([H:12])[C@:5]1([C:6]#[C:7][H:17])[H:16])([H:8])([H:9])[H:10]>>[C:1]([C@@:2]1([H:11])[C@:3]([C:4]([H:13])([H:14])[H:15])([H:12])[C:5]1=[C:6]=[C:7]([H:16])[H:17])([H:8])([H:9])[H:10]"
C       -1.53491991      -1.20663270       0.00246456
C       -0.35075573      -0.70951112      -0.78711123
C        0.06741711       0.75097099      -0.81178849
C       -0.66468508       1.82625855      -0.04978232
C        0.90328164      -0.26378453      -0.10937599
C        1.28530581      -0.35289183       1.22987845
C        2.51379151      -0.70645562       1.23516174
H       -2.47207445      -1.03482927      -0.53046731
H       -1.43476408      -2.27617109       0.19617546
H       -1.61691415      -0.71164147       0.96998979
H       -0.20947752      -1.21978231      -1.73497416
H        0.45331079       1.07559932      -1.77323000
H       -0.01374706       2.68925963       0.10120063
H       -1.56036383       2.15425715      -0.58084791
H       -0.97884535       1.48384526       0.93600715
H        2.36280670      -0.89370733      -0.30914760
H        3.25063358      -0.60478362       2.01584723
17
Frame=13 idx=009533 GeodesicLength=1.5667450230019317 rxn_smarts="[C:1]([C@@:2]1([H:11])[C@:3]([C:4]([H:13])([H:14])[H:15])([H:12])[C@:5]1([C:6]#[C:7][H:17])[H:16])([H:8])([H:9])[H:10]>>[C:1]([C@@:2]1([H:11])[C@:3]([C:4]([H:13])([H:14])[H:15])([H:12])[C:5]1=[C:6]=[C:7]([H:16])[H:17])([H:8])([H:9])[H:10]"
C       -1.52808714      -1.20592377       0.01279166
C       -0.36184262      -0.70597765      -0.80145289
C        0.05329926       0.75291600      -0.83272980
C       -0.66430463       1.82544438      -0.05304385
C        0.91026013      -0.26289006      -0.15370717
C        1.30948863      -0.35024444       1.17534624
C        2.53265404      -0.69641547       1.26212778
H       -2.47719088      -1.03604360      -0.49914067
H       -1.42071620      -2.27514349       0.20448454
H       -1.59121916      -0.71143162       0.98203916
H       -0.24034173      -1.21621026      -1.75208011
H        0.41776377       1.08183311      -1.80107641
H       -0.01049219       2.68794786       0.08813036
H       -1.57101570       2.15463437      -0.56421304
H       -0.95916516       1.48035097       0.93782750
H        2.41362461      -0.86400108      -0.32353531
H        3.18728499      -0.65884526       2.11823201
17
Frame=14 idx=009533 GeodesicLength=1.6858795018589152 rxn_smarts="[C:1]([C@@:2]1([H:11])[C@:3]([C:4]([H:13])([H:14])[H:15])([H:12])[C@:5]1([C:6]#[C:7][H:17])[H:16])([H:8])([H:9])[H:10]>>[C:1]([C@@:2]1([H:11])[C@:3]([C:4]([H:13])([H:14])[H:15])([H:12])[C:5]1=[C:6]=[C:7]([H:16])[H:17])([H:8])([H:9])[H:10]"
C       -1.52207459      -1.20537480       0.02209601
C       -0.37384485      -0.70355582      -0.81641299
C        0.04038940       0.75312949      -0.85270243
C       -0.66015616       1.82308240      -0.05398125
C        0.91677674      -0.26590071      -0.19945980
C        1.33368874      -0.35378821       1.11911902
C        2.54593913      -0.69133825       1.29394802
H       -2.48263516      -1.03531968      -0.46786934
H       -1.40917156      -2.27466392       0.21028116
H       -1.56492214      -0.71246017       0.99330541
H       -0.27351880      -1.21277124      -1.77005268
H        0.38316229       1.08695727      -1.82729596
H       -0.00219101       2.68393575       0.07776901
H       -1.57738497       2.15526548      -0.54391808
H       -0.93523073       1.47461503       0.94145818
H        2.46633339      -0.83267193      -0.33600403
H        3.11484027      -0.68914066       2.20971973
17
Frame=15 idx=009533 GeodesicLength=1.8052135451016327 rxn_smarts="[C:1]([C@@:2]1([H:11])[C@:3]([C:4]([H:13])([H:14])[H:15])([H:12])[C@:5]1([C:6]#[C:7][H:17])[H:16])([H:8])([H:9])[H:10]>>[C:1]([C@@:2]1([H:11])[C@:3]([C:4]([H:13])([H:14])[H:15])([H:12])[C:5]1=[C:6]=[C:7]([H:16])[H:17])([H:8])([H:9])[H:10]"
C       -1.51499435      -1.20511898       0.03206500
C       -0.38606839      -0.70170215      -0.83151876
C        0.02785839       0.75258093      -0.87274644
C       -0.65379891       1.81994071      -0.05419049
C        0.92341771      -0.27039956      -0.24745568
C        1.35999063      -0.35905164       1.06006366
C        2.55344501      -0.68917063       1.32873360
H       -2.48702656      -1.03397961      -0.43428219
H       -1.39707694      -2.27466035       0.21583218
H       -1.53570713      -0.71433983       1.00514649
H       -0.30854210      -1.20951096      -1.78804666
H        0.34767231       1.09155536      -1.85338413
H        0.00868179       2.67884542       0.06742860
H       -1.58158157       2.15551565      -0.52133892
H       -0.90765394       1.46786065       0.94568292
H        2.52194540      -0.79532929      -0.34801646
H        3.02943864      -0.71303572       2.29602727
17
Frame=16 idx=009533 GeodesicLength=1.9241319718391983 rxn_smarts="[C:1]([C@@:2]1([H:11])[C@:3]([C:4]([H:13])([H:14])[H:15])([H:12])[C@:5]1([C:6]#[C:7][H:17])[H:16])([H:8])([H:9])[H:10]>>[C:1]([C@@:2]1([H:11])[C@:3]([C:4]([H:13])([H:14])[H:15])([H:12])[C:5]1=[C:6]=[C:7]([H:16])[H:17])([H:8])([H:9])[H:10]"
C       -1.50432107      -1.20508568       0.04514283
C       -0.39698848      -0.69996053      -0.84516174
C        0.01492822       0.75229063      -0.89370603
C       -0.64763302       1.81729888      -0.05637699
C        0.93082026      -0.27285935      -0.29684459
C        1.39000333      -0.35972283       0.99881201
C        2.55635869      -0.67990886       1.36597846
H       -2.48802233      -1.03408845      -0.39601931
H       -1.38036731      -2.27460674       0.22512139
H       -1.50152819      -0.71558648       1.01914006
H       -0.34313943      -1.20742237      -1.80350144
H        0.30998783       1.09550572      -1.88063236
H        0.01829232       2.67522509       0.05290143
H       -1.58638964       2.15442533      -0.49975923
H       -0.87819507       1.46257423       0.94825736
H        2.58112776      -0.74633618      -0.35905443
H        2.92506613      -0.76174239       2.37570259
