13
Frame=0 idx=000472 GeodesicLength=0.0 rxn_smarts="[O:1]([C@@:2]1([H:8])[C:3]([H:9])([H:10])[C@@:4]2([H:11])[N:5]([H:12])[C@@:6]12[H:13])[H:7]>>[O:1]([C:2](=[C:6]([N:5]([C:4](=[C:3]([H:9])[H:10])[H:11])[H:12])[H:13])[H:8])[H:7]"
O        1.94962001       0.52813071       0.20342850
C        0.81465631       0.51341695      -0.48526026
C        0.16583294      -1.46874224      -0.05085713
C       -0.89875644      -0.58568852       0.06732249
N       -0.91376504       0.41848280       1.04983994
C       -0.31479083       1.30065297       0.00952097
H        1.74971037       0.98878344       1.03245208
H        0.97643285       0.35659022      -1.54543030
H        0.77556821      -1.70430938       0.80797744
H        0.20941590      -2.12172893      -0.91101250
H       -1.68570945      -0.57205354      -0.68739067
H       -1.83956447       0.73240392       1.30102242
H       -0.98865033       1.61406161      -0.79161296
13
Frame=1 idx=000472 GeodesicLength=0.06922060630186726 rxn_smarts="[O:1]([C@@:2]1([H:8])[C:3]([H:9])([H:10])[C@@:4]2([H:11])[N:5]([H:12])[C@@:6]12[H:13])[H:7]>>[O:1]([C:2](=[C:6]([N:5]([C:4](=[C:3]([H:9])[H:10])[H:11])[H:12])[H:13])[H:8])[H:7]"
O        1.95592120       0.55205087       0.20304987
C        0.82381036       0.52288597      -0.49448285
C        0.16139819      -1.47344689      -0.04893082
C       -0.90455239      -0.58838100       0.06497479
N       -0.90009901       0.41801322       1.04724838
C       -0.31916799       1.28950574      -0.00654038
H        1.73780954       0.98055163       1.04441008
H        0.99631237       0.38260678      -1.55535418
H        0.75898683      -1.71919672       0.81621205
H        0.20065296      -2.13496066      -0.90305163
H       -1.69482888      -0.58136952      -0.68551861
H       -1.82148688       0.73047887       1.31521661
H       -0.99475630       1.62126170      -0.79723329
13
Frame=2 idx=000472 GeodesicLength=0.13845723988099803 rxn_smarts="[O:1]([C@@:2]1([H:8])[C:3]([H:9])([H:10])[C@@:4]2([H:11])[N:5]([H:12])[C@@:6]12[H:13])[H:7]>>[O:1]([C:2](=[C:6]([N:5]([C:4](=[C:3]([H:9])[H:10])[H:11])[H:12])[H:13])[H:8])[H:7]"
O        1.96197806       0.57691925       0.20281871
C        0.83306838       0.53239681      -0.50370824
C        0.15691218      -1.47842997      -0.04679253
C       -0.91049101      -0.59141538       0.06278157
N       -0.88643509       0.41737315       1.04428273
C       -0.32344414       1.27778033      -0.02278005
H        1.72632126       0.97220438       1.05541543
H        1.01638818       0.41001326      -1.56507207
H        0.74152419      -1.73473733       0.82478702
H        0.19174467      -2.14843678      -0.89477079
H       -1.70397890      -0.59108351      -0.68352842
H       -1.80303481       0.72867612       1.32885812
H       -1.00055298       1.62873968      -0.80229147
13
Frame=3 idx=000472 GeodesicLength=0.2076881736599662 rxn_smarts="[O:1]([C@@:2]1([H:8])[C:3]([H:9])([H:10])[C@@:4]2([H:11])[N:5]([H:12])[C@@:6]12[H:13])[H:7]>>[O:1]([C:2](=[C:6]([N:5]([C:4](=[C:3]([H:9])[H:10])[H:11])[H:12])[H:13])[H:8])[H:7]"
O        1.96774401       0.60276956       0.20272824
C        0.84243599       0.54193653      -0.51296022
C        0.15236764      -1.48372154      -0.04441119
C       -0.91657260      -0.59480846       0.06075265
N       -0.87276589       0.41656246       1.04092424
C       -0.32760278       1.26544263      -0.03924094
H        1.71528295       0.96373836       1.06546172
H        1.03661669       0.43886388      -1.57455508
H        0.72314243      -1.75094618       0.83370643
H        0.18270695      -2.16215633      -0.88616125
H       -1.71315349      -0.60121165      -0.68141772
H       -1.78420669       0.72701292       1.34191019
H       -1.00599521       1.63651780      -0.80673706
13
Frame=4 idx=000472 GeodesicLength=0.2768837512819854 rxn_smarts="[O:1]([C@@:2]1([H:8])[C:3]([H:9])([H:10])[C@@:4]2([H:11])[N:5]([H:12])[C@@:6]12[H:13])[H:7]>>[O:1]([C:2](=[C:6]([N:5]([C:4](=[C:3]([H:9])[H:10])[H:11])[H:12])[H:13])[H:8])[H:7]"
O        1.97316453       0.62963606       0.20277443
C        0.85191944       0.55149197      -0.52226269
C        0.14775294      -1.48934844      -0.04175218
C       -0.92279820      -0.59857638       0.05889739
N       -0.85908163       0.41557973       1.03714849
C       -0.33162498       1.25245209      -0.05596881
H        1.70473531       0.95514831       1.07453683
H        1.05694473       0.46920622      -1.58376423
H        0.70380339      -1.76782713       0.84297115
H        0.17355647      -2.17610777      -0.87721505
H       -1.72234695      -0.61177149      -0.67918391
H       -1.76499841       0.72550444       1.35432695
H       -1.01102664       1.64461240      -0.81050839
13
Frame=5 idx=000472 GeodesicLength=0.3460296163770865 rxn_smarts="[O:1]([C@@:2]1([H:8])[C:3]([H:9])([H:10])[C@@:4]2([H:11])[N:5]([H:12])[C@@:6]12[H:13])[H:7]>>[O:1]([C:2](=[C:6]([N:5]([C:4](=[C:3]([H:9])[H:10])[H:11])[H:12])[H:13])[H:8])[H:7]"
O        1.97817466       0.65754898       0.20296088
C        0.86152768       0.56105113      -0.53164416
C        0.14305422      -1.49535416      -0.03878041
C       -0.92917078      -0.60273935       0.05722763
N       -0.84537602       0.41442745       1.03293670
C       -0.33549568       1.23877253      -0.07301608
H        1.69471030       0.94644660       1.08262995
H        1.07732125       0.50107359      -1.59266517
H        0.68347820      -1.78539501       0.85258136
H        0.16432089      -2.19029052      -0.86794115
H       -1.73155525      -0.62278204      -0.67682538
H       -1.74540738       0.72418004       1.36607839
H       -1.01558209       1.65306076      -0.81354257
13
Frame=6 idx=000472 GeodesicLength=0.41509083073060815 rxn_smarts="[O:1]([C@@:2]1([H:8])[C:3]([H:9])([H:10])[C@@:4]2([H:11])[N:5]([H:12])[C@@:6]12[H:13])[H:7]>>[O:1]([C:2](=[C:6]([N:5]([C:4](=[C:3]([H:9])[H:10])[H:11])[H:12])[H:13])[H:8])[H:7]"
O        1.98270252       0.68653151       0.20329061
C        0.87126953       0.57060240      -0.54113218
C        0.13825668      -1.50176915      -0.03545662
C       -0.93569146      -0.60731287       0.05575056
N       -0.83163819       0.41310431       1.02825959
C       -0.33919559       1.22435957      -0.09043539
H        1.68525217       0.93764184       1.08971793
H        1.09767505       0.53449859      -1.60120955
H        0.66213009      -1.80364720       0.86253921
H        0.15502683      -2.20468998      -0.85833893
H       -1.74077284      -0.63425980      -0.67434274
H       -1.72543163       0.72305635       1.37711171
H       -1.01958315       1.66188442      -0.81575421
13
Frame=7 idx=000472 GeodesicLength=0.4840334101497815 rxn_smarts="[O:1]([C@@:2]1([H:8])[C:3]([H:9])([H:10])[C@@:4]2([H:11])[N:5]([H:12])[C@@:6]12[H:13])[H:7]>>[O:1]([C:2](=[C:6]([N:5]([C:4](=[C:3]([H:9])[H:10])[H:11])[H:12])[H:13])[H:8])[H:7]"
O        1.98665837       0.71659789       0.20378285
C        0.88115152       0.58012955      -0.55074677
C        0.13333096      -1.50863474      -0.03174541
C       -0.94236756      -0.61231626       0.05447404
N       -0.81785430       0.41160563       1.02308297
C       -0.34270813       1.20915286      -0.10828685
H        1.67638690       0.92878795       1.09577901
H        1.11793429       0.56947613      -1.60933485
H        0.63974647      -1.82256829       0.87282877
H        0.14569927      -2.21928578      -0.84843221
H       -1.75000253      -0.64622498      -0.67173351
H       -1.70504942       0.72216306       1.38738261
H       -1.02292584       1.67111699      -0.81705067
13
Frame=8 idx=000472 GeodesicLength=0.5528914668852206 rxn_smarts="[O:1]([C@@:2]1([H:8])[C:3]([H:9])([H:10])[C@@:4]2([H:11])[N:5]([H:12])[C@@:6]12[H:13])[H:7]>>[O:1]([C:2](=[C:6]([N:5]([C:4](=[C:3]([H:9])[H:10])[H:11])[H:12])[H:13])[H:8])[H:7]"
O        1.98996148       0.74780828       0.20443335
C        0.89119647       0.58963953      -0.56053930
C        0.12828091      -1.51598783      -0.02760636
C       -0.94920064      -0.61776674       0.05340033
N       -0.80401683       0.40993233       1.01737129
C       -0.34602675       1.19311327      -0.12665474
H        1.66814583       0.91983672       1.10080338
H        1.13804203       0.60607357      -1.61701477
H        0.61628292      -1.84217703       0.88347534
H        0.13636741      -2.23410858      -0.83820142
H       -1.75925575      -0.65870724      -0.66899277
H       -1.68426107       0.72152856       1.39686125
H       -1.02551600       1.68081516      -0.81733558
13
Frame=9 idx=000472 GeodesicLength=0.62163590701851 rxn_smarts="[O:1]([C@@:2]1([H:8])[C:3]([H:9])([H:10])[C@@:4]2([H:11])[N:5]([H:12])[C@@:6]12[H:13])[H:7]>>[O:1]([C:2](=[C:6]([N:5]([C:4](=[C:3]([H:9])[H:10])[H:11])[H:12])[H:13])[H:8])[H:7]"
O        1.99247852       0.78020831       0.20525136
C        0.90140740       0.59913679      -0.57054258
C        0.12309917      -1.52384857      -0.02300667
C       -0.95617017      -0.62367863       0.05251720
N       -0.79008419       0.40808545       1.01106339
C       -0.34912620       1.17618337      -0.14561158
H        1.66056041       0.91081455       1.10475305
H        1.15788816       0.64434586      -1.62417842
H        0.59163087      -1.86247759       0.89448834
H        0.12704414      -2.24917224      -0.82762736
H       -1.76850463      -0.67174745      -0.66612357
H       -1.66301001       0.72117357       1.40547502
H       -1.02721347       1.69097659      -0.81645819
13
Frame=10 idx=000472 GeodesicLength=0.690289692495428 rxn_smarts="[O:1]([C@@:2]1([H:8])[C:3]([H:9])([H:10])[C@@:4]2([H:11])[N:5]([H:12])[C@@:6]12[H:13])[H:7]>>[O:1]([C:2](=[C:6]([N:5]([C:4](=[C:3]([H:9])[H:10])[H:11])[H:12])[H:13])[H:8])[H:7]"
O        1.99411429       0.81380214       0.20628721
C        0.91180896       0.60861876      -0.58077851
C        0.11773226      -1.53226614      -0.01791333
C       -0.96331971      -0.63007859       0.05182986
N       -0.77606110       0.40604407       1.00411210
C       -0.35200584       1.15827009      -0.16526032
H        1.65364474       0.90181271       1.10761274
H        1.17741460       0.68421409      -1.63075565
H        0.56587548      -1.88339220       0.90583066
H        0.11774084      -2.26445217      -0.81675590
H       -1.77782019      -0.68537644      -0.66311683
H       -1.64128323       0.72112445       1.41320078
H       -1.02784110       1.70167923      -0.81429282
13
Frame=11 idx=000472 GeodesicLength=0.7587741545341405 rxn_smarts="[O:1]([C@@:2]1([H:8])[C:3]([H:9])([H:10])[C@@:4]2([H:11])[N:5]([H:12])[C@@:6]12[H:13])[H:7]>>[O:1]([C:2](=[C:6]([N:5]([C:4](=[C:3]([H:9])[H:10])[H:11])[H:12])[H:13])[H:8])[H:7]"
O        1.99469723       0.84855876       0.20752834
C        0.92239274       0.61811133      -0.59127473
C        0.11219675      -1.54127261      -0.01229970
C       -0.97059320      -0.63696688       0.05131962
N       -0.76189982       0.40381330       0.99645458
C       -0.35463385       1.13935912      -0.18564051
H        1.64743899       0.89300255       1.10931046
H        1.19643974       0.72572117      -1.63666880
H        0.53881266      -1.90501414       0.91751468
H        0.10850333      -2.27998471      -0.80556768
H       -1.78711444      -0.69960158      -0.65997830
H       -1.61903813       0.72140360       1.41992346
H       -1.02720202       1.71287009      -0.81062141
13
Frame=12 idx=000472 GeodesicLength=0.8271414290901495 rxn_smarts="[O:1]([C@@:2]1([H:8])[C:3]([H:9])([H:10])[C@@:4]2([H:11])[N:5]([H:12])[C@@:6]12[H:13])[H:7]>>[O:1]([C:2](=[C:6]([N:5]([C:4](=[C:3]([H:9])[H:10])[H:11])[H:12])[H:13])[H:8])[H:7]"
O        1.99407628       0.88453129       0.20903361
C        0.93316371       0.62765232      -0.60204554
C        0.10642556      -1.55090172      -0.00614802
C       -0.97802649      -0.64436647       0.05097448
N       -0.74758854       0.40138278       0.98801246
C       -0.35700733       1.11935885      -0.20687580
H        1.64190055       0.88439370       1.10984738
H        1.21488215       0.76878127      -1.64182281
H        0.51058561      -1.92719281       0.92946844
H        0.09928762      -2.29579141      -0.79407437
H       -1.79645836      -0.71448083      -0.65668784
H       -1.59621378       0.72204763       1.42560527
H       -1.02502698       1.72458541      -0.80528727
13
Frame=13 idx=000472 GeodesicLength=0.8954611461103832 rxn_smarts="[O:1]([C@@:2]1([H:8])[C:3]([H:9])([H:10])[C@@:4]2([H:11])[N:5]([H:12])[C@@:6]12[H:13])[H:7]>>[O:1]([C:2](=[C:6]([N:5]([C:4](=[C:3]([H:9])[H:10])[H:11])[H:12])[H:13])[H:8])[H:7]"
O        1.99219013       0.92166029       0.21080136
C        0.94416770       0.63730602      -0.61313760
C        0.10043103      -1.56117753       0.00057057
C       -0.98563899      -0.65226584       0.05077707
N       -0.73313600       0.39872001       0.97875053
C       -0.35912919       1.09824818      -0.22904084
H        1.63712435       0.87616497       1.10921120
H        1.23263796       0.81341299      -1.64621826
H        0.48108998      -1.94998071       0.94173971
H        0.09013779      -2.31187601      -0.78228219
H       -1.80590848      -0.72999163      -0.65326256
H       -1.57284890       0.72304081       1.43022444
H       -1.02111739       1.73673843      -0.79813345
13
Frame=14 idx=000472 GeodesicLength=0.9636439718163301 rxn_smarts="[O:1]([C@@:2]1([H:8])[C:3]([H:9])([H:10])[C@@:4]2([H:11])[N:5]([H:12])[C@@:6]12[H:13])[H:7]>>[O:1]([C:2](=[C:6]([N:5]([C:4](=[C:3]([H:9])[H:10])[H:11])[H:12])[H:13])[H:8])[H:7]"
O        1.98883269       0.95985382       0.21286322
C        0.95536076       0.64713679      -0.62451853
C        0.09417883      -1.57209461       0.00783051
C       -0.99336392      -0.66063485       0.05067753
N       -0.71844237       0.39583090       0.96859209
C       -0.36093445       1.07601379      -0.25214385
H        1.63305320       0.86867889       1.10739036
H        1.24946362       0.85951521      -1.64971743
H        0.45015104      -1.97336393       0.95423420
H        0.08101586      -2.32823623      -0.77023588
H       -1.81538481      -0.74613290      -0.64969946
H       -1.54877460       0.72440104       1.43370655
H       -1.01515586       1.74903208      -0.78897929
13
Frame=15 idx=000472 GeodesicLength=1.0317671975551723 rxn_smarts="[O:1]([C@@:2]1([H:8])[C:3]([H:9])([H:10])[C@@:4]2([H:11])[N:5]([H:12])[C@@:6]12[H:13])[H:7]>>[O:1]([C:2](=[C:6]([N:5]([C:4](=[C:3]([H:9])[H:10])[H:11])[H:12])[H:13])[H:8])[H:7]"
O        1.98400355       0.99897490       0.21526273
C        0.96676554       0.65726599      -0.63615423
C        0.08759025      -1.58366588       0.01561705
C       -1.00126957      -0.66942855       0.05067419
N       -0.70352786       0.39267319       0.95754489
C       -0.36241130       1.05269491      -0.27617858
H        1.62971977       0.86217835       1.10447051
H        1.26525177       0.90693218      -1.65228380
H        0.41793765      -1.99724066       0.96686334
H        0.07188098      -2.34482098      -0.75802586
H       -1.82501486      -0.76280683      -0.64599319
H       -1.52401515       0.72610212       1.43608835
H       -1.00691077       1.76114126      -0.77788539
13
Frame=16 idx=000472 GeodesicLength=1.099787618872557 rxn_smarts="[O:1]([C@@:2]1([H:8])[C:3]([H:9])([H:10])[C@@:4]2([H:11])[N:5]([H:12])[C@@:6]12[H:13])[H:7]>>[O:1]([C:2](=[C:6]([N:5]([C:4](=[C:3]([H:9])[H:10])[H:11])[H:12])[H:13])[H:8])[H:7]"
O        1.97756706       1.03889767       0.21802663
C        0.97832968       0.66783757      -0.64795718
C        0.08061347      -1.59584644       0.02388198
C       -1.00928490      -0.67854362       0.05073281
N       -0.68830010       0.38925516       0.94558180
C       -0.36346067       1.02839638      -0.30103428
H        1.62705338       0.85683337       1.10049194
H        1.27977488       0.95558773      -1.65376191
H        0.38438193      -2.02153532       0.97947636
H        0.06265215      -2.36159177      -0.74569358
H       -1.83472613      -0.77989369      -0.64209743
H       -1.49840069       0.72815158       1.43736064
H       -0.99620005       1.77245138      -0.76500777
