19
Frame=0 idx=009708 GeodesicLength=0.0 rxn_smarts="[C:1]([C@@:2]1([H:11])[C@@:3]2([H:12])[C:4]([H:13])([H:14])[C:5]([H:15])([H:16])[C:6]([H:17])([H:18])[C@@:7]12[H:19])([H:8])([H:9])[H:10]>>[C:1]([C@@:2]1([H:11])[C@@:3]2([H:12])[C:4]([H:13])([H:14])[C:5][C:6]([H:17])([H:18])[C@@:7]12[H:19])([H:8])([H:9])[H:10].[H:15][H:16]"
C       -2.13051365      -0.09817026       0.37473691
C       -1.16551335      -0.64006075      -0.64871040
C        0.02075920       0.12774770      -1.16575160
C        0.53417706       1.30836695      -0.34994468
C        1.25417621       0.81080055       0.87689122
C        0.86025135      -0.63956775       0.98515806
C        0.22685691      -1.10584291      -0.32023764
H       -2.88621379       0.52824319      -0.10435866
H       -2.64814323      -0.91427183       0.88369728
H       -1.64834039       0.50748633       1.14339564
H       -1.65581866      -1.24164252      -1.40780112
H        0.21319856       0.11372769      -2.23155708
H        1.14643356       1.99930110      -0.92970664
H       -0.27895100       1.92804830       0.05423085
H        2.96065314       0.42871952      -0.09431167
H        2.77332016       0.84488944       0.55715374
H        0.15638166      -0.65990092       1.82933272
H        1.69350376      -1.26459508       1.30685857
H        0.57378242      -2.03327870      -0.75907556
19
Frame=1 idx=009708 GeodesicLength=0.08047881773986401 rxn_smarts="[C:1]([C@@:2]1([H:11])[C@@:3]2([H:12])[C:4]([H:13])([H:14])[C:5]([H:15])([H:16])[C:6]([H:17])([H:18])[C@@:7]12[H:19])([H:8])([H:9])[H:10]>>[C:1]([C@@:2]1([H:11])[C@@:3]2([H:12])[C:4]([H:13])([H:14])[C:5][C:6]([H:17])([H:18])[C@@:7]12[H:19])([H:8])([H:9])[H:10].[H:15][H:16]"
C       -2.12683327      -0.09026976       0.38548146
C       -1.17654051      -0.64088114      -0.64723091
C        0.00993754       0.11708936      -1.17836796
C        0.53575962       1.29724460      -0.37146426
C        1.24051507       0.79952083       0.86323852
C        0.86281829      -0.65475047       0.96648481
C        0.21612231      -1.11594995      -0.33312500
H       -2.88311980       0.54094910      -0.08629223
H       -2.64496054      -0.90143194       0.90173682
H       -1.63072699       0.51316568       1.14726558
H       -1.67896514      -1.24041784      -1.39993066
H        0.18961649       0.09951330      -2.24636350
H        1.16550711       1.96717724      -0.95786802
H       -0.26738557       1.94083918       0.01373794
H        2.98177013       0.48609448      -0.01426479
H        2.76977140       0.90222036       0.64353849
H        0.17701325      -0.69835280       1.82400266
H        1.70945307      -1.27468907       1.26355186
H        0.55024754      -2.04707116      -0.77413080
19
Frame=2 idx=009708 GeodesicLength=0.16075350991566262 rxn_smarts="[C:1]([C@@:2]1([H:11])[C@@:3]2([H:12])[C:4]([H:13])([H:14])[C:5]([H:15])([H:16])[C:6]([H:17])([H:18])[C@@:7]12[H:19])([H:8])([H:9])[H:10]>>[C:1]([C@@:2]1([H:11])[C@@:3]2([H:12])[C:4]([H:13])([H:14])[C:5][C:6]([H:17])([H:18])[C@@:7]12[H:19])([H:8])([H:9])[H:10].[H:15][H:16]"
C       -2.12182594      -0.08156144       0.39708445
C       -1.18771565      -0.64154627      -0.64548026
C       -0.00131692       0.10579512      -1.19184554
C        0.53844881       1.28510929      -0.39453220
C        1.22717511       0.78752168       0.84844368
C        0.86647310      -0.67074660       0.94612626
C        0.20497319      -1.12671905      -0.34685530
H       -2.87860574       0.55486608      -0.06680578
H       -2.64035129      -0.88738316       0.92120689
H       -1.61110305       0.51937113       1.15140586
H       -1.70318087      -1.23874441      -1.39112513
H        0.16474902       0.08450025      -2.26198828
H        1.18678233       1.93208260      -0.98719443
H       -0.25355911       1.95294765      -0.02918982
H        2.99915138       0.54719035       0.07212028
H        2.75735704       0.96154886       0.73514406
H        0.20007293      -0.73828460       1.81677679
H        1.72703501      -1.28432571       1.21673507
H        0.52544062      -2.06162176      -0.79002660
19
Frame=3 idx=009708 GeodesicLength=0.240742337725682 rxn_smarts="[C:1]([C@@:2]1([H:11])[C@@:3]2([H:12])[C:4]([H:13])([H:14])[C:5]([H:15])([H:16])[C:6]([H:17])([H:18])[C@@:7]12[H:19])([H:8])([H:9])[H:10]>>[C:1]([C@@:2]1([H:11])[C@@:3]2([H:12])[C:4]([H:13])([H:14])[C:5][C:6]([H:17])([H:18])[C@@:7]12[H:19])([H:8])([H:9])[H:10].[H:15][H:16]"
C       -2.11529285      -0.07199066       0.40957818
C       -1.19890356      -0.64198691      -0.64338940
C       -0.01293420       0.09391800      -1.20613489
C        0.54238594       1.27194973      -0.41914052
C        1.21440917       0.77480696       0.83244577
C        0.87135082      -0.68750951       0.92405017
C        0.19348249      -1.13810652      -0.36137280
H       -2.87244413       0.57005681      -0.04586428
H       -2.63408642      -0.87206522       0.94214364
H       -1.58929066       0.52613588       1.15582195
H       -1.72832381      -1.23652656      -1.38127630
H        0.13865406       0.06876187      -2.27835186
H        1.21038343       1.89384531      -1.01755367
H       -0.23723284       1.96428712      -0.07450686
H        3.01158903       0.61180992       0.16487530
H        2.73473985       1.02233767       0.83152683
H        0.22577043      -0.77957060       1.80755261
H        1.74631875      -1.29328411       1.16627070
H        0.49942451      -2.07686918      -0.80667455
19
Frame=4 idx=009708 GeodesicLength=0.32035997928173787 rxn_smarts="[C:1]([C@@:2]1([H:11])[C@@:3]2([H:12])[C:4]([H:13])([H:14])[C:5]([H:15])([H:16])[C:6]([H:17])([H:18])[C@@:7]12[H:19])([H:8])([H:9])[H:10]>>[C:1]([C@@:2]1([H:11])[C@@:3]2([H:12])[C:4]([H:13])([H:14])[C:5][C:6]([H:17])([H:18])[C@@:7]12[H:19])([H:8])([H:9])[H:10].[H:15][H:16]"
C       -2.10702292      -0.06151739       0.42297124
C       -1.20991752      -0.64211747      -0.64087729
C       -0.02480351       0.08155356      -1.22113537
C        0.54769477       1.25779564      -0.44521739
C        1.20252433       0.76140856       0.81520593
C        0.87756961      -0.70494919       0.90028735
C        0.18176552      -1.15002604      -0.37656984
H       -2.86438825       0.58655872      -0.02347547
H       -2.62591525      -0.85544423       0.96454292
H       -1.56513176       0.53348152       1.16050647
H       -1.75416226      -1.23365464      -1.37027571
H        0.11145745       0.05242846      -2.29531418
H        1.23633629       1.85239734      -1.04872552
H       -0.21820290       1.97476981      -0.12207607
H        3.01771208       0.67953144       0.26375980
H        2.70058923       1.08380388       0.93188659
H        0.25426815      -0.82200674       1.79626367
H        1.76729186      -1.30131414       1.11216419
H        0.47233508      -2.09269910      -0.82392131
19
Frame=5 idx=009708 GeodesicLength=0.3995438943925899 rxn_smarts="[C:1]([C@@:2]1([H:11])[C@@:3]2([H:12])[C:4]([H:13])([H:14])[C:5]([H:15])([H:16])[C:6]([H:17])([H:18])[C@@:7]12[H:19])([H:8])([H:9])[H:10]>>[C:1]([C@@:2]1([H:11])[C@@:3]2([H:12])[C:4]([H:13])([H:14])[C:5][C:6]([H:17])([H:18])[C@@:7]12[H:19])([H:8])([H:9])[H:10].[H:15][H:16]"
C       -2.09683150      -0.05012604       0.43724249
C       -1.22053454      -0.64184517      -0.63786049
C       -0.03677106       0.06883954      -1.23669342
C        0.55446734       1.24272768      -0.47260767
C        1.19188563       0.74739726       0.79674391
C        0.88521555      -0.72292892       0.87495462
C        0.16997834      -1.16234963      -0.39228716
H       -2.85421577       0.60437012       0.00029908
H       -2.61561726      -0.83752879       0.98834442
H       -1.53852521       0.54141404       1.16544490
H       -1.78038603      -1.23002164      -1.35803886
H        0.08337015       0.03568307      -2.31268027
H        1.26452546       1.80782065      -1.08042565
H       -0.19632954       1.98431713      -0.17162473
H        3.01614575       0.74970899       0.36819349
H        2.65377121       1.14494774       1.03502563
H        0.28564798      -0.86528510       1.78291838
H        1.78981911      -1.30819116       1.05460950
H        0.44438442      -2.10894976      -0.84155817
19
Frame=6 idx=009708 GeodesicLength=0.4782709097574006 rxn_smarts="[C:1]([C@@:2]1([H:11])[C@@:3]2([H:12])[C:4]([H:13])([H:14])[C:5]([H:15])([H:16])[C:6]([H:17])([H:18])[C@@:7]12[H:19])([H:8])([H:9])[H:10]>>[C:1]([C@@:2]1([H:11])[C@@:3]2([H:12])[C:4]([H:13])([H:14])[C:5][C:6]([H:17])([H:18])[C@@:7]12[H:19])([H:8])([H:9])[H:10].[H:15][H:16]"
C       -2.08457838      -0.03783822       0.45233100
C       -1.23049336      -0.64107260      -0.63425681
C       -0.04863906       0.05596430      -1.25259349
C        0.56274109       1.22690054      -0.50105929
C        1.18290695       0.73290745       0.77712613
C        0.89432194      -0.74124649       0.84827569
C        0.15832522      -1.17489416      -0.40830152
H       -2.84175478       0.62342363       0.02532207
H       -2.60300988      -0.81838593       1.01342138
H       -1.50945286       0.54991730       1.17060615
H       -1.80658966      -1.22553269      -1.34451518
H        0.05469039       0.01877120      -2.33019126
H        1.29464885       1.76041666      -1.11229084
H       -0.17157868       1.99287644      -0.22273132
H        3.00559258       0.82138172       0.47717012
H        2.59347343       1.20450773       1.13932490
H        0.31986963      -0.90898388       1.76760995
H        1.81363489      -1.31372069       0.99405827
H        0.41589170      -2.12539231      -0.85930595
19
Frame=7 idx=009708 GeodesicLength=0.5565552341763403 rxn_smarts="[C:1]([C@@:2]1([H:11])[C@@:3]2([H:12])[C:4]([H:13])([H:14])[C:5]([H:15])([H:16])[C:6]([H:17])([H:18])[C@@:7]12[H:19])([H:8])([H:9])[H:10]>>[C:1]([C@@:2]1([H:11])[C@@:3]2([H:12])[C:4]([H:13])([H:14])[C:5][C:6]([H:17])([H:18])[C@@:7]12[H:19])([H:8])([H:9])[H:10].[H:15][H:16]"
C       -2.07017294      -0.02469433       0.46815216
C       -1.23953044      -0.63970513      -0.62998909
C       -0.06019159       0.04313636      -1.26858426
C        0.57249982       1.21050422      -0.53025852
C        1.17599049       0.71809153       0.75649266
C        0.90487365      -0.75968650       0.82054546
C        0.14702449      -1.18745699      -0.42436131
H       -2.82688222       0.64362876       0.05141928
H       -2.58797347      -0.79811614       1.03959668
H       -1.47795799       0.55895995       1.17595222
H       -1.83233951      -1.22010360      -1.32968292
H        0.02576435       0.00196193      -2.34755396
H        1.32625762       1.71065131      -1.14397576
H       -0.14401991       2.00041628      -0.27489223
H        2.98500936       0.89350037       0.58944181
H        2.51929896       1.26117824       1.24291283
H        0.35679097      -0.95264806       1.75050905
H        1.83835604      -1.31783543       0.93113605
H        0.38720234      -2.14178279      -0.87686015
19
Frame=8 idx=009708 GeodesicLength=0.6345221794046881 rxn_smarts="[C:1]([C@@:2]1([H:11])[C@@:3]2([H:12])[C:4]([H:13])([H:14])[C:5]([H:15])([H:16])[C:6]([H:17])([H:18])[C@@:7]12[H:19])([H:8])([H:9])[H:10]>>[C:1]([C@@:2]1([H:11])[C@@:3]2([H:12])[C:4]([H:13])([H:14])[C:5][C:6]([H:17])([H:18])[C@@:7]12[H:19])([H:8])([H:9])[H:10].[H:15][H:16]"
C       -2.05359570      -0.01076408       0.48460498
C       -1.24739518      -0.63765904      -0.62499114
C       -0.07120452       0.03058036      -1.28439376
C        0.58367404       1.19377717      -0.55984321
C        1.17151757       0.70315352       0.73502826
C        0.91679925      -0.77800216       0.79212573
C        0.13630251      -1.19981154      -0.44019168
H       -2.80955961       0.66484205       0.07837714
H       -2.57046282      -0.77686061       1.06666719
H       -1.44416435       0.56849533       1.18144256
H       -1.85718820      -1.21367839      -1.31355856
H       -0.00303276      -0.01446089      -2.36446446
H        1.35878331       1.65916606      -1.17516293
H       -0.11383277       2.00694642      -0.32754157
H        2.95367575       0.96488149       0.70352721
H        2.43129938       1.31360193       1.34377442
H        0.39615018      -0.99579386       1.73185738
H        1.86352945      -1.32056500       0.86664288
H        0.35870446      -2.15784876      -0.89390046
19
Frame=9 idx=009708 GeodesicLength=0.7122543776693713 rxn_smarts="[C:1]([C@@:2]1([H:11])[C@@:3]2([H:12])[C:4]([H:13])([H:14])[C:5]([H:15])([H:16])[C:6]([H:17])([H:18])[C@@:7]12[H:19])([H:8])([H:9])[H:10]>>[C:1]([C@@:2]1([H:11])[C@@:3]2([H:12])[C:4]([H:13])([H:14])[C:5][C:6]([H:17])([H:18])[C@@:7]12[H:19])([H:8])([H:9])[H:10].[H:15][H:16]"
C       -2.03485806       0.00390454       0.50162220
C       -1.25388909      -0.63485962      -0.61919951
C       -0.08148520       0.01848653      -1.29978354
C        0.59619365       1.17693431      -0.58949332
C        1.16978564       0.68828425       0.71294226
C        0.93003107      -0.79598988       0.76334549
C        0.12635231      -1.21176335      -0.45555785
H       -2.78978743       0.68695698       0.10603732
H       -2.55047734      -0.75472819       1.09447609
H       -1.40819114       0.57849564       1.18706358
H       -1.88078050      -1.20620913      -1.29615487
H       -0.03139063      -0.03026297      -2.38066544
H        1.39170825       1.60659058      -1.20565542
H       -0.08122120       2.01250488      -0.38021112
H        2.91110059       1.03454766       0.81817298
H        2.32974641       1.36058394       1.44000915
H        0.43768780      -1.03805137       1.71189610
H        1.88876288      -1.32205654       0.80131811
H        0.33071200      -2.17336824      -0.91016220
19
Frame=10 idx=009708 GeodesicLength=0.7900355544830172 rxn_smarts="[C:1]([C@@:2]1([H:11])[C@@:3]2([H:12])[C:4]([H:13])([H:14])[C:5]([H:15])([H:16])[C:6]([H:17])([H:18])[C@@:7]12[H:19])([H:8])([H:9])[H:10]>>[C:1]([C@@:2]1([H:11])[C@@:3]2([H:12])[C:4]([H:13])([H:14])[C:5][C:6]([H:17])([H:18])[C@@:7]12[H:19])([H:8])([H:9])[H:10].[H:15][H:16]"
C       -2.01404263       0.01925404       0.51913494
C       -1.25885644      -0.63124736      -0.61256315
C       -0.09086074       0.00703663      -1.31451505
C        0.60995596       1.16020049      -0.61886552
C        1.17102976       0.67370024       0.69050700
C        0.94447096      -0.81344419       0.73455728
C        0.11734634      -1.22312511      -0.47022920
H       -2.76764918       0.70985326       0.13423491
H       -2.52810063      -0.73184269       1.12285620
H       -1.37022331       0.58893036       1.19281006
H       -1.90280005      -1.19767489      -1.27751738
H       -0.05900224      -0.04522834      -2.39590851
H        1.42452097       1.55359425      -1.23530927
H       -0.04645697       2.01716417      -0.43243134
H        2.85710106       1.10154608       0.93203697
H        2.21526116       1.40102886       1.52977690
H        0.48108675      -1.07908096       1.69090607
H        1.91368804      -1.32253445       0.73591952
H        0.30353119      -2.18813040      -0.92540043
19
Frame=11 idx=009708 GeodesicLength=0.8682235059770291 rxn_smarts="[C:1]([C@@:2]1([H:11])[C@@:3]2([H:12])[C:4]([H:13])([H:14])[C:5]([H:15])([H:16])[C:6]([H:17])([H:18])[C@@:7]12[H:19])([H:8])([H:9])[H:10]>>[C:1]([C@@:2]1([H:11])[C@@:3]2([H:12])[C:4]([H:13])([H:14])[C:5][C:6]([H:17])([H:18])[C@@:7]12[H:19])([H:8])([H:9])[H:10].[H:15][H:16]"
C       -1.99123540       0.03525727       0.53711027
C       -1.26218986      -0.62676321      -0.60502442
C       -0.09920675      -0.00362207      -1.32838316
C        0.62487284       1.14375969      -0.64767327
C        1.17538215       0.65960365       0.66800329
C        0.96004363      -0.83020296       0.70605088
C        0.10941349      -1.23374478      -0.48401230
H       -2.74323902       0.73345939       0.16286482
H       -2.50341982      -0.70828237       1.15169590
H       -1.33042081       0.59979104       1.19869663
H       -1.92302216      -1.18804715      -1.25766580
H       -0.08565445      -0.05918848      -2.40998323
H        1.45683464       1.50071729      -1.26406815
H       -0.00978534       2.02101900      -0.48386197
H        2.79157739       1.16513918       1.04407569
H        2.08851329       1.43400121       1.61142731
H        0.52609491      -1.11866905       1.66912835
H        1.93805852      -1.32225450       0.67103358
H        0.27738275      -2.20197317      -0.93941442
19
Frame=12 idx=009708 GeodesicLength=0.9472507772235529 rxn_smarts="[C:1]([C@@:2]1([H:11])[C@@:3]2([H:12])[C:4]([H:13])([H:14])[C:5]([H:15])([H:16])[C:6]([H:17])([H:18])[C@@:7]12[H:19])([H:8])([H:9])[H:10]>>[C:1]([C@@:2]1([H:11])[C@@:3]2([H:12])[C:4]([H:13])([H:14])[C:5][C:6]([H:17])([H:18])[C@@:7]12[H:19])([H:8])([H:9])[H:10].[H:15][H:16]"
C       -1.96656625       0.05178501       0.55546010
C       -1.26376266      -0.62135411      -0.59652049
C       -0.10639009      -0.01327744      -1.34112220
C        0.64078296       1.12784253      -0.67555805
C        1.18272153       0.64626900       0.64583489
C        0.97651207      -0.84602676       0.67821182
C        0.10264191      -1.24339179      -0.49662979
H       -2.71665933       0.75754430       0.19171512
H       -2.47656211      -0.68425380       1.18082278
H       -1.28907896       0.61097083       1.20469027
H       -1.94111389      -1.17730429      -1.23663366
H       -0.11105195      -0.07187052      -2.42260531
H        1.48825685       1.44855362      -1.29178589
H        0.02849022       2.02417715      -0.53416071
H        2.71469457       1.22433750       1.15277807
H        1.95081240       1.45852732       1.68317459
H        0.57227742      -1.15660096       1.64688865
H        1.96149315      -1.32132882       0.60733635
H        0.25250216      -2.21459879      -0.95189656
19
Frame=13 idx=009708 GeodesicLength=1.0276830909861572 rxn_smarts="[C:1]([C@@:2]1([H:11])[C@@:3]2([H:12])[C:4]([H:13])([H:14])[C:5]([H:15])([H:16])[C:6]([H:17])([H:18])[C@@:7]12[H:19])([H:8])([H:9])[H:10]>>[C:1]([C@@:2]1([H:11])[C@@:3]2([H:12])[C:4]([H:13])([H:14])[C:5][C:6]([H:17])([H:18])[C@@:7]12[H:19])([H:8])([H:9])[H:10].[H:15][H:16]"
C       -1.94054121       0.06878305       0.57411555
C       -1.26367669      -0.61504988      -0.58710141
C       -0.11234594      -0.02183457      -1.35253965
C        0.65755413       1.11266884      -0.70206182
C        1.19287390       0.63404413       0.62466700
C        0.99383625      -0.86070441       0.65142446
C        0.09714547      -1.25198274      -0.50793600
H       -2.68851605       0.78202382       0.22063424
H       -2.44809915      -0.65989227       1.21001877
H       -1.24680443       0.62251197       1.21092345
H       -1.95707037      -1.16558430      -1.21468120
H       -0.13496026      -0.08320898      -2.43363985
H        1.51870741       1.39752110      -1.31809514
H        0.06797331       2.02686724      -0.58293935
H        2.62714675       1.27834406       1.25665519
H        1.80409393       1.47398649       1.74344251
H        0.61939770      -1.19274723       1.62453016
H        1.98410086      -1.31976447       0.54536122
H        0.22918438      -2.22598186      -0.96277812
19
Frame=14 idx=009708 GeodesicLength=1.1099774784196161 rxn_smarts="[C:1]([C@@:2]1([H:11])[C@@:3]2([H:12])[C:4]([H:13])([H:14])[C:5]([H:15])([H:16])[C:6]([H:17])([H:18])[C@@:7]12[H:19])([H:8])([H:9])[H:10]>>[C:1]([C@@:2]1([H:11])[C@@:3]2([H:12])[C:4]([H:13])([H:14])[C:5][C:6]([H:17])([H:18])[C@@:7]12[H:19])([H:8])([H:9])[H:10].[H:15][H:16]"
C       -1.91373643       0.08585184       0.59272592
C       -1.26193580      -0.60791790      -0.57684534
C       -0.11700831      -0.02900833      -1.36226195
C        0.67472057       1.09859213      -0.72654989
C        1.20491274       0.62337586       0.60535620
C        1.01143436      -0.87384916       0.62634829
C        0.09292174      -1.25921775      -0.51753187
H       -2.65936596       0.80630298       0.24901652
H       -2.41862675      -0.63576709       1.23873841
H       -1.20457735       0.63410901       1.21725807
H       -1.97048101      -1.15305170      -1.19213348
H       -0.15692660      -0.09281199      -2.44269501
H        1.54773134       1.34829921      -1.34231427
H        0.10801322       2.02929172      -0.62971149
H        2.53090989       1.32566067       1.35289192
H        1.65227024       1.47993317       1.79065374
H        0.66663217      -1.22686654       1.60260582
H        2.00532605      -1.31721864       0.48607299
H        0.20778589      -2.23570750      -0.97162457
19
Frame=15 idx=009708 GeodesicLength=1.194460216906578 rxn_smarts="[C:1]([C@@:2]1([H:11])[C@@:3]2([H:12])[C:4]([H:13])([H:14])[C:5]([H:15])([H:16])[C:6]([H:17])([H:18])[C@@:7]12[H:19])([H:8])([H:9])[H:10]>>[C:1]([C@@:2]1([H:11])[C@@:3]2([H:12])[C:4]([H:13])([H:14])[C:5][C:6]([H:17])([H:18])[C@@:7]12[H:19])([H:8])([H:9])[H:10].[H:15][H:16]"
C       -1.88701035       0.10255885       0.61080951
C       -1.25872249      -0.60012267      -0.56597089
C       -0.12044200      -0.03461139      -1.36996398
C        0.69165533       1.08592169      -0.74835601
C        1.21758119       0.61463417       0.58881710
C        1.02870976      -0.88515869       0.60361486
C        0.08991892      -1.26491599      -0.52511120
H       -2.63011530       0.82979558       0.27613352
H       -2.38903564      -0.61249012       1.26622589
H       -1.16368459       0.64545390       1.22351704
H       -1.98111509      -1.13999966      -1.16951936
H       -0.17659878      -0.10042079      -2.44943215
H        1.57487378       1.30140927      -1.36351123
H        0.14775101       2.03168330      -0.67396813
H        2.42927034       1.36507210       1.43869846
H        1.50034485       1.47675219       1.82414006
H        0.71318833      -1.25879365       1.58163058
H        2.02475826      -1.31323216       0.43037125
H        0.18867247      -2.24353593      -0.97812533
19
Frame=16 idx=009708 GeodesicLength=1.280698661437103 rxn_smarts="[C:1]([C@@:2]1([H:11])[C@@:3]2([H:12])[C:4]([H:13])([H:14])[C:5]([H:15])([H:16])[C:6]([H:17])([H:18])[C@@:7]12[H:19])([H:8])([H:9])[H:10]>>[C:1]([C@@:2]1([H:11])[C@@:3]2([H:12])[C:4]([H:13])([H:14])[C:5][C:6]([H:17])([H:18])[C@@:7]12[H:19])([H:8])([H:9])[H:10].[H:15][H:16]"
C       -1.86187061       0.11835187       0.62794455
C       -1.25467985      -0.59210686      -0.55497111
C       -0.12279957      -0.03869798      -1.37569578
C        0.70783159       1.07496409      -0.76694762
C        1.22966337       0.60824007       0.57596901
C        1.04510088      -0.89436145       0.58380380
C        0.08795460      -1.26912540      -0.53070976
H       -2.60247572       0.85175124       0.30133314
H       -2.36106063      -0.59080280       1.29184570
H       -1.12589175       0.65628938       1.22977076
H       -1.98936616      -1.12716238      -1.14782558
H       -0.19364489      -0.10615327      -2.45411476
H        1.60011816       1.25737128      -1.38086675
H        0.18633638       2.03431647      -0.71514996
H        2.32756418       1.39608173       1.51186205
H        1.35462702       1.46612309       1.84498240
H        0.75815710      -1.28828008       1.56224317
H        2.04231209      -1.30723205       0.37905253
H        0.17212380      -2.24956695      -0.98252580
