10
Frame=0 idx=010935 GeodesicLength=0.0 rxn_smarts="[N:1]([c:2]1[n:3][c:4]([H:10])[n:5][n:6][n:7]1)([H:8])[H:9]>>[N:1]([C:2]1=[N:3][C:4]([H:10])=[N:5][N+:6]1=[N-:7])([H:8])[H:9]"
N        1.74495210      -0.06719787      -0.02607280
C        0.44906879       0.22157372       0.32873248
N       -0.37929305      -0.82129924       0.79335743
C       -1.47831761      -0.73319541       0.11113745
N       -1.68087334       0.37233147      -0.70558285
N       -0.59692206       1.04462575      -0.42910331
N        0.04159008       1.56760128       0.57095224
H        1.87883997      -0.88007349      -0.60363118
H        2.32443424       0.72216340      -0.25244127
H       -2.30347910      -1.42652961       0.21265181
10
Frame=1 idx=010935 GeodesicLength=0.09296731786869879 rxn_smarts="[N:1]([c:2]1[n:3][c:4]([H:10])[n:5][n:6][n:7]1)([H:8])[H:9]>>[N:1]([C:2]1=[N:3][C:4]([H:10])=[N:5][N+:6]1=[N-:7])([H:8])[H:9]"
N        1.74444269      -0.07078544      -0.02597734
C        0.44601565       0.21563789       0.31087515
N       -0.37148716      -0.82710922       0.77528915
C       -1.48715875      -0.73068962       0.11491391
N       -1.71204164       0.38293936      -0.67470234
N       -0.62598603       1.06378791      -0.41398634
N        0.06929987       1.59154818       0.53529617
H        1.89748373      -0.89343833      -0.58390041
H        2.33247040       0.71693656      -0.23516996
H       -2.29303876      -1.44882729       0.19736202
10
Frame=2 idx=010935 GeodesicLength=0.1856418339741327 rxn_smarts="[N:1]([c:2]1[n:3][c:4]([H:10])[n:5][n:6][n:7]1)([H:8])[H:9]>>[N:1]([C:2]1=[N:3][C:4]([H:10])=[N:5][N+:6]1=[N-:7])([H:8])[H:9]"
N        1.74334410      -0.07474799      -0.02655088
C        0.44274822       0.21039033       0.29224611
N       -0.36389714      -0.83160623       0.75816946
C       -1.49613359      -0.72780035       0.12056523
N       -1.74419715       0.39430209      -0.63951464
N       -0.65603562       1.08369624      -0.39589204
N        0.09783203       1.61618912       0.49472341
H        1.91513282      -0.90785319      -0.56233083
H        2.34062085       0.71049616      -0.21781495
H       -2.27941452      -1.47306618       0.17639911
10
Frame=3 idx=010935 GeodesicLength=0.2781255563584698 rxn_smarts="[N:1]([c:2]1[n:3][c:4]([H:10])[n:5][n:6][n:7]1)([H:8])[H:9]>>[N:1]([C:2]1=[N:3][C:4]([H:10])=[N:5][N+:6]1=[N-:7])([H:8])[H:9]"
N        1.74259310      -0.07832383      -0.02762030
C        0.43943187       0.20453287       0.27164239
N       -0.35575189      -0.83764815       0.73830366
C       -1.50428908      -0.72683877       0.12418601
N       -1.77584246       0.40458267      -0.60309442
N       -0.68706905       1.10365269      -0.37444738
N        0.12579899       1.63947921       0.44985388
H        1.93413926      -0.92092991      -0.54061671
H        2.34933941       0.70464943      -0.19685134
H       -2.26835015      -1.49315618       0.15864421
10
Frame=4 idx=010935 GeodesicLength=0.37005328197892856 rxn_smarts="[N:1]([c:2]1[n:3][c:4]([H:10])[n:5][n:6][n:7]1)([H:8])[H:9]>>[N:1]([C:2]1=[N:3][C:4]([H:10])=[N:5][N+:6]1=[N-:7])([H:8])[H:9]"
N        1.74162576      -0.08200352      -0.02942455
C        0.43606152       0.19878348       0.24989653
N       -0.34746729      -0.84356236       0.71798989
C       -1.51186243      -0.72666945       0.12760314
N       -1.80713980       0.41441334      -0.56393414
N       -0.71873869       1.12388996      -0.34888122
N        0.15354231       1.66244387       0.39875271
H        1.95262464      -0.93338179      -0.51902131
H        2.35840981       0.69822625      -0.17265078
H       -2.25705584      -1.51213978       0.13966974
10
Frame=5 idx=010935 GeodesicLength=0.4615227361346995 rxn_smarts="[N:1]([c:2]1[n:3][c:4]([H:10])[n:5][n:6][n:7]1)([H:8])[H:9]>>[N:1]([C:2]1=[N:3][C:4]([H:10])=[N:5][N+:6]1=[N-:7])([H:8])[H:9]"
N        1.74140058      -0.08500431      -0.03185679
C        0.43287578       0.19198263       0.22552293
N       -0.33838276      -0.85195661       0.69307381
C       -1.51813086      -0.72888376       0.12684568
N       -1.83637340       0.42227878      -0.52575687
N       -0.75098995       1.14406251      -0.31782809
N        0.18006246       1.68333468       0.34175960
H        1.97293206      -0.94296038      -0.49943354
H        2.36808277       0.69275627      -0.14116775
H       -2.25147667      -1.52560983       0.12884103
10
Frame=6 idx=010935 GeodesicLength=0.5523412348936776 rxn_smarts="[N:1]([c:2]1[n:3][c:4]([H:10])[n:5][n:6][n:7]1)([H:8])[H:9]>>[N:1]([C:2]1=[N:3][C:4]([H:10])=[N:5][N+:6]1=[N-:7])([H:8])[H:9]"
N        1.74170082      -0.08741823      -0.03482550
C        0.42995049       0.18445550       0.19921489
N       -0.32871617      -0.86232384       0.66419003
C       -1.52336324      -0.73262670       0.12261587
N       -1.86301528       0.42864582      -0.48864251
N       -0.78346742       1.16440511      -0.27875095
N        0.20544478       1.70260783       0.27661840
H        1.99426670      -0.95006515      -0.48168894
H        2.37747215       0.68761884      -0.10290217
H       -2.25027283      -1.53529920       0.12417090
10
Frame=7 idx=010935 GeodesicLength=0.6421560745673629 rxn_smarts="[N:1]([c:2]1[n:3][c:4]([H:10])[n:5][n:6][n:7]1)([H:8])[H:9]>>[N:1]([C:2]1=[N:3][C:4]([H:10])=[N:5][N+:6]1=[N-:7])([H:8])[H:9]"
N        1.74272775      -0.08905389      -0.03699474
C        0.42747207       0.17608022       0.17228456
N       -0.31866938      -0.87549431       0.63034278
C       -1.52741642      -0.73787155       0.11329941
N       -1.88568819       0.43406346      -0.45366940
N       -0.81571605       1.18491416      -0.22634699
N        0.22922965       1.71978777       0.20033833
H        2.01692976      -0.95477036      -0.46406517
H        2.38499040       0.68326041      -0.06078307
H       -2.25385959      -1.54091591       0.12559428
10
Frame=8 idx=010935 GeodesicLength=0.7301863195058557 rxn_smarts="[N:1]([c:2]1[n:3][c:4]([H:10])[n:5][n:6][n:7]1)([H:8])[H:9]>>[N:1]([C:2]1=[N:3][C:4]([H:10])=[N:5][N+:6]1=[N-:7])([H:8])[H:9]"
N        1.74528279      -0.08964558      -0.03509224
C        0.42601659       0.16598726       0.14723654
N       -0.30847194      -0.89421441       0.58780918
C       -1.52958454      -0.74555822       0.09307699
N       -1.90358894       0.44091911      -0.41870290
N       -0.84586239       1.20428456      -0.15376802
N        0.24909818       1.73268941       0.10598526
H        2.04254796      -0.95628137      -0.44393645
H        2.38900691       0.68169458      -0.01789993
H       -2.26444462      -1.53987536       0.13529158
10
Frame=9 idx=010935 GeodesicLength=0.814519855029056 rxn_smarts="[N:1]([c:2]1[n:3][c:4]([H:10])[n:5][n:6][n:7]1)([H:8])[H:9]>>[N:1]([C:2]1=[N:3][C:4]([H:10])=[N:5][N+:6]1=[N-:7])([H:8])[H:9]"
N        1.75009919      -0.08943152      -0.02601263
C        0.42601438       0.15179356       0.12402758
N       -0.29900898      -0.91993008       0.53410255
C       -1.53366667      -0.75041861       0.06980322
N       -1.92036080       0.45628204      -0.36655673
N       -0.86692291       1.22114500      -0.06415870
N        0.25929525       1.73514088      -0.01687247
H        2.07401854      -0.95546447      -0.41501327
H        2.38766022       0.68591434       0.02232406
H       -2.27712823      -1.53503116       0.13835640
10
Frame=10 idx=010935 GeodesicLength=0.8972470836588349 rxn_smarts="[N:1]([c:2]1[n:3][c:4]([H:10])[n:5][n:6][n:7]1)([H:8])[H:9]>>[N:1]([C:2]1=[N:3][C:4]([H:10])=[N:5][N+:6]1=[N-:7])([H:8])[H:9]"
N        1.75900889      -0.08684205      -0.00963879
C        0.42820058       0.12826773       0.09098995
N       -0.29012243      -0.95736798       0.45299907
C       -1.54367493      -0.74953000       0.04702280
N       -1.93643301       0.48024155      -0.29349617
N       -0.86983767       1.23278516       0.02214405
N        0.25318507       1.72088627      -0.14901038
H        2.11932159      -0.94957161      -0.37283921
H        2.37851940       0.70139835       0.06369081
H       -2.29816750      -1.52026742       0.14813787
10
Frame=11 idx=010935 GeodesicLength=0.9805552294987762 rxn_smarts="[N:1]([c:2]1[n:3][c:4]([H:10])[n:5][n:6][n:7]1)([H:8])[H:9]>>[N:1]([C:2]1=[N:3][C:4]([H:10])=[N:5][N+:6]1=[N-:7])([H:8])[H:9]"
N        1.76800315      -0.08280329       0.01029264
C        0.43164793       0.09758848       0.04429079
N       -0.28397463      -0.99880259       0.34953942
C       -1.55829679      -0.74232059       0.03275950
N       -1.94761677       0.50656541      -0.20675839
N       -0.85498886       1.24086066       0.09093840
N        0.23505211       1.69709430      -0.26857771
H        2.17006334      -0.94109130      -0.31778895
H        2.36061797       0.72425465       0.10270860
H       -2.32050745      -1.50134574       0.16259573
10
Frame=12 idx=010935 GeodesicLength=1.0654844212031556 rxn_smarts="[N:1]([c:2]1[n:3][c:4]([H:10])[n:5][n:6][n:7]1)([H:8])[H:9]>>[N:1]([C:2]1=[N:3][C:4]([H:10])=[N:5][N+:6]1=[N-:7])([H:8])[H:9]"
N        1.77339301      -0.07880326       0.03202236
C        0.43603554       0.06577848      -0.00432564
N       -0.28184486      -1.03620247       0.23665337
C       -1.57149131      -0.73259991       0.02316771
N       -1.94914209       0.52892716      -0.12099999
N       -0.82963055       1.24721903       0.14487161
N        0.21020651       1.67307758      -0.36622725
H        2.21351999      -0.93347371      -0.25362091
H        2.33698031       0.74859155       0.12905147
H       -2.33802657      -1.48251445       0.17940726
10
Frame=13 idx=010935 GeodesicLength=1.1515158765383657 rxn_smarts="[N:1]([c:2]1[n:3][c:4]([H:10])[n:5][n:6][n:7]1)([H:8])[H:9]>>[N:1]([C:2]1=[N:3][C:4]([H:10])=[N:5][N+:6]1=[N-:7])([H:8])[H:9]"
N        1.77484021      -0.07542805       0.05295245
C        0.44092923       0.03719622      -0.04408972
N       -0.28315210      -1.06488813       0.12774143
C       -1.58048253      -0.72260486       0.01553984
N       -1.94221753       0.54502118      -0.04554833
N       -0.80140836       1.25360889       0.18879175
N        0.18214370       1.65371416      -0.43986272
H        2.24373117      -0.92988451      -0.18349567
H        2.31336923       0.77050500       0.13493336
H       -2.34775302      -1.46723990       0.19303761
10
Frame=14 idx=010935 GeodesicLength=1.2381021559549594 rxn_smarts="[N:1]([c:2]1[n:3][c:4]([H:10])[n:5][n:6][n:7]1)([H:8])[H:9]>>[N:1]([C:2]1=[N:3][C:4]([H:10])=[N:5][N+:6]1=[N-:7])([H:8])[H:9]"
N        1.77357445      -0.07280278       0.06996308
C        0.44590120       0.01241934      -0.07758494
N       -0.28627398      -1.08404167       0.02655565
C       -1.58552690      -0.71362407       0.00663945
N       -1.93029139       0.55512653       0.01703277
N       -0.77407147       1.25977963       0.22760935
N        0.15247336       1.64125138      -0.49188942
H        2.26198419      -0.93048251      -0.10721893
H        2.29255807       0.78794357       0.12318987
H       -2.35032753      -1.45556942       0.20570313
10
Frame=15 idx=010935 GeodesicLength=1.3244741298832556 rxn_smarts="[N:1]([c:2]1[n:3][c:4]([H:10])[n:5][n:6][n:7]1)([H:8])[H:9]>>[N:1]([C:2]1=[N:3][C:4]([H:10])=[N:5][N+:6]1=[N-:7])([H:8])[H:9]"
N        1.77137357      -0.07021373       0.08211535
C        0.45082770      -0.00971564      -0.10262886
N       -0.29025086      -1.09589820      -0.06067050
C       -1.58737171      -0.70484654       0.00018439
N       -1.91527086       0.56120837       0.07403861
N       -0.74758478       1.26709520       0.26192772
N        0.12172802       1.63139003      -0.53300484
H        2.27044989      -0.93259295      -0.03015161
H        2.27488315       0.80137260       0.09998928
H       -2.34878411      -1.44779914       0.20820046
10
Frame=16 idx=010935 GeodesicLength=1.4108484129505388 rxn_smarts="[N:1]([c:2]1[n:3][c:4]([H:10])[n:5][n:6][n:7]1)([H:8])[H:9]>>[N:1]([C:2]1=[N:3][C:4]([H:10])=[N:5][N+:6]1=[N-:7])([H:8])[H:9]"
N        1.76847985      -0.06862486       0.09074056
C        0.45576730      -0.03029925      -0.12635053
N       -0.29462215      -1.10241674      -0.14006494
C       -1.58730658      -0.69694906      -0.00687165
N       -1.89835049       0.56398155       0.12248309
N       -0.72195516       1.27397876       0.29312749
N        0.09082854       1.62543301      -0.56406781
H        2.27230727      -0.93411055       0.04616718
H        2.25887310       0.81067094       0.07321885
H       -2.34402167      -1.44166380       0.21161776
