12
Frame=0 idx=005923 GeodesicLength=0.0 rxn_smarts="[O:1]([C:2]([C:3]#[C:4][C:5]([O:6][H:12])([H:10])[H:11])([H:8])[H:9])[H:7]>>[O:1]([C:4](=[C:3]=[C:2]([H:8])[H:9])[C:5]([O:6][H:12])([H:10])[H:11])[H:7]"
O        0.63671964       0.85163908       0.68984023
C        1.93953885       0.02526329      -0.12013188
C        1.01028106      -0.87720624      -0.73063444
C       -0.02328902      -0.35703751      -0.11041411
C       -1.49377852      -0.44033464       0.01062125
O       -2.18258203       0.67053902      -0.52707858
H        0.61144515       0.69704391       1.64419947
H        2.57713347      -0.31949358       0.69332223
H        2.38242233       0.83079953      -0.70222092
H       -1.77966191      -1.37927619      -0.47773078
H       -1.80658274      -0.50256887       1.05627633
H       -1.87164623       0.80063225      -1.42604880
12
Frame=1 idx=005923 GeodesicLength=0.08282305940443391 rxn_smarts="[O:1]([C:2]([C:3]#[C:4][C:5]([O:6][H:12])([H:10])[H:11])([H:8])[H:9])[H:7]>>[O:1]([C:4](=[C:3]=[C:2]([H:8])[H:9])[C:5]([O:6][H:12])([H:10])[H:11])[H:7]"
O        0.64697254       0.87515995       0.69087182
C        1.95551846       0.02251983      -0.11792499
C        1.00897433      -0.86823502      -0.71235400
C       -0.03119067      -0.35205741      -0.10776382
C       -1.50133392      -0.44898544       0.00585189
O       -2.19422472       0.66710475      -0.51583188
H        0.59542025       0.72608223       1.64462557
H        2.59434775      -0.33106404       0.69073729
H        2.40948477       0.80977651      -0.71610467
H       -1.78193063      -1.38122725      -0.49798383
H       -1.81591885      -0.52945090       1.04963421
H       -1.88611931       0.81037678      -1.41375758
12
Frame=2 idx=005923 GeodesicLength=0.1656627799932979 rxn_smarts="[O:1]([C:2]([C:3]#[C:4][C:5]([O:6][H:12])([H:10])[H:11])([H:8])[H:9])[H:7]>>[O:1]([C:4](=[C:3]=[C:2]([H:8])[H:9])[C:5]([O:6][H:12])([H:10])[H:11])[H:7]"
O        0.65762592       0.89936054       0.69152917
C        1.97180592       0.01955330      -0.11544718
C        1.00777535      -0.85873166      -0.69354883
C       -0.03920222      -0.34697222      -0.10503028
C       -1.50883734      -0.45794505       0.00087103
O       -2.20614388       0.66339979      -0.50367964
H        0.57847856       0.75696750       1.64399115
H        2.61164065      -0.34328760       0.68830011
H        2.43684662       0.78745152      -0.72993213
H       -1.78385444      -1.38283307      -0.51916696
H       -1.82498837      -0.55756276       1.04243786
H       -1.90114677       0.82059973      -1.40032430
12
Frame=3 idx=005923 GeodesicLength=0.24847251967044628 rxn_smarts="[O:1]([C:2]([C:3]#[C:4][C:5]([O:6][H:12])([H:10])[H:11])([H:8])[H:9])[H:7]>>[O:1]([C:4](=[C:3]=[C:2]([H:8])[H:9])[C:5]([O:6][H:12])([H:10])[H:11])[H:7]"
O        0.66868861       0.92422640       0.69186785
C        1.98838493       0.01637735      -0.11269726
C        1.00666270      -0.84852895      -0.67432029
C       -0.04732408      -0.34177643      -0.10218262
C       -1.51626390      -0.46719005      -0.00431177
O       -2.21831904       0.65936671      -0.49063842
H        0.56061067       0.78967698       1.64219993
H        2.62895908      -0.35628556       0.68595049
H        2.46449313       0.76383198      -0.74357560
H       -1.78539445      -1.38405123      -0.54119456
H       -1.83376203      -0.58681943       1.03464514
H       -1.91673560       0.83117223      -1.38574289
12
Frame=4 idx=005923 GeodesicLength=0.3312111031784103 rxn_smarts="[O:1]([C:2]([C:3]#[C:4][C:5]([O:6][H:12])([H:10])[H:11])([H:8])[H:9])[H:7]>>[O:1]([C:4](=[C:3]=[C:2]([H:8])[H:9])[C:5]([O:6][H:12])([H:10])[H:11])[H:7]"
O        0.68018576       0.94952443       0.69228396
C        2.00518723       0.01309545      -0.10977631
C        1.00560971      -0.83770780      -0.65446148
C       -0.05556120      -0.33663312      -0.09896050
C       -1.52363858      -0.47664359      -0.00969459
O       -2.23053737       0.65506664      -0.47697072
H        0.54193675       0.82386278       1.63948756
H        2.64652748      -0.36987234       0.68336108
H        2.49189185       0.73914393      -0.75723307
H       -1.78659589      -1.38480284      -0.56396271
H       -1.84243800      -0.61695299       1.02617694
H       -1.93256773       0.84191947      -1.37025016
12
Frame=5 idx=005923 GeodesicLength=0.4139135208766701 rxn_smarts="[O:1]([C:2]([C:3]#[C:4][C:5]([O:6][H:12])([H:10])[H:11])([H:8])[H:9])[H:7]>>[O:1]([C:4](=[C:3]=[C:2]([H:8])[H:9])[C:5]([O:6][H:12])([H:10])[H:11])[H:7]"
O        0.69214906       0.97523007       0.69290384
C        2.02222518       0.00973768      -0.10670156
C        1.00459200      -0.82611068      -0.63405003
C       -0.06392303      -0.33155627      -0.09528875
C       -1.53097507      -0.48628874      -0.01526138
O       -2.24280195       0.65045234      -0.46276770
H        0.52249607       0.85945999       1.63583015
H        2.66435545      -0.38416232       0.68044091
H        2.51903101       0.71346147      -0.77083690
H       -1.78746599      -1.38508422      -0.58735734
H       -1.85105873      -0.64786085       1.01701893
H       -1.94862400       0.85272153      -1.35393017
12
Frame=6 idx=005923 GeodesicLength=0.4965625336872662 rxn_smarts="[O:1]([C:2]([C:3]#[C:4][C:5]([O:6][H:12])([H:10])[H:11])([H:8])[H:9])[H:7]>>[O:1]([C:4](=[C:3]=[C:2]([H:8])[H:9])[C:5]([O:6][H:12])([H:10])[H:11])[H:7]"
O        0.70460270       1.00132872       0.69381896
C        2.03948988       0.00629937      -0.10347591
C        1.00361770      -0.81374178      -0.61297870
C       -0.07240237      -0.32656865      -0.09109743
C       -1.53825131      -0.49612420      -0.02102983
O       -2.25508360       0.64550239      -0.44801151
H        0.50223802       0.89654246       1.63113715
H        2.68245278      -0.39916643       0.67712438
H        2.54577174       0.68674943      -0.78443227
H       -1.78794997      -1.38482911      -0.61142346
H       -1.85962713      -0.67957550       1.00709421
H       -1.96485845       0.86358329      -1.33672559
12
Frame=7 idx=005923 GeodesicLength=0.5791536194970861 rxn_smarts="[O:1]([C:2]([C:3]#[C:4][C:5]([O:6][H:12])([H:10])[H:11])([H:8])[H:9])[H:7]>>[O:1]([C:4](=[C:3]=[C:2]([H:8])[H:9])[C:5]([O:6][H:12])([H:10])[H:11])[H:7]"
O        0.71756990       1.02778137       0.69518220
C        2.05697197       0.00279532      -0.10012051
C        1.00268246      -0.80056571      -0.59116750
C       -0.08099873      -0.32170958      -0.08628007
C       -1.54545952      -0.50613829      -0.02700616
O       -2.26734582       0.64019132      -0.43275358
H        0.48115849       0.93510893       1.62535944
H        2.70084587      -0.41490697       0.67330183
H        2.57196187       0.65903298      -0.79806086
H       -1.78801155      -1.38398962      -0.63614183
H       -1.86818596      -0.71205983       0.99634074
H       -1.98118896       0.87446007      -1.31865370
12
Frame=8 idx=005923 GeodesicLength=0.6616798328114323 rxn_smarts="[O:1]([C:2]([C:3]#[C:4][C:5]([O:6][H:12])([H:10])[H:11])([H:8])[H:9])[H:7]>>[O:1]([C:4](=[C:3]=[C:2]([H:8])[H:9])[C:5]([O:6][H:12])([H:10])[H:11])[H:7]"
O        0.73107880       1.05454990       0.69716388
C        2.07465518      -0.00076612      -0.09665721
C        1.00178317      -0.78657714      -0.56849098
C       -0.08970796      -0.31702553      -0.08071831
C       -1.55258493      -0.51632278      -0.03320316
O       -2.27954560       0.63449955      -0.41704053
H        0.45924959       0.97518431       1.61843210
H        2.71956178      -0.43138894       0.66885753
H        2.59740682       0.63032738      -0.81178904
H       -1.78759899      -1.38251139      -0.66151569
H       -1.87677577      -0.74529656       0.98468210
H       -1.99752209       0.88532732      -1.29972071
12
Frame=9 idx=005923 GeodesicLength=0.7441655783005419 rxn_smarts="[O:1]([C:2]([C:3]#[C:4][C:5]([O:6][H:12])([H:10])[H:11])([H:8])[H:9])[H:7]>>[O:1]([C:4](=[C:3]=[C:2]([H:8])[H:9])[C:5]([O:6][H:12])([H:10])[H:11])[H:7]"
O        0.74517502       1.08164535       0.69983387
C        2.09256938      -0.00442563      -0.09306865
C        1.00096674      -0.77182391      -0.54474122
C       -0.09850694      -0.31253018      -0.07434117
C       -1.55960216      -0.52669914      -0.03965804
O       -2.29171468       0.62839071      -0.40077046
H        0.43637528       1.01700678       1.61011427
H        2.73862941      -0.44863350       0.66376771
H        2.62198688       0.60051677      -0.82569496
H       -1.78661557      -1.38027575      -0.68767719
H       -1.88539195      -0.77945420       0.97199239
H       -2.01387141       0.89628269      -1.27975656
12
Frame=10 idx=005923 GeodesicLength=0.8265351277294424 rxn_smarts="[O:1]([C:2]([C:3]#[C:4][C:5]([O:6][H:12])([H:10])[H:11])([H:8])[H:9])[H:7]>>[O:1]([C:4](=[C:3]=[C:2]([H:8])[H:9])[C:5]([O:6][H:12])([H:10])[H:11])[H:7]"
O        0.75983698       1.10897830       0.70355487
C        2.11061527      -0.00810720      -0.08944030
C        1.00013090      -0.75605243      -0.52005769
C       -0.10742998      -0.30828548      -0.06695015
C       -1.56648299      -0.53720829      -0.04632554
O       -2.30371989       0.62179542      -0.38423055
H        0.41271312       1.06031397       1.60051016
H        2.75793898      -0.46677337       0.65776120
H        2.64549128       0.56981801      -0.83973189
H       -1.78501588      -1.37734420      -0.71434486
H       -1.89410071      -0.81417679       0.95828193
H       -2.02997706       0.90704205      -1.25902718
12
Frame=11 idx=005923 GeodesicLength=0.908778401400946 rxn_smarts="[O:1]([C:2]([C:3]#[C:4][C:5]([O:6][H:12])([H:10])[H:11])([H:8])[H:9])[H:7]>>[O:1]([C:4](=[C:3]=[C:2]([H:8])[H:9])[C:5]([O:6][H:12])([H:10])[H:11])[H:7]"
O        0.77514208       1.13665862       0.70817060
C        2.12882751      -0.01199525      -0.08565749
C        0.99939220      -0.73950591      -0.49399801
C       -0.11639831      -0.30426114      -0.05858973
C       -1.57310687      -0.54793367      -0.05331686
O       -2.31563832       0.61467355      -0.36691184
H        0.38787076       1.10586237       1.58889125
H        2.77742560      -0.48580546       0.65102029
H        2.66777593       0.53781137      -0.85395566
H       -1.78254724      -1.37340532      -0.74201512
H       -1.90268239      -0.85006766       0.94325585
H       -2.04606097       0.91796849      -1.23689330
12
Frame=12 idx=005923 GeodesicLength=0.9909769264923154 rxn_smarts="[O:1]([C:2]([C:3]#[C:4][C:5]([O:6][H:12])([H:10])[H:11])([H:8])[H:9])[H:7]>>[O:1]([C:4](=[C:3]=[C:2]([H:8])[H:9])[C:5]([O:6][H:12])([H:10])[H:11])[H:7]"
O        0.79108343       1.16436598       0.71455492
C        2.14715235      -0.01586010      -0.08197551
C        0.99865343      -0.72203027      -0.46646285
C       -0.12548187      -0.30072767      -0.04868476
C       -1.57961814      -0.55876146      -0.06052723
O       -2.32729467       0.60707472      -0.34968246
H        0.36232123       1.15285871       1.57588401
H        2.79740324      -0.50563611       0.64289282
H        2.68827309       0.50513623      -0.86868017
H       -1.77930858      -1.36866787      -0.77010465
H       -1.91170647      -0.88638541       0.92703327
H       -2.06147704       0.92863323      -1.21424738
12
Frame=13 idx=005923 GeodesicLength=1.0731614068910345 rxn_smarts="[O:1]([C:2]([C:3]#[C:4][C:5]([O:6][H:12])([H:10])[H:11])([H:8])[H:9])[H:7]>>[O:1]([C:4](=[C:3]=[C:2]([H:8])[H:9])[C:5]([O:6][H:12])([H:10])[H:11])[H:7]"
O        0.80782331       1.19233029       0.72242302
C        2.16561529      -0.01994701      -0.07817843
C        0.99799231      -0.70376809      -0.43708710
C       -0.13460803      -0.29757176      -0.03740548
C       -1.58582378      -0.56983767      -0.06811615
O       -2.33881071       0.59883257      -0.33171828
H        0.33554594       1.20245476       1.56025502
H        2.81759843      -0.52641018       0.63378196
H        2.70702047       0.47115006      -0.88379282
H       -1.77501948      -1.36272330      -0.79930587
H       -1.92069461      -0.92402774       0.90920368
H       -2.07663912       0.93951807      -1.19005954
12
Frame=14 idx=005923 GeodesicLength=1.155102672462905 rxn_smarts="[O:1]([C:2]([C:3]#[C:4][C:5]([O:6][H:12])([H:10])[H:11])([H:8])[H:9])[H:7]>>[O:1]([C:4](=[C:3]=[C:2]([H:8])[H:9])[C:5]([O:6][H:12])([H:10])[H:11])[H:7]"
O        0.82517619       1.22033552       0.73240986
C        2.18403312      -0.02416706      -0.07444709
C        0.99734487      -0.68440704      -0.40597618
C       -0.14378874      -0.29492809      -0.02437756
C       -1.59165232      -0.58103490      -0.07597825
O       -2.35002821       0.58990718      -0.31354759
H        0.30786301       1.25412059       1.54211231
H        2.83780252      -0.54825018       0.62318567
H        2.72357773       0.43623585      -0.89929171
H       -1.76941837      -1.35564948      -0.82908890
H       -1.92984329      -0.96236701       0.88980483
H       -2.09106651       0.95020462      -1.16480539
12
Frame=15 idx=005923 GeodesicLength=1.2370110872000597 rxn_smarts="[O:1]([C:2]([C:3]#[C:4][C:5]([O:6][H:12])([H:10])[H:11])([H:8])[H:9])[H:7]>>[O:1]([C:4](=[C:3]=[C:2]([H:8])[H:9])[C:5]([O:6][H:12])([H:10])[H:11])[H:7]"
O        0.84332811       1.24829395       0.74497717
C        2.20242931      -0.02857557      -0.07078727
C        0.99673409      -0.66411640      -0.37261394
C       -0.15301283      -0.29297040      -0.00927673
C       -1.59709829      -0.59243388      -0.08417714
O       -2.36096183       0.58026097      -0.29510500
H        0.27920089       1.30837662       1.52074586
H        2.85816165      -0.57112213       0.61100291
H        2.73752121       0.40039018      -0.91538283
H       -1.76239635      -1.34726841      -0.85968974
H       -1.93925014      -1.00175012       0.86857720
H       -2.10465581       0.96091519      -1.13827047
12
Frame=16 idx=005923 GeodesicLength=1.318761416163767 rxn_smarts="[O:1]([C:2]([C:3]#[C:4][C:5]([O:6][H:12])([H:10])[H:11])([H:8])[H:9])[H:7]>>[O:1]([C:4](=[C:3]=[C:2]([H:8])[H:9])[C:5]([O:6][H:12])([H:10])[H:11])[H:7]"
O        0.86234289       1.27584835       0.76102057
C        2.22058530      -0.03323173      -0.06730016
C        0.99611664      -0.64296623      -0.33654580
C       -0.16224825      -0.29189039       0.00831773
C       -1.60198354      -0.60400059      -0.09271327
O       -2.37135064       0.56986384      -0.27648515
H        0.24939718       1.36555644       1.49532976
H        2.87856857      -0.59503191       0.59680660
H        2.74803707       0.36377017      -0.93222222
H       -1.75356626      -1.33738565      -0.89108598
H       -1.94891932      -1.04210656       0.84528709
H       -2.11697963       0.97157427      -1.11040916
