12
Frame=0 idx=008051 GeodesicLength=0.0 rxn_smarts="[N:1]#[C:2][C@@:3]1([H:8])[C:4]([H:9])([H:10])[N:5]=[C:6]([H:11])[N:7]1[H:12]>>[N:1]#[C:2][C@@:3]1([H:8])[C:4]([H:9])=[N:5][C-:6]([H:11])[N+:7]1([H:10])[H:12]"
N        2.71315456      -1.42823109       0.45936831
C        1.77862677      -0.87343168       0.09460705
C        0.61257259      -0.14905470      -0.39334196
C       -0.68977166      -0.92699570      -0.50670931
N       -1.67025547       0.04081512      -0.58215775
C       -1.23101887       1.08298945       0.03881365
N        0.00503317       0.69744025       0.66218681
H        0.86764387       0.46557557      -1.27027427
H       -0.77526324      -1.80980738      -1.12472028
H       -0.38401150      -0.40861348       1.07532468
H       -1.79684090       1.93146212       0.38823410
H        0.57013070       1.37785154       1.15866893
12
Frame=1 idx=008051 GeodesicLength=0.059256084144204434 rxn_smarts="[N:1]#[C:2][C@@:3]1([H:8])[C:4]([H:9])([H:10])[N:5]=[C:6]([H:11])[N:7]1[H:12]>>[N:1]#[C:2][C@@:3]1([H:8])[C:4]([H:9])=[N:5][C-:6]([H:11])[N+:7]1([H:10])[H:12]"
N        2.70850946      -1.42781228       0.47109295
C        1.77929690      -0.87084725       0.09599513
C        0.61337029      -0.14812974      -0.39653457
C       -0.69125093      -0.92711689      -0.50220318
N       -1.67186475       0.04118286      -0.58022126
C       -1.23063096       1.08680212       0.03585584
N        0.00892914       0.70239644       0.65757257
H        0.87270229       0.45817823      -1.27732734
H       -0.77544119      -1.80163036      -1.13248250
H       -0.38678907      -0.42181474       1.07779105
H       -1.80281237       1.92402737       0.40235914
H        0.57598120       1.38476424       1.14810215
12
Frame=2 idx=008051 GeodesicLength=0.11850911602334965 rxn_smarts="[N:1]#[C:2][C@@:3]1([H:8])[C:4]([H:9])([H:10])[N:5]=[C:6]([H:11])[N:7]1[H:12]>>[N:1]#[C:2][C@@:3]1([H:8])[C:4]([H:9])=[N:5][C-:6]([H:11])[N+:7]1([H:10])[H:12]"
N        2.70387365      -1.42715669       0.48265821
C        1.77992595      -0.86820315       0.09744344
C        0.61414196      -0.14715220      -0.39968882
C       -0.69269908      -0.92716110      -0.49787359
N       -1.67353206       0.04153986      -0.57817002
C       -1.23039658       1.09053162       0.03313528
N        0.01282265       0.70743014       0.65293240
H        0.87775419       0.45080239      -1.28425029
H       -0.77567712      -1.79341434      -1.14002109
H       -0.38969502      -0.43563734       1.08022503
H       -1.80829347       1.91672567       0.41604869
H        0.58177494       1.39169514       1.13756077
12
Frame=3 idx=008051 GeodesicLength=0.17775792715589017 rxn_smarts="[N:1]#[C:2][C@@:3]1([H:8])[C:4]([H:9])([H:10])[N:5]=[C:6]([H:11])[N:7]1[H:12]>>[N:1]#[C:2][C@@:3]1([H:8])[C:4]([H:9])=[N:5][C-:6]([H:11])[N+:7]1([H:10])[H:12]"
N        2.69924536      -1.42627185       0.49409392
C        1.78050885      -0.86550816       0.09896688
C        0.61489223      -0.14612775      -0.40280642
C       -0.69411760      -0.92712863      -0.49371561
N       -1.67525361       0.04189148      -0.57600622
C       -1.23030370       1.09419022       0.03063475
N        0.01672552       0.71256217       0.64824494
H        0.88281247       0.44342451      -1.29105406
H       -0.77597167      -1.78515464      -1.14736057
H       -0.39273189      -0.45009055       1.08261467
H       -1.81333491       1.90954159       0.42937703
H        0.58752895       1.39867162       1.12701070
12
Frame=4 idx=008051 GeodesicLength=0.23700101845778448 rxn_smarts="[N:1]#[C:2][C@@:3]1([H:8])[C:4]([H:9])([H:10])[N:5]=[C:6]([H:11])[N:7]1[H:12]>>[N:1]#[C:2][C@@:3]1([H:8])[C:4]([H:9])=[N:5][C-:6]([H:11])[N+:7]1([H:10])[H:12]"
N        2.69463474      -1.42517232       0.50538496
C        1.78104212      -0.86276158       0.10058393
C        0.61562374      -0.14505725      -0.40588201
C       -0.69550553      -0.92702150      -0.48972259
N       -1.67702854       0.04223598      -0.57372610
C       -1.23034712       1.09778290       0.02834533
N        0.02064160       0.71780932       0.64349914
H        0.88788502       0.43603569      -1.29773638
H       -0.77632058      -1.77685823      -1.15450815
H       -0.39590522      -0.46519518       1.08495260
H       -1.81796434       1.90249436       0.44235935
H        0.59324412       1.40570781       1.11644994
12
Frame=5 idx=008051 GeodesicLength=0.2962376933429596 rxn_smarts="[N:1]#[C:2][C@@:3]1([H:8])[C:4]([H:9])([H:10])[N:5]=[C:6]([H:11])[N:7]1[H:12]>>[N:1]#[C:2][C@@:3]1([H:8])[C:4]([H:9])=[N:5][C-:6]([H:11])[N+:7]1([H:10])[H:12]"
N        2.69003803      -1.42386398       0.51656225
C        1.78152110      -0.85996876       0.10230750
C        0.61634004      -0.14394483      -0.40891734
C       -0.69686434      -0.92683949      -0.48589022
N       -1.67885475       0.04257726      -0.57132775
C       -1.23051806       1.10131983       0.02625529
N        0.02458185       0.72319211       0.63867419
H        0.89298165       0.42861525      -1.30430651
H       -0.77672457      -1.76851807      -1.16148707
H       -0.39921761      -0.48096766       1.08722566
H       -1.82221995       1.89556785       0.45505907
H        0.59893659       1.41283048       1.10584493
12
Frame=6 idx=008051 GeodesicLength=0.35546787133989155 rxn_smarts="[N:1]#[C:2][C@@:3]1([H:8])[C:4]([H:9])([H:10])[N:5]=[C:6]([H:11])[N:7]1[H:12]>>[N:1]#[C:2][C@@:3]1([H:8])[C:4]([H:9])=[N:5][C-:6]([H:11])[N+:7]1([H:10])[H:12]"
N        2.68545066      -1.42235252       0.52765380
C        1.78194159      -0.85713251       0.10415037
C        0.61704418      -0.14279353      -0.41191349
C       -0.69819515      -0.92658227      -0.48221435
N       -1.68073108       0.04291793      -0.56880669
C       -1.23080980       1.10480946       0.02435625
N        0.02855619       0.72873080       0.63375011
H        0.89811080       0.42114459      -1.31077188
H       -0.77718402      -1.76012653      -1.16831879
H       -0.40267172      -0.49742924       1.08942019
H       -1.82613236       1.88874828       0.46753068
H        0.60462068       1.42006553       1.09516381
12
Frame=7 idx=008051 GeodesicLength=0.4146917543338441 rxn_smarts="[N:1]#[C:2][C@@:3]1([H:8])[C:4]([H:9])([H:10])[N:5]=[C:6]([H:11])[N:7]1[H:12]>>[N:1]#[C:2][C@@:3]1([H:8])[C:4]([H:9])=[N:5][C-:6]([H:11])[N+:7]1([H:10])[H:12]"
N        2.68086669      -1.42064244       0.53868852
C        1.78229958      -0.85425421       0.10612501
C        0.61773891      -0.14160586      -0.41487159
C       -0.69949901      -0.92624928      -0.47869141
N       -1.68265715       0.04326005      -0.56615685
C       -1.23121711       1.10825945       0.02264225
N        0.03257415       0.73444585       0.62870660
H        0.90328024       0.41360593      -1.31713905
H       -0.77769973      -1.75167508      -1.17502402
H       -0.40626999      -0.51460527       1.09152127
H       -1.82972687       1.88202179       0.47982531
H        0.61031029       1.42743907       1.08437395
12
Frame=8 idx=008051 GeodesicLength=0.47390974304855543 rxn_smarts="[N:1]#[C:2][C@@:3]1([H:8])[C:4]([H:9])([H:10])[N:5]=[C:6]([H:11])[N:7]1[H:12]>>[N:1]#[C:2][C@@:3]1([H:8])[C:4]([H:9])=[N:5][C-:6]([H:11])[N+:7]1([H:10])[H:12]"
N        2.67627992      -1.41873390       0.54969774
C        1.78258920      -0.85133599       0.10824502
C        0.61842650      -0.14038475      -0.41779283
C       -0.70077742      -0.92583879      -0.47531811
N       -1.68463149       0.04360761      -0.56337229
C       -1.23173423       1.11167814       0.02110820
N        0.03664637       0.74035798       0.62352114
H        0.90849722       0.40598008      -1.32341416
H       -0.77827305      -1.74315224      -1.18162280
H       -0.41001810      -0.53252329       1.09351287
H       -1.83302560       1.87536804       0.49199664
H        0.61602070       1.43497711       1.07343860
12
Frame=9 idx=008051 GeodesicLength=0.5331239068105551 rxn_smarts="[N:1]#[C:2][C@@:3]1([H:8])[C:4]([H:9])([H:10])[N:5]=[C:6]([H:11])[N:7]1[H:12]>>[N:1]#[C:2][C@@:3]1([H:8])[C:4]([H:9])=[N:5][C-:6]([H:11])[N+:7]1([H:10])[H:12]"
N        2.67168124      -1.41663332       0.56070892
C        1.78280905      -0.84837401       0.11052185
C        0.61910960      -0.13913077      -0.42067777
C       -0.70203016      -0.92535140      -0.47209083
N       -1.68665666       0.04395845      -0.56043942
C       -1.23235986       1.11507019       0.01975441
N        0.04078077       0.74648816       0.61817453
H        0.91376703       0.39825201      -1.32960258
H       -0.77890353      -1.73454804      -1.18813576
H       -0.41391709      -0.55121968       1.09537764
H       -1.83604294       1.86878188       0.50408168
H        0.62176256       1.44270653       1.06232733
12
Frame=10 idx=008051 GeodesicLength=0.5923278920129805 rxn_smarts="[N:1]#[C:2][C@@:3]1([H:8])[C:4]([H:9])([H:10])[N:5]=[C:6]([H:11])[N:7]1[H:12]>>[N:1]#[C:2][C@@:3]1([H:8])[C:4]([H:9])=[N:5][C-:6]([H:11])[N+:7]1([H:10])[H:12]"
N        2.66705727      -1.41434280       0.57175154
C        1.78295581      -0.84536119       0.11296746
C        0.61978895      -0.13784315      -0.42352570
C       -0.70325644      -0.92478545      -0.46900666
N       -1.68873452       0.04430880      -0.55734138
C       -1.23309205       1.11843564       0.01858441
N        0.04498558       0.75285568       0.61264750
H        0.91909078       0.39040692      -1.33570700
H       -0.77959200      -1.72584789      -1.19458157
H       -0.41796467      -0.57073704       1.09709314
H       -1.83878535       1.86225861       0.51611056
H        0.62754665       1.45065187       1.05100770
12
Frame=11 idx=008051 GeodesicLength=0.6515304367151492 rxn_smarts="[N:1]#[C:2][C@@:3]1([H:8])[C:4]([H:9])([H:10])[N:5]=[C:6]([H:11])[N:7]1[H:12]>>[N:1]#[C:2][C@@:3]1([H:8])[C:4]([H:9])=[N:5][C-:6]([H:11])[N+:7]1([H:10])[H:12]"
N        2.66239774      -1.41183672       0.58289659
C        1.78301641      -0.84231200       0.11559868
C        0.62046773      -0.13653088      -0.42634353
C       -0.70446337      -0.92413553      -0.46606883
N       -1.69086166       0.04467513      -0.55408078
C       -1.23392377       1.12179129       0.01759516
N        0.04927777       0.75948631       0.60690421
H        0.92448544       0.38241195      -1.34173889
H       -0.78035039      -1.71703023      -1.20098960
H       -0.42217582      -0.59110902       1.09863312
H       -1.84127357       1.85573694       0.52819022
H        0.63340349       1.45885277       1.03940366
12
Frame=12 idx=008051 GeodesicLength=0.7107319162107777 rxn_smarts="[N:1]#[C:2][C@@:3]1([H:8])[C:4]([H:9])([H:10])[N:5]=[C:6]([H:11])[N:7]1[H:12]>>[N:1]#[C:2][C@@:3]1([H:8])[C:4]([H:9])=[N:5][C-:6]([H:11])[N+:7]1([H:10])[H:12]"
N        2.65769372      -1.40910957       0.59417430
C        1.78298562      -0.83922233       0.11843058
C        0.62114699      -0.13519410      -0.42913053
C       -0.70565120      -0.92339967      -0.46327649
N       -1.69304084       0.04505617      -0.55064013
C       -1.23485543       1.12513927       0.01679510
N        0.05366490       0.76640118       0.60092317
H        0.92995577       0.37425163      -1.34769937
H       -0.78118143      -1.70808220      -1.20737622
H       -0.42655421      -0.61239006       1.09997015
H       -1.84350749       1.84921340       0.54035233
H        0.63934360       1.46733629       1.02747710
12
Frame=13 idx=008051 GeodesicLength=0.769931910520457 rxn_smarts="[N:1]#[C:2][C@@:3]1([H:8])[C:4]([H:9])([H:10])[N:5]=[C:6]([H:11])[N:7]1[H:12]>>[N:1]#[C:2][C@@:3]1([H:8])[C:4]([H:9])=[N:5][C-:6]([H:11])[N+:7]1([H:10])[H:12]"
N        2.65293456      -1.40615125       0.60562038
C        1.78285582      -0.83608848       0.12148123
C        0.62182788      -0.13383395      -0.43188632
C       -0.70682126      -0.92257493      -0.46062892
N       -1.69527382       0.04545290      -0.54700317
C       -1.23588612       1.12848347       0.01619177
N        0.05815644       0.77362376       0.59467785
H        0.93550824       0.36590694      -1.35358913
H       -0.78208985      -1.69898769      -1.21375850
H       -0.43110665      -0.63463615       1.10107311
H       -1.84548558       1.84267359       0.55263935
H        0.64538035       1.47613179       1.01518234
12
Frame=14 idx=008051 GeodesicLength=0.8291306022060181 rxn_smarts="[N:1]#[C:2][C@@:3]1([H:8])[C:4]([H:9])([H:10])[N:5]=[C:6]([H:11])[N:7]1[H:12]>>[N:1]#[C:2][C@@:3]1([H:8])[C:4]([H:9])=[N:5][C-:6]([H:11])[N+:7]1([H:10])[H:12]"
N        2.64810880      -1.40295092       0.61727121
C        1.78261900      -0.83290530       0.12477057
C        0.62251153      -0.13245116      -0.43461012
C       -0.70797455      -0.92165823      -0.45812545
N       -1.69756291       0.04586559      -0.54315068
C       -1.23701570       1.13182738       0.01579499
N        0.06276154       0.78117880       0.58814013
H        0.94114972       0.35735843      -1.35940796
H       -0.78308062      -1.68972964      -1.22015301
H       -0.43584022      -0.65791041       1.10190664
H       -1.84720299       1.83610537       0.56509256
H        0.65152640       1.48527009       1.00247111
12
Frame=15 idx=008051 GeodesicLength=0.8883283957613098 rxn_smarts="[N:1]#[C:2][C@@:3]1([H:8])[C:4]([H:9])([H:10])[N:5]=[C:6]([H:11])[N:7]1[H:12]>>[N:1]#[C:2][C@@:3]1([H:8])[C:4]([H:9])=[N:5][C-:6]([H:11])[N+:7]1([H:10])[H:12]"
N        2.64320290      -1.39949437       0.62916826
C        1.78226607      -0.82966692       0.12832046
C        0.62319902      -0.13104653      -0.43730117
C       -0.70911224      -0.92064604      -0.45576582
N       -1.69991068       0.04629447      -0.53906087
C       -1.23824419       1.13517431       0.01561696
N        0.06748988       0.78909269       0.58127888
H        0.94688764       0.34858494      -1.36515530
H       -0.78415990      -1.68028877      -1.22657694
H       -0.44076246      -0.68228308       1.10242954
H       -1.84865123       1.82949507       0.57775680
H        0.65779519       1.49478425       0.98928920
12
Frame=16 idx=008051 GeodesicLength=0.9475260297189559 rxn_smarts="[N:1]#[C:2][C@@:3]1([H:8])[C:4]([H:9])([H:10])[N:5]=[C:6]([H:11])[N:7]1[H:12]>>[N:1]#[C:2][C@@:3]1([H:8])[C:4]([H:9])=[N:5][C-:6]([H:11])[N+:7]1([H:10])[H:12]"
N        2.63820059      -1.39576344       0.64135958
C        1.78178650      -0.82636673       0.13215513
C        0.62389140      -0.12962102      -0.43995897
C       -0.71023577      -0.91953419      -0.45355033
N       -1.70231980       0.04674013      -0.53470944
C       -1.23957170       1.13852763       0.01567246
N        0.07235188       0.79739381       0.57405910
H        0.95273042       0.33956283      -1.37083030
H       -0.78533542      -1.67064314      -1.23304831
H       -0.44588147      -0.70783205       1.10259361
H       -1.84981795       1.82282603       0.59068263
H        0.66420133       1.50471014       0.97557484
