14
Frame=0 idx=004661 GeodesicLength=0.0 rxn_smarts="[C:1]1([H:7])([H:8])[O:2][C:3]12[C:4]([H:9])([H:10])[C:5]([H:11])([H:12])[C:6]2([H:13])[H:14]>>[C:1]([C:3]1([O:2][H:8])[C:4]([H:9])([H:10])[C:5]([H:11])([H:12])[C:6]1([H:13])[H:14])[H:7]"
C        1.81551846      -0.73514482       0.19030487
O        1.60234820       0.94812235       0.60367765
C        0.58361974       0.06347938       0.10551947
C       -0.68878187      -0.11353124       0.92521346
C       -1.46645653      -0.18743038      -0.41258579
C       -0.22676906       0.38403665      -1.14359887
H        1.87526847      -1.23157851       1.16590002
H        2.43247803       0.51098019       0.02824848
H       -0.92367919       0.78846221       1.49110016
H       -0.73317397      -0.97610835       1.58952887
H       -2.38211325       0.39772194      -0.47263955
H       -1.68529940      -1.21354255      -0.70608967
H       -0.29848180       1.46158439      -1.29859000
H        0.09552220      -0.09705129      -2.06598904
14
Frame=1 idx=004661 GeodesicLength=0.044978885345590136 rxn_smarts="[C:1]1([H:7])([H:8])[O:2][C:3]12[C:4]([H:9])([H:10])[C:5]([H:11])([H:12])[C:6]2([H:13])[H:14]>>[C:1]([C:3]1([O:2][H:8])[C:4]([H:9])([H:10])[C:5]([H:11])([H:12])[C:6]1([H:13])[H:14])[H:7]"
C        1.81554690      -0.73098920       0.19556985
O        1.60512027       0.94143960       0.60610673
C        0.58131320       0.06240566       0.10900620
C       -0.69240502      -0.11387340       0.92629088
C       -1.46705060      -0.18778533      -0.41326927
C       -0.22618900       0.38498952      -1.14134596
H        1.87850224      -1.23036114       1.16919371
H        2.43847707       0.51080832       0.00845983
H       -0.92775248       0.78870453       1.49114494
H       -0.73839654      -0.97617855       1.59084470
H       -2.38320858       0.39636162      -0.47540540
H       -1.68389975      -1.21398499      -0.70796470
H       -0.29812528       1.46282493      -1.29465754
H        0.09806756      -0.09436158      -2.06397398
14
Frame=2 idx=004661 GeodesicLength=0.0899495907555557 rxn_smarts="[C:1]1([H:7])([H:8])[O:2][C:3]12[C:4]([H:9])([H:10])[C:5]([H:11])([H:12])[C:6]2([H:13])[H:14]>>[C:1]([C:3]1([O:2][H:8])[C:4]([H:9])([H:10])[C:5]([H:11])([H:12])[C:6]1([H:13])[H:14])[H:7]"
C        1.81558963      -0.72677373       0.20074456
O        1.60783788       0.93492199       0.60843445
C        0.57903002       0.06139831       0.11248080
C       -0.69599393      -0.11418073       0.92736332
C       -1.46761647      -0.18815490      -0.41394154
C       -0.22561158       0.38595551      -1.13909795
H        1.88172451      -1.22917978       1.17232925
H        2.44436390       0.51032412      -0.01096833
H       -0.93181547       0.78897988       1.49117457
H       -0.74354864      -0.97620333       1.59216763
H       -2.38428888       0.39495599      -0.47816372
H       -1.68243617      -1.21445245      -0.70979997
H       -0.29783133       1.46406748      -1.29076154
H        0.10059652      -0.09165835      -2.06196154
14
Frame=3 idx=004661 GeodesicLength=0.1349100672174974 rxn_smarts="[C:1]1([H:7])([H:8])[O:2][C:3]12[C:4]([H:9])([H:10])[C:5]([H:11])([H:12])[C:6]2([H:13])[H:14]>>[C:1]([C:3]1([O:2][H:8])[C:4]([H:9])([H:10])[C:5]([H:11])([H:12])[C:6]1([H:13])[H:14])[H:7]"
C        1.81564469      -0.72249806       0.20583634
O        1.61049232       0.92857009       0.61067853
C        0.57676865       0.06045686       0.11594566
C       -0.69955146      -0.11445939       0.92843043
C       -1.46815634      -0.18853559      -0.41460385
C       -0.22503568       0.38693320      -1.13685440
H        1.88494108      -1.22802100       1.17531903
H        2.45015772       0.50952962      -0.03007174
H       -0.93587262       0.78927840       1.49119406
H       -0.74863328      -0.97619330       1.59349194
H       -2.38535274       0.39351439      -0.48091303
H       -1.68091696      -1.21493933      -0.71159917
H       -0.29759519       1.46531066      -1.28690397
H        0.10310979      -0.08894653      -2.05994985
14
Frame=4 idx=004661 GeodesicLength=0.17985786195420672 rxn_smarts="[C:1]1([H:7])([H:8])[O:2][C:3]12[C:4]([H:9])([H:10])[C:5]([H:11])([H:12])[C:6]2([H:13])[H:14]>>[C:1]([C:3]1([O:2][H:8])[C:4]([H:9])([H:10])[C:5]([H:11])([H:12])[C:6]1([H:13])[H:14])[H:7]"
C        1.81571216      -0.71816075       0.21085207
O        1.61307519       0.92238518       0.61285555
C        0.57452775       0.05958097       0.11940266
C       -0.70308035      -0.11471541       0.92949222
C       -1.46867272      -0.18892364      -0.41525737
C       -0.22446047       0.38792111      -1.13461590
H        1.88815852      -1.22687336       1.17817429
H        2.45587622       0.50842600      -0.04888105
H       -0.93992850       0.78959067       1.49120896
H       -0.75365255      -0.97615921       1.59481279
H       -2.38639956       0.39204691      -0.48365153
H       -1.67935075      -1.21544004      -0.71336564
H       -0.29741291       1.46655328      -1.28308865
H        0.10560796      -0.08623172      -2.05793841
14
Frame=5 idx=004661 GeodesicLength=0.22479111383168723 rxn_smarts="[C:1]1([H:7])([H:8])[O:2][C:3]12[C:4]([H:9])([H:10])[C:5]([H:11])([H:12])[C:6]2([H:13])[H:14]>>[C:1]([C:3]1([O:2][H:8])[C:4]([H:9])([H:10])[C:5]([H:11])([H:12])[C:6]1([H:13])[H:14])[H:7]"
C        1.81578713      -0.71376061       0.21579917
O        1.61557921       0.91636526       0.61498507
C        0.57230632       0.05876883       0.12285441
C       -0.70658156      -0.11495448       0.93054634
C       -1.46916605      -0.18931579      -0.41590300
C       -0.22388341       0.38891572      -1.13237931
H        1.89137603      -1.22572473       1.18090396
H        2.46152890       0.50702516      -0.06743440
H       -0.94398238       0.78990664       1.49122107
H       -0.75860906      -0.97610940       1.59612101
H       -2.38742408       0.39056216      -0.48637747
H       -1.67774644      -1.21594801      -0.71510262
H       -0.29727572       1.46779026      -1.27931385
H        0.10809111      -0.08352099      -2.05592040
14
Frame=6 idx=004661 GeodesicLength=0.2697212332625137 rxn_smarts="[C:1]1([H:7])([H:8])[O:2][C:3]12[C:4]([H:9])([H:10])[C:5]([H:11])([H:12])[C:6]2([H:13])[H:14]>>[C:1]([C:3]1([O:2][H:8])[C:4]([H:9])([H:10])[C:5]([H:11])([H:12])[C:6]1([H:13])[H:14])[H:7]"
C        1.81586897      -0.70930429       0.22068553
O        1.61800666       0.91051271       0.61707528
C        0.57010287       0.05802212       0.12630599
C       -0.71006058      -0.11517811       0.93160062
C       -1.46963671      -0.18971464      -0.41654291
C       -0.22330375       0.38992599      -1.13014741
H        1.89460002      -1.22457165       1.18352907
H        2.46712843       0.50530878      -0.08577954
H       -0.94804639       0.79022927       1.49124023
H       -0.76351110      -0.97604973       1.59742965
H       -2.38843237       0.38905397      -0.48909608
H       -1.67609686      -1.21647151      -0.71681723
H       -0.29718793       1.46903736      -1.27557688
H        0.11056876      -0.08080027      -2.05390634
14
Frame=7 idx=004661 GeodesicLength=0.3146124080932321 rxn_smarts="[C:1]1([H:7])([H:8])[O:2][C:3]12[C:4]([H:9])([H:10])[C:5]([H:11])([H:12])[C:6]2([H:13])[H:14]>>[C:1]([C:3]1([O:2][H:8])[C:4]([H:9])([H:10])[C:5]([H:11])([H:12])[C:6]1([H:13])[H:14])[H:7]"
C        1.81595427      -0.70478407       0.22551418
O        1.62035847       0.90482121       0.61912492
C        0.56791527       0.05734362       0.12975902
C       -0.71352030      -0.11538563       0.93264717
C       -1.47008490      -0.19012009      -0.41717623
C       -0.22272246       0.39095244      -1.12790840
H        1.89783551      -1.22339099       1.18604110
H        2.47268237       0.50324947      -0.10392853
H       -0.95212769       0.79055028       1.49125451
H       -0.76836122      -0.97597177       1.59872576
H       -2.38942613       0.38751367      -0.49180817
H       -1.67439756      -1.21700204      -0.71850860
H       -0.29715044       1.47028654      -1.27186139
H        0.11304481      -0.07806264      -2.05187533
14
Frame=8 idx=004661 GeodesicLength=0.3595278844320039 rxn_smarts="[C:1]1([H:7])([H:8])[O:2][C:3]12[C:4]([H:9])([H:10])[C:5]([H:11])([H:12])[C:6]2([H:13])[H:14]>>[C:1]([C:3]1([O:2][H:8])[C:4]([H:9])([H:10])[C:5]([H:11])([H:12])[C:6]1([H:13])[H:14])[H:7]"
C        1.81604931      -0.70019525       0.23030020
O        1.62261211       0.89929108       0.62116994
C        0.56574234       0.05672378       0.13321870
C       -0.71695899      -0.11559233       0.93368298
C       -1.47051386      -0.19051820      -0.41780552
C       -0.22213673       0.39198221      -1.12566443
H        1.90109188      -1.22217460       1.18846796
H        2.47819416       0.50088940      -0.12193677
H       -0.95622197       0.79084582       1.49127272
H       -0.77315442      -0.97590380       1.59999058
H       -2.39039369       0.38598350      -0.49450866
H       -1.67267586      -1.21751888      -0.72018073
H       -0.29714920       1.47152391      -1.26818403
H        0.11551492      -0.07533663      -2.04982295
14
Frame=9 idx=004661 GeodesicLength=0.4044064188833268 rxn_smarts="[C:1]1([H:7])([H:8])[O:2][C:3]12[C:4]([H:9])([H:10])[C:5]([H:11])([H:12])[C:6]2([H:13])[H:14]>>[C:1]([C:3]1([O:2][H:8])[C:4]([H:9])([H:10])[C:5]([H:11])([H:12])[C:6]1([H:13])[H:14])[H:7]"
C        1.81614863      -0.69554203       0.23504025
O        1.62477857       0.89393057       0.62320696
C        0.56358430       0.05616975       0.13668317
C       -0.72038190      -0.11579417       0.93471801
C       -1.47092338      -0.19091944      -0.41843118
C       -0.22154556       0.39302671      -1.12342164
H        1.90436430      -1.22092478       1.19080744
H        2.48367653       0.49820051      -0.13980568
H       -0.96033585       0.79113158       1.49130472
H       -0.77789975      -0.97584313       1.60124548
H       -2.39134186       0.38444184      -0.49719907
H       -1.67092091      -1.21804383      -0.72183885
H       -0.29718637       1.47277042      -1.26454063
H        0.11798326      -0.07260399      -2.04776899
14
Frame=10 idx=004661 GeodesicLength=0.44927930648832587 rxn_smarts="[C:1]1([H:7])([H:8])[O:2][C:3]12[C:4]([H:9])([H:10])[C:5]([H:11])([H:12])[C:6]2([H:13])[H:14]>>[C:1]([C:3]1([O:2][H:8])[C:4]([H:9])([H:10])[C:5]([H:11])([H:12])[C:6]1([H:13])[H:14])[H:7]"
C        1.81624733      -0.69082668       0.23974414
O        1.62686044       0.88873172       0.62524195
C        0.56143876       0.05568227       0.14015936
C       -0.72379229      -0.11598859       0.93574993
C       -1.47131017      -0.19132704      -0.41905496
C       -0.22095008       0.39409484      -1.12116932
H        1.90765630      -1.21962773       1.19307399
H        2.48913152       0.49515265      -0.15758739
H       -0.96447695       0.79140717       1.49134224
H       -0.78260331      -0.97578256       1.60248759
H       -2.39227377       0.38287325      -0.49988836
H       -1.66911458      -1.21857751      -0.72348656
H       -0.29726913       1.47403178      -1.26091159
H        0.12045593      -0.06984358      -2.04570101
14
Frame=11 idx=004661 GeodesicLength=0.49414834276683495 rxn_smarts="[C:1]1([H:7])([H:8])[O:2][C:3]12[C:4]([H:9])([H:10])[C:5]([H:11])([H:12])[C:6]2([H:13])[H:14]>>[C:1]([C:3]1([O:2][H:8])[C:4]([H:9])([H:10])[C:5]([H:11])([H:12])[C:6]1([H:13])[H:14])[H:7]"
C        1.81634236      -0.68605246       0.24441969
O        1.62886120       0.88369168       0.62727829
C        0.55930476       0.05526072       0.14365175
C       -0.72719307      -0.11617620       0.93677937
C       -1.47167295      -0.19174299      -0.41967862
C       -0.22034956       0.39519272      -1.11890283
H        1.91097276      -1.21827092       1.19528319
H        2.49455822       0.49172595      -0.17532284
H       -0.96865293       0.79167102       1.49138488
H       -0.78727037      -0.97572210       1.60371796
H       -2.39319074       0.38127082      -0.50258281
H       -1.66724904      -1.21912223      -0.72512803
H       -0.29739918       1.47531508      -1.25728357
H        0.12293853      -0.06704109      -2.04361644
14
Frame=12 idx=004661 GeodesicLength=0.5390134596770921 rxn_smarts="[C:1]1([H:7])([H:8])[O:2][C:3]12[C:4]([H:9])([H:10])[C:5]([H:11])([H:12])[C:6]2([H:13])[H:14]>>[C:1]([C:3]1([O:2][H:8])[C:4]([H:9])([H:10])[C:5]([H:11])([H:12])[C:6]1([H:13])[H:14])[H:7]"
C        1.81643049      -0.68122080       0.24907200
O        1.63078414       0.87880890       0.62931896
C        0.55718075       0.05490646       0.14716508
C       -0.73058738      -0.11635713       0.93780766
C       -1.47200997      -0.19217000      -0.42030362
C       -0.21974362       0.39632732      -1.11661769
H        1.91431603      -1.21684482       1.19744497
H        2.49995593       0.48789785      -0.19304756
H       -0.97287039       0.79192353       1.49143168
H       -0.79190723      -0.97566032       1.60494000
H       -2.39409471       0.37962467      -0.50528911
H       -1.66531322      -1.21968211      -0.72676581
H       -0.29757767       1.47662821      -1.25364399
H        0.12543684      -0.06418177      -2.04151257
14
Frame=13 idx=004661 GeodesicLength=0.5838854181981022 rxn_smarts="[C:1]1([H:7])([H:8])[O:2][C:3]12[C:4]([H:9])([H:10])[C:5]([H:11])([H:12])[C:6]2([H:13])[H:14]>>[C:1]([C:3]1([O:2][H:8])[C:4]([H:9])([H:10])[C:5]([H:11])([H:12])[C:6]1([H:13])[H:14])[H:7]"
C        1.81651156      -0.67633418       0.25370758
O        1.63264469       0.87408278       0.63136877
C        0.55506770       0.05462285       0.15070578
C       -0.73398133      -0.11652917       0.93884154
C       -1.47232360      -0.19261575      -0.42093354
C       -0.21913219       0.39750996      -1.11431277
H        1.91768937      -1.21534491       1.19957495
H        2.50533030       0.48364094      -0.21080364
H       -0.97713782       0.79216930       1.49148629
H       -0.79652497      -0.97559427       1.60616606
H       -2.39499519       0.37791632      -0.50801806
H       -1.66329859      -1.22026857      -0.72840525
H       -0.29780860       1.47798465      -1.24998153
H        0.12795866      -0.06123993      -2.03939616
14
Frame=14 idx=004661 GeodesicLength=0.6287524155991573 rxn_smarts="[C:1]1([H:7])([H:8])[O:2][C:3]12[C:4]([H:9])([H:10])[C:5]([H:11])([H:12])[C:6]2([H:13])[H:14]>>[C:1]([C:3]1([O:2][H:8])[C:4]([H:9])([H:10])[C:5]([H:11])([H:12])[C:6]1([H:13])[H:14])[H:7]"
C        1.81657274      -0.67139561       0.25832946
O        1.63442772       0.86950744       0.63342688
C        0.55295968       0.05441145       0.15427691
C       -0.73737317      -0.11668727       0.93987230
C       -1.47259939      -0.19308159      -0.42156605
C       -0.21851507       0.39874573      -1.11197320
H        1.92108986      -1.21375973       1.20166929
H        2.51066054       0.47891996      -0.22861885
H       -0.98146372       0.79241302       1.49153279
H       -0.80111744      -0.97551350       1.60738427
H       -2.39587902       0.37613717      -0.51076970
H       -1.66117128      -1.22088044      -0.73004535
H       -0.29810211       1.47938677      -1.24627327
H        0.13051067      -0.05820340      -2.03724549
14
Frame=15 idx=004661 GeodesicLength=0.6736055064250057 rxn_smarts="[C:1]1([H:7])([H:8])[O:2][C:3]12[C:4]([H:9])([H:10])[C:5]([H:11])([H:12])[C:6]2([H:13])[H:14]>>[C:1]([C:3]1([O:2][H:8])[C:4]([H:9])([H:10])[C:5]([H:11])([H:12])[C:6]1([H:13])[H:14])[H:7]"
C        1.81662586      -0.66638383       0.26294404
O        1.63611539       0.86509736       0.63550939
C        0.55085766       0.05427271       0.15787522
C       -0.74075942      -0.11684422       0.94089788
C       -1.47284111      -0.19355655      -0.42220098
C       -0.21789071       0.40002420      -1.10960539
H        1.92451872      -1.21208462       1.20373072
H        2.51594979       0.47374261      -0.24648827
H       -0.98584109       0.79263496       1.49157875
H       -0.80567500      -0.97544166       1.60858092
H       -2.39673928       0.37431647      -0.51352888
H       -1.65896010      -1.22150116      -0.73168966
H       -0.29844934       1.48082282      -1.24254446
H        0.13308863      -0.05509909      -2.03505928
14
Frame=16 idx=004661 GeodesicLength=0.7184659308491483 rxn_smarts="[C:1]1([H:7])([H:8])[O:2][C:3]12[C:4]([H:9])([H:10])[C:5]([H:11])([H:12])[C:6]2([H:13])[H:14]>>[C:1]([C:3]1([O:2][H:8])[C:4]([H:9])([H:10])[C:5]([H:11])([H:12])[C:6]1([H:13])[H:14])[H:7]"
C        1.81667585      -0.66129737       0.26755604
O        1.63773116       0.86085652       0.63762802
C        0.54876551       0.05421366       0.16150481
C       -0.74414720      -0.11699932       0.94192785
C       -1.47305754      -0.19404843      -0.42284328
C       -0.21725948       0.40135637      -1.10721524
H        1.92798206      -1.21031224       1.20577366
H        2.52121921       0.46808093      -0.26444192
H       -0.99027800       0.79283683       1.49163871
H       -0.81021192      -0.97537949       1.60977154
H       -2.39759473       0.37243471      -0.51630448
H       -1.65666920      -1.22214219      -0.73334713
H       -0.29885108       1.48230645      -1.23879247
H        0.13569535      -0.05190643      -2.03285611
