15
Frame=0 idx=003658 GeodesicLength=0.0 rxn_smarts="[C:1]([C:2](/[C:3](=[N:4]\[O:5][H:12])[C:6]([H:13])([H:14])[H:15])([H:10])[H:11])([H:7])([H:8])[H:9]>>[C:1]([H:7])([H:8])([H:9])[H:12].[C:2](=[C:3]([N:4]=[O:5])[C:6]([H:13])([H:14])[H:15])([H:10])[H:11]"
C        1.73535472       0.74963969       0.43982280
C        0.23988247      -0.10466230      -0.94890775
C       -0.93690575      -0.14808931      -0.19828434
N       -1.32608250       0.98100284       0.39717447
O       -0.53385522       1.96323601       0.18317293
C       -1.65275948      -1.41201164       0.16890609
H        2.28569578       1.69393932       0.50788140
H        1.55377353       0.33419986       1.42937383
H        2.35443383       0.07014335      -0.13659776
H        0.40967884       0.72428914      -1.62277518
H        0.73565442      -1.03320961      -1.20633394
H        0.65692514       1.38004033       0.16918021
H       -2.51585669      -1.16192256       0.78495764
H       -1.99697749      -1.95490793      -0.71274572
H       -1.00896155      -2.08168719       0.74517533
15
Frame=1 idx=003658 GeodesicLength=0.08926745778352094 rxn_smarts="[C:1]([C:2](/[C:3](=[N:4]\[O:5][H:12])[C:6]([H:13])([H:14])[H:15])([H:10])[H:11])([H:7])([H:8])[H:9]>>[C:1]([H:7])([H:8])([H:9])[H:12].[C:2](=[C:3]([N:4]=[O:5])[C:6]([H:13])([H:14])[H:15])([H:10])[H:11]"
C        1.73421213       0.74327214       0.44514565
C        0.24467084      -0.10664477      -0.95017973
C       -0.93861415      -0.14779216      -0.20770314
N       -1.34156115       0.98655224       0.37224003
O       -0.55257070       1.97185080       0.15622911
C       -1.64681743      -1.41097332       0.17473179
H        2.29481151       1.67868401       0.54204731
H        1.54513843       0.31334278       1.42751691
H        2.36802261       0.07401263      -0.12852691
H        0.40758937       0.71694074      -1.63292200
H        0.72792761      -1.03915621      -1.21753033
H        0.65565113       1.41909722       0.17483734
H       -2.48780934      -1.16751974       0.82321362
H       -2.02250038      -1.94179607      -0.70147736
H       -0.98815049      -2.08987029       0.72237771
15
Frame=2 idx=003658 GeodesicLength=0.17856411981879075 rxn_smarts="[C:1]([C:2](/[C:3](=[N:4]\[O:5][H:12])[C:6]([H:13])([H:14])[H:15])([H:10])[H:11])([H:7])([H:8])[H:9]>>[C:1]([H:7])([H:8])([H:9])[H:12].[C:2](=[C:3]([N:4]=[O:5])[C:6]([H:13])([H:14])[H:15])([H:10])[H:11]"
C        1.73281198       0.73689886       0.45033323
C        0.24949533      -0.10867834      -0.95182948
C       -0.94038059      -0.14757039      -0.21774927
N       -1.35716691       0.99185999       0.34623185
O       -0.57050353       1.97981940       0.12917323
C       -1.64064118      -1.40970854       0.18076798
H        2.30232591       1.66307832       0.57664220
H        1.53704182       0.29146926       1.42493910
H        2.38172050       0.07856393      -0.12053474
H        0.40569593       0.70959423      -1.64315643
H        0.71998588      -1.04496259      -1.22927028
H        0.65384498       1.45828606       0.18248065
H       -2.45823179      -1.17222069       0.86067629
H       -2.04774404      -1.92900226      -0.68834560
H       -0.96825428      -2.09742724       0.69964128
15
Frame=3 idx=003658 GeodesicLength=0.2678954052625121 rxn_smarts="[C:1]([C:2](/[C:3](=[N:4]\[O:5][H:12])[C:6]([H:13])([H:14])[H:15])([H:10])[H:11])([H:7])([H:8])[H:9]>>[C:1]([H:7])([H:8])([H:9])[H:12].[C:2](=[C:3]([N:4]=[O:5])[C:6]([H:13])([H:14])[H:15])([H:10])[H:11]"
C        1.73116113       0.73048725       0.45537161
C        0.25436739      -0.11080241      -0.95390400
C       -0.94220138      -0.14744452      -0.22848715
N       -1.37286818       0.99690048       0.31907299
O       -0.58762315       1.98712437       0.10209037
C       -1.63420462      -1.40818104       0.18701397
H        2.30817859       1.64711855       0.61164513
H        1.52949084       0.26850706       1.42155248
H        2.39552123       0.08387205      -0.11264837
H        0.40402377       0.70221770      -1.65352535
H        0.71186194      -1.05066314      -1.24153864
H        0.65135260       1.49759842       0.19230952
H       -2.42713641      -1.17586309       0.89732546
H       -2.07266160      -1.91653017      -0.67333675
H       -0.94926214      -2.10434152       0.67705872
15
Frame=4 idx=003658 GeodesicLength=0.3572538870677656 rxn_smarts="[C:1]([C:2](/[C:3](=[N:4]\[O:5][H:12])[C:6]([H:13])([H:14])[H:15])([H:10])[H:11])([H:7])([H:8])[H:9]>>[C:1]([H:7])([H:8])([H:9])[H:12].[C:2](=[C:3]([N:4]=[O:5])[C:6]([H:13])([H:14])[H:15])([H:10])[H:11]"
C        1.72926794       0.72402008       0.46024030
C        0.25929593      -0.11306462      -0.95643828
C       -0.94407051      -0.14743937      -0.23996411
N       -1.38862127       1.00164400       0.29070355
O       -0.60388357       1.99374232       0.07509593
C       -1.62750512      -1.40635315       0.19346595
H        2.31232532       1.63081603       0.64700224
H        1.52252322       0.24440368       1.41726837
H        2.40942606       0.09001781      -0.10491249
H        0.40258868       0.69476656      -1.66407456
H        0.70358653      -1.05630521      -1.25430641
H        0.64800587       1.53701760       0.20454140
H       -2.39457936      -1.17828111       0.93310444
H       -2.09717141      -1.90439042      -0.65647073
H       -0.93118829      -2.11059419       0.65474440
15
Frame=5 idx=003658 GeodesicLength=0.44670779469374755 rxn_smarts="[C:1]([C:2](/[C:3](=[N:4]\[O:5][H:12])[C:6]([H:13])([H:14])[H:15])([H:10])[H:11])([H:7])([H:8])[H:9]>>[C:1]([H:7])([H:8])([H:9])[H:12].[C:2](=[C:3]([N:4]=[O:5])[C:6]([H:13])([H:14])[H:15])([H:10])[H:11]"
C        1.72715462       0.71747009       0.46491812
C        0.26429556      -0.11551094      -0.95945348
C       -0.94596418      -0.14758836      -0.25219684
N       -1.40436094       1.00604953       0.26111812
O       -0.61927879       1.99964495       0.04830254
C       -1.62053977      -1.40418901       0.20010539
H        2.31473158       1.61415443       0.68264341
H        1.51617955       0.21916616       1.41199379
H        2.42341362       0.09706375      -0.09730931
H        0.40139664       0.68719155      -1.67484472
H        0.69519856      -1.06193713      -1.26753509
H        0.64364198       1.57655900       0.21930677
H       -2.36058308      -1.17932230       0.96794883
H       -2.12122143      -1.89254335      -0.63777405
H       -0.91406395      -2.11620836       0.63277651
15
Frame=6 idx=003658 GeodesicLength=0.5362557042355425 rxn_smarts="[C:1]([C:2](/[C:3](=[N:4]\[O:5][H:12])[C:6]([H:13])([H:14])[H:15])([H:10])[H:11])([H:7])([H:8])[H:9]>>[C:1]([H:7])([H:8])([H:9])[H:12].[C:2](=[C:3]([N:4]=[O:5])[C:6]([H:13])([H:14])[H:15])([H:10])[H:11]"
C        1.72484414       0.71084416       0.46936625
C        0.26938064      -0.11820843      -0.96296443
C       -0.94785969      -0.14792521      -0.26519299
N       -1.42001399       1.01008098       0.23030315
O       -0.63372692       2.00482549       0.02182333
C       -1.61332948      -1.40165591       0.20691969
H        2.31536569       1.59716651       0.71846800
H        1.51053820       0.19282362       1.40565357
H        2.43749748       0.10509849      -0.08988705
H        0.40045369       0.67941865      -1.68587470
H        0.68673449      -1.06763242      -1.28116869
H        0.63806301       1.61619147       0.23684449
H       -2.32524770      -1.17885944       1.00177275
H       -2.14475164      -1.88095439      -0.61729711
H       -0.89794793      -2.12121358       0.61123375
15
Frame=7 idx=003658 GeodesicLength=0.625882092420136 rxn_smarts="[C:1]([C:2](/[C:3](=[N:4]\[O:5][H:12])[C:6]([H:13])([H:14])[H:15])([H:10])[H:11])([H:7])([H:8])[H:9]>>[C:1]([H:7])([H:8])([H:9])[H:12].[C:2](=[C:3]([N:4]=[O:5])[C:6]([H:13])([H:14])[H:15])([H:10])[H:11]"
C        1.72234807       0.70414833       0.47355000
C        0.27456586      -0.12122359      -0.96699527
C       -0.94973550      -0.14848379      -0.27897141
N       -1.43549618       1.01370913       0.19825132
O       -0.64717395       2.00925710      -0.00421892
C       -1.60589483      -1.39871567       0.21388527
H        2.31419326       1.57985267       0.75439380
H        1.50567243       0.16542405       1.39815307
H        2.45166816       0.11421145      -0.08265377
H        0.39976784       0.67137146      -1.69721083
H        0.67823827      -1.07347154      -1.29514942
H        0.63104888       1.65585946       0.25736034
H       -2.28858313      -1.17674485       1.03448786
H       -2.16772388      -1.86954676      -0.59506101
H       -0.88289529      -2.12564744       0.59017897
15
Frame=8 idx=003658 GeodesicLength=0.7155685091175947 rxn_smarts="[C:1]([C:2](/[C:3](=[N:4]\[O:5][H:12])[C:6]([H:13])([H:14])[H:15])([H:10])[H:11])([H:7])([H:8])[H:9]>>[C:1]([H:7])([H:8])([H:9])[H:12].[C:2](=[C:3]([N:4]=[O:5])[C:6]([H:13])([H:14])[H:15])([H:10])[H:11]"
C        1.71972966       0.69743672       0.47741955
C        0.27987668      -0.12463657      -0.97151710
C       -0.95154210      -0.14930934      -0.29345966
N       -1.45069518       1.01689259       0.16506190
O       -0.65953324       2.01292308      -0.02965679
C       -1.59829863      -1.39535298       0.22096369
H        2.31123604       1.56227147       0.79023936
H        1.50174137       0.13713295       1.38942160
H        2.46592509       0.12448119      -0.07561758
H        0.39932110       0.66295188      -1.70887216
H        0.66976233      -1.07955114      -1.30936943
H        0.62241318       1.69553056       0.28097804
H       -2.25080946      -1.17292601       1.06593670
H       -2.19009673      -1.85823768      -0.57119029
H       -0.86903012      -2.12960672       0.56966219
15
Frame=9 idx=003658 GeodesicLength=0.8046832758980293 rxn_smarts="[C:1]([C:2](/[C:3](=[N:4]\[O:5][H:12])[C:6]([H:13])([H:14])[H:15])([H:10])[H:11])([H:7])([H:8])[H:9]>>[C:1]([H:7])([H:8])([H:9])[H:12].[C:2](=[C:3]([N:4]=[O:5])[C:6]([H:13])([H:14])[H:15])([H:10])[H:11]"
C        1.71691236       0.69075782       0.48087898
C        0.28534776      -0.12858055      -0.97668457
C       -0.95325830      -0.15042848      -0.30887769
N       -1.46542736       1.01970432       0.13036853
O       -0.67068763       2.01575610      -0.05444309
C       -1.59043486      -1.39136024       0.22823499
H        2.30626466       1.54435747       0.82608899
H        1.49892413       0.10786323       1.37915368
H        2.48034355       0.13629984      -0.06905200
H        0.39922485       0.65399268      -1.72101905
H        0.66138539      -1.08606432      -1.32380965
H        0.61147377       1.73443426       0.30868870
H       -2.21189480      -1.16733748       1.09591357
H       -2.21189494      -1.84665542      -0.54543944
H       -0.85627860      -2.13273921       0.54999804
15
Frame=10 idx=003658 GeodesicLength=0.8937813809402162 rxn_smarts="[C:1]([C:2](/[C:3](=[N:4]\[O:5][H:12])[C:6]([H:13])([H:14])[H:15])([H:10])[H:11])([H:7])([H:8])[H:9]>>[C:1]([H:7])([H:8])([H:9])[H:12].[C:2](=[C:3]([N:4]=[O:5])[C:6]([H:13])([H:14])[H:15])([H:10])[H:11]"
C        1.71403997       0.68411853       0.48393129
C        0.29100145      -0.13309999      -0.98234347
C       -0.95482296      -0.15189433      -0.32497797
N       -1.47963175       1.02204697       0.09456144
O       -0.68054003       2.01774745      -0.07823094
C       -1.58248297      -1.38686082       0.23555384
H        2.29946949       1.52628770       0.86155956
H        1.49729845       0.07793325       1.36750697
H        2.49487020       0.14953093      -0.06271805
H        0.39939786       0.64443763      -1.73355689
H        0.65313536      -1.09305289      -1.33830993
H        0.59831517       1.77304256       0.33982981
H       -2.17208447      -1.15990834       1.12445715
H       -2.23309036      -1.83484121      -0.51823314
H       -0.84487542      -2.13548743       0.53097032
15
Frame=11 idx=003658 GeodesicLength=0.9828921168192137 rxn_smarts="[C:1]([C:2](/[C:3](=[N:4]\[O:5][H:12])[C:6]([H:13])([H:14])[H:15])([H:10])[H:11])([H:7])([H:8])[H:9]>>[C:1]([H:7])([H:8])([H:9])[H:12].[C:2](=[C:3]([N:4]=[O:5])[C:6]([H:13])([H:14])[H:15])([H:10])[H:11]"
C        1.71113010       0.67750772       0.48655428
C        0.29685673      -0.13827209      -0.98849505
C       -0.95620640      -0.15373692      -0.34175456
N       -1.49318707       1.02391538       0.05766140
O       -0.68902569       2.01887846      -0.10084058
C       -1.57447549      -1.38181474       0.24289622
H        2.29084357       1.50810098       0.89652961
H        1.49694635       0.04743126       1.35443487
H        2.50950333       0.16425931      -0.05659725
H        0.39986069       0.63418985      -1.74650532
H        0.64504434      -1.10062481      -1.35280498
H        0.58264983       1.81124424       0.37444780
H       -2.13138465      -1.15059546       1.15153230
H       -2.25368706      -1.82259865      -0.48966245
H       -0.83486858      -2.13788452       0.51260369
15
Frame=12 idx=003658 GeodesicLength=1.072051994696703 rxn_smarts="[C:1]([C:2](/[C:3](=[N:4]\[O:5][H:12])[C:6]([H:13])([H:14])[H:15])([H:10])[H:11])([H:7])([H:8])[H:9]>>[C:1]([H:7])([H:8])([H:9])[H:12].[C:2](=[C:3]([N:4]=[O:5])[C:6]([H:13])([H:14])[H:15])([H:10])[H:11]"
C        1.70826901       0.67096186       0.48870840
C        0.30293997      -0.14418036      -0.99507115
C       -0.95734305      -0.15599449      -0.35907655
N       -1.50594468       1.02529258       0.01984120
O       -0.69607843       2.01914881      -0.12206818
C       -1.56648787      -1.37623292       0.25020325
H        2.28046173       1.48991620       0.93076001
H        1.49801583       0.01658435       1.33997459
H        2.52427732       0.18051353      -0.05067406
H        0.40059821       0.62313629      -1.75983386
H        0.63714009      -1.10888925      -1.36718165
H        0.56427100       1.84900715       0.41243542
H       -2.09003432      -1.13950275       1.17706267
H       -2.27370459      -1.80972150      -0.45995824
H       -0.82638023      -2.14003948       0.49487817
15
Frame=13 idx=003658 GeodesicLength=1.1612881154537513 rxn_smarts="[C:1]([C:2](/[C:3](=[N:4]\[O:5][H:12])[C:6]([H:13])([H:14])[H:15])([H:10])[H:11])([H:7])([H:8])[H:9]>>[C:1]([H:7])([H:8])([H:9])[H:12].[C:2](=[C:3]([N:4]=[O:5])[C:6]([H:13])([H:14])[H:15])([H:10])[H:11]"
C        1.70549798       0.66445737       0.49037356
C        0.30926221      -0.15087492      -1.00204460
C       -0.95820326      -0.15867636      -0.37688257
N       -1.51778568       1.02619553      -0.01874742
O       -0.70169480       2.01855244      -0.14177056
C       -1.55856090      -1.37010874       0.25743540
H        2.26836835       1.47173442       0.96414126
H        1.50055003      -0.01441444       1.32415754
H        2.53917675       0.19828580      -0.04484497
H        0.40161329       0.61121371      -1.77353381
H        0.62942824      -1.11791923      -1.38138822
H        0.54299415       1.88630119       0.45356863
H       -2.04800711      -1.12672302       1.20101703
H       -2.29316487      -1.79598657      -0.42922091
H       -0.81947436      -2.14203719       0.47773966
15
Frame=14 idx=003658 GeodesicLength=1.2505711196157245 rxn_smarts="[C:1]([C:2](/[C:3](=[N:4]\[O:5][H:12])[C:6]([H:13])([H:14])[H:15])([H:10])[H:11])([H:7])([H:8])[H:9]>>[C:1]([H:7])([H:8])([H:9])[H:12].[C:2](=[C:3]([N:4]=[O:5])[C:6]([H:13])([H:14])[H:15])([H:10])[H:11]"
C        1.70293044       0.65801329       0.49152235
C        0.31584487      -0.15841816      -1.00931998
C       -0.95871581      -0.16180254      -0.39498947
N       -1.52853969       1.02662076      -0.05781077
O       -0.70584130       2.01710562      -0.15973281
C       -1.55077059      -1.36347961       0.26453157
H        2.25466473       1.45370783       0.99640968
H        1.50469414      -0.04529759       1.30708986
H        2.55424437       0.21751572      -0.03904574
H        0.40287637       0.59834309      -1.78753187
H        0.62191097      -1.12779469      -1.39532614
H        0.51869012       1.92318022       0.49749194
H       -2.00562190      -1.11249486       1.22330317
H       -2.31209698      -1.78118944      -0.39770472
H       -0.81426974      -2.14400964       0.46111292
15
Frame=15 idx=003658 GeodesicLength=1.3398639273897845 rxn_smarts="[C:1]([C:2](/[C:3](=[N:4]\[O:5][H:12])[C:6]([H:13])([H:14])[H:15])([H:10])[H:11])([H:7])([H:8])[H:9]>>[C:1]([H:7])([H:8])([H:9])[H:12].[C:2](=[C:3]([N:4]=[O:5])[C:6]([H:13])([H:14])[H:15])([H:10])[H:11]"
C        1.70064313       0.65158491       0.49214770
C        0.32269270      -0.16683567      -1.01683496
C       -0.95884205      -0.16536745      -0.41326829
N       -1.53807340       1.02659337      -0.09707019
O       -0.70855929       2.01482543      -0.17581918
C       -1.54315643      -1.35638344       0.27144264
H        2.23942939       1.43587558       1.02742934
H        1.51047464      -0.07585207       1.28889989
H        2.56948355       0.23810191      -0.03314101
H        0.40437023       0.58449924      -1.80176722
H        0.61456390      -1.13854832      -1.40895935
H        0.49128659       1.95976220       0.54371848
H       -1.96294665      -1.09705765       1.24390486
H       -2.33053243      -1.76513196      -0.36556466
H       -0.81083388      -2.14606607       0.44488194
15
Frame=16 idx=003658 GeodesicLength=1.429120484239374 rxn_smarts="[C:1]([C:2](/[C:3](=[N:4]\[O:5][H:12])[C:6]([H:13])([H:14])[H:15])([H:10])[H:11])([H:7])([H:8])[H:9]>>[C:1]([H:7])([H:8])([H:9])[H:12].[C:2](=[C:3]([N:4]=[O:5])[C:6]([H:13])([H:14])[H:15])([H:10])[H:11]"
C        1.69873842       0.64512610       0.49223997
C        0.32980097      -0.17612849      -1.02450096
C       -0.95853772      -0.16935419      -0.43153481
N       -1.54626632       1.02614073      -0.13615973
O       -0.70992777       2.01175265      -0.18992031
C       -1.53575515      -1.34889618       0.27810878
H        2.22277585       1.41829015       1.05702641
H        1.51791504      -0.10585323       1.26976219
H        2.58493442       0.25984005      -0.02696810
H        0.40605218       0.56968617      -1.81614807
H        0.60734212      -1.15017400      -1.42225838
H        0.46078972       1.99630979       0.59163981
H       -1.92015925      -1.08075353       1.26279606
H       -2.34847348      -1.74765530      -0.33299764
H       -0.80922903      -2.14833072       0.42891478
