14
Frame=0 idx=005644 GeodesicLength=0.0 rxn_smarts="[C:1](#[C:2][C:3]([C:4]1([H:10])[C:5]([H:11])([H:12])[C:6]1([H:13])[H:14])([H:8])[H:9])[H:7]>>[C:1](#[C:2][C:3]([C:4]([C:5](=[C:6]([H:13])[H:14])[H:12])([H:10])[H:11])([H:8])[H:9])[H:7]"
C        2.43791320      -0.65230693      -1.12874514
C        1.76061597      -0.29445124      -0.20731467
C        0.90769255       0.16741784       0.89493299
C       -0.23495798       1.04121178       0.50470293
C       -1.54373331       0.49247326       0.08663785
C       -1.51156238      -0.87726679      -0.32000001
H        3.04333236      -0.97310819      -1.94289437
H        0.49602640      -0.72382864       1.39387361
H        1.54485407       0.72032229       1.59483058
H        0.01209175       2.05541155       0.20149148
H       -1.60204234       1.06887537      -0.86848893
H       -2.40555249       0.81118855       0.68143863
H       -2.18177520      -1.62256881       0.08863918
H       -0.72290265      -1.21337010      -0.97910413
14
Frame=1 idx=005644 GeodesicLength=0.08753221561801428 rxn_smarts="[C:1](#[C:2][C:3]([C:4]1([H:10])[C:5]([H:11])([H:12])[C:6]1([H:13])[H:14])([H:8])[H:9])[H:7]>>[C:1](#[C:2][C:3]([C:4]([C:5](=[C:6]([H:13])[H:14])[H:12])([H:10])[H:11])([H:8])[H:9])[H:7]"
C        2.44621382      -0.66786212      -1.12119872
C        1.76290994      -0.30249074      -0.20721672
C        0.90432513       0.16537848       0.88748874
C       -0.24276410       1.02635891       0.47945946
C       -1.56505948       0.49305514       0.09455057
C       -1.50337605      -0.87096681      -0.31558632
H        3.05996624      -0.97605989      -1.93407127
H        0.49925874      -0.72052561       1.39992417
H        1.53564258       0.72967761       1.58333050
H        0.00488454       2.04577456       0.19495475
H       -1.58992043       1.10005557      -0.86069328
H       -2.41458547       0.80298716       0.70862291
H       -2.15907506      -1.62730313       0.09651430
H       -0.73842041      -1.19807912      -1.00607911
14
Frame=2 idx=005644 GeodesicLength=0.17501529177827505 rxn_smarts="[C:1](#[C:2][C:3]([C:4]1([H:10])[C:5]([H:11])([H:12])[C:6]1([H:13])[H:14])([H:8])[H:9])[H:7]>>[C:1](#[C:2][C:3]([C:4]([C:5](=[C:6]([H:13])[H:14])[H:12])([H:10])[H:11])([H:8])[H:9])[H:7]"
C        2.45438319      -0.68104943      -1.11465595
C        1.76524730      -0.30903681      -0.20779054
C        0.90100540       0.16391595       0.87966327
C       -0.25095253       1.01144389       0.45453934
C       -1.58556552       0.49346831       0.10120074
C       -1.49497737      -0.86463113      -0.31199544
H        3.07585809      -0.98318076      -1.92387923
H        0.50297552      -0.71672924       1.40529386
H        1.52632402       0.73944567       1.57146077
H       -0.00350857       2.03669076       0.19160186
H       -1.57807685       1.13132402      -0.85266369
H       -2.42182945       0.79340466       0.73568553
H       -2.13653748      -1.63132944       0.10340138
H       -0.75434574      -1.18373645      -1.03186192
14
Frame=3 idx=005644 GeodesicLength=0.26249908242490005 rxn_smarts="[C:1](#[C:2][C:3]([C:4]1([H:10])[C:5]([H:11])([H:12])[C:6]1([H:13])[H:14])([H:8])[H:9])[H:7]>>[C:1](#[C:2][C:3]([C:4]([C:5](=[C:6]([H:13])[H:14])[H:12])([H:10])[H:11])([H:8])[H:9])[H:7]"
C        2.46286311      -0.69422299      -1.10742516
C        1.76777352      -0.31557399      -0.20787220
C        0.89762069       0.16259567       0.87202005
C       -0.25907884       0.99637404       0.42951561
C       -1.60503677       0.49382095       0.10624803
C       -1.48659645      -0.85847712      -0.30879890
H        3.08962867      -0.98904509      -1.91530524
H        0.50648370      -0.71239849       1.41095464
H        1.51676836       0.74932079       1.55971353
H       -0.01216085       2.02764210       0.19032394
H       -1.56561402       1.16221338      -0.84528777
H       -2.42722925       0.78349885       0.76148899
H       -2.11478052      -1.63441538       0.11012483
H       -0.77064133      -1.17133270      -1.05570035
14
Frame=4 idx=005644 GeodesicLength=0.34994480067170586 rxn_smarts="[C:1](#[C:2][C:3]([C:4]1([H:10])[C:5]([H:11])([H:12])[C:6]1([H:13])[H:14])([H:8])[H:9])[H:7]>>[C:1](#[C:2][C:3]([C:4]([C:5](=[C:6]([H:13])[H:14])[H:12])([H:10])[H:11])([H:8])[H:9])[H:7]"
C        2.47148017      -0.70790907      -1.09930163
C        1.77041898      -0.32254453      -0.20726664
C        0.89412626       0.16121818       0.86458297
C       -0.26696069       0.98110286       0.40426078
C       -1.62343513       0.49414386       0.10971180
C       -1.47845344      -0.85254150      -0.30578345
H        3.10140081      -0.99183823      -1.90866742
H        0.50954976      -0.70756541       1.41699720
H        1.50701398       0.75905223       1.54805446
H       -0.02070119       2.01827344       0.19077843
H       -1.55215648       1.19252334      -0.83874753
H       -2.43080691       0.77371503       0.78557920
H       -2.09404553      -1.63647389       0.11718218
H       -0.78743059      -1.16115632      -1.07738034
14
Frame=5 idx=005644 GeodesicLength=0.43728992137794365 rxn_smarts="[C:1](#[C:2][C:3]([C:4]1([H:10])[C:5]([H:11])([H:12])[C:6]1([H:13])[H:14])([H:8])[H:9])[H:7]>>[C:1](#[C:2][C:3]([C:4]([C:5](=[C:6]([H:13])[H:14])[H:12])([H:10])[H:11])([H:8])[H:9])[H:7]"
C        2.47982953      -0.71926681      -1.09224731
C        1.77307157      -0.32780572      -0.20746888
C        0.89062834       0.16045681       0.85661410
C       -0.27507978       0.96605254       0.37929332
C       -1.64116769       0.49417481       0.11258262
C       -1.47033755      -0.84657148      -0.30355573
H        3.11326020      -0.99906339      -1.90034184
H        0.51301400      -0.70225468       1.42205062
H        1.49714375       0.76905128       1.53600455
H       -0.03037957       2.00920199       0.19398109
H       -1.53906576       1.22299256      -0.83145345
H       -2.43292155       0.76278287       0.80938739
H       -2.07338130      -1.63814850       0.12345312
H       -0.80461418      -1.15160228      -1.09829959
14
Frame=6 idx=005644 GeodesicLength=0.524672656779851 rxn_smarts="[C:1](#[C:2][C:3]([C:4]1([H:10])[C:5]([H:11])([H:12])[C:6]1([H:13])[H:14])([H:8])[H:9])[H:7]>>[C:1](#[C:2][C:3]([C:4]([C:5](=[C:6]([H:13])[H:14])[H:12])([H:10])[H:11])([H:8])[H:9])[H:7]"
C        2.48815257      -0.73027745      -1.08517354
C        1.77584617      -0.33278605      -0.20758755
C        0.88704255       0.15982184       0.84859001
C       -0.28311957       0.95110834       0.35430356
C       -1.65809703       0.49410432       0.11453790
C       -1.46247723      -0.84074012      -0.30167436
H        3.12433995      -1.00577593      -1.89261355
H        0.51631407      -0.69655028       1.42700027
H        1.48711140       0.77892310       1.52396228
H       -0.04040105       1.99989686       0.19897513
H       -1.52550499       1.25324300      -0.82429678
H       -2.43369387       0.75181925       0.83190642
H       -2.05330984      -1.63918834       0.12985944
H       -0.82220311      -1.14359853      -1.11778924
14
Frame=7 idx=005644 GeodesicLength=0.612037224839012 rxn_smarts="[C:1](#[C:2][C:3]([C:4]1([H:10])[C:5]([H:11])([H:12])[C:6]1([H:13])[H:14])([H:8])[H:9])[H:7]>>[C:1](#[C:2][C:3]([C:4]([C:5](=[C:6]([H:13])[H:14])[H:12])([H:10])[H:11])([H:8])[H:9])[H:7]"
C        2.49629841      -0.74040081      -1.07841503
C        1.77869952      -0.33699384      -0.20789695
C        0.88338508       0.15947294       0.84036104
C       -0.29115830       0.93640486       0.32942722
C       -1.67429806       0.49382918       0.11589280
C       -1.45480089      -0.83499768      -0.30024353
H        3.13496617      -1.01349935      -1.88474256
H        0.51961296      -0.69042750       1.43154045
H        1.47694457       0.78875349       1.51183718
H       -0.05094601       1.99036241       0.20580476
H       -1.51168500       1.28338584      -0.81684317
H       -2.43329899       0.74056984       0.85334200
H       -2.03356484      -1.63977490       0.13613240
H       -0.84015463      -1.13668449      -1.13619661
14
Frame=8 idx=005644 GeodesicLength=0.6993931574270849 rxn_smarts="[C:1](#[C:2][C:3]([C:4]1([H:10])[C:5]([H:11])([H:12])[C:6]1([H:13])[H:14])([H:8])[H:9])[H:7]>>[C:1](#[C:2][C:3]([C:4]([C:5](=[C:6]([H:13])[H:14])[H:12])([H:10])[H:11])([H:8])[H:9])[H:7]"
C        2.50423507      -0.74991165      -1.07184091
C        1.78162184      -0.34065585      -0.20825504
C        0.87962666       0.15931435       0.83200621
C       -0.29913053       0.92196972       0.30465266
C       -1.68975855       0.49336892       0.11669695
C       -1.44734065      -0.82938194      -0.29915638
H        3.14504259      -1.02139646      -1.87705348
H        0.52279590      -0.68392959       1.43579425
H        1.46664158       0.79843726       1.49971360
H       -0.06182201       1.98040929       0.21414989
H       -1.49738356       1.31333965      -0.80918278
H       -2.43189090       0.72930470       0.87349035
H       -2.01418601      -1.63992065       0.14245294
H       -0.85845141      -1.13094775      -1.15346826
14
Frame=9 idx=005644 GeodesicLength=0.7867319422462055 rxn_smarts="[C:1](#[C:2][C:3]([C:4]1([H:10])[C:5]([H:11])([H:12])[C:6]1([H:13])[H:14])([H:8])[H:9])[H:7]>>[C:1](#[C:2][C:3]([C:4]([C:5](=[C:6]([H:13])[H:14])[H:12])([H:10])[H:11])([H:8])[H:9])[H:7]"
C        2.51185140      -0.75871880      -1.06558370
C        1.78459023      -0.34363220      -0.20874111
C        0.87577218       0.15938448       0.82350245
C       -0.30707342       0.90788411       0.28007452
C       -1.70452746       0.49268469       0.11711833
C       -1.44004758      -0.82388109      -0.29841400
H        3.15470528      -1.02985209      -1.86931475
H        0.52591746      -0.67706468       1.43969505
H        1.45623223       0.80798010       1.48759332
H       -0.07303272       1.96999143       0.22383841
H       -1.48261362       1.34311919      -0.80116086
H       -2.42966953       0.71798780       0.89241226
H       -1.99504806      -1.63971662       0.14873303
H       -0.87705638      -1.12616631      -1.16975294
14
Frame=10 idx=005644 GeodesicLength=0.874059325534957 rxn_smarts="[C:1](#[C:2][C:3]([C:4]1([H:10])[C:5]([H:11])([H:12])[C:6]1([H:13])[H:14])([H:8])[H:9])[H:7]>>[C:1](#[C:2][C:3]([C:4]([C:5](=[C:6]([H:13])[H:14])[H:12])([H:10])[H:11])([H:8])[H:9])[H:7]"
C        2.51908744      -0.76690533      -1.05964855
C        1.78758322      -0.34602046      -0.20930462
C        0.87180314       0.15962302       0.81489831
C       -0.31497684       0.89418314       0.25573786
C       -1.71862695       0.49179138       0.11720476
C       -1.43292320      -0.81851157      -0.29793935
H        3.16395329      -1.03848082      -1.86164913
H        0.52892849      -0.66988654       1.44329972
H        1.44572458       0.81730660       1.47553845
H       -0.08445194       1.95899420       0.23463889
H       -1.46720234       1.37265589      -0.79283868
H       -2.42680879       0.70678269       0.91001874
H       -1.97614563      -1.63918108       0.15507344
H       -0.89594448      -1.12235110      -1.18502985
14
Frame=11 idx=005644 GeodesicLength=0.9613711392444646 rxn_smarts="[C:1](#[C:2][C:3]([C:4]1([H:10])[C:5]([H:11])([H:12])[C:6]1([H:13])[H:14])([H:8])[H:9])[H:7]>>[C:1](#[C:2][C:3]([C:4]([C:5](=[C:6]([H:13])[H:14])[H:12])([H:10])[H:11])([H:8])[H:9])[H:7]"
C        2.52583324      -0.77443320      -1.05414669
C        1.79057203      -0.34772825      -0.21000455
C        0.86772268       0.16004577       0.80619358
C       -0.32288072       0.88092843       0.23174023
C       -1.73210900       0.49066981       0.11705905
C       -1.42592051      -0.81326389      -0.29771418
H        3.17288432      -1.04748774      -1.85390990
H        0.53187102      -0.66242093       1.44657550
H        1.43514651       0.82641238       1.46356751
H       -0.09605581       1.94740191       0.24639411
H       -1.45109946       1.40192313      -0.78416042
H       -2.42349572       0.69567126       0.92636649
H       -1.95738875      -1.63837232       0.16142079
H       -0.91507982      -1.11934637      -1.19938153
14
Frame=12 idx=005644 GeodesicLength=1.0486692783615286 rxn_smarts="[C:1](#[C:2][C:3]([C:4]1([H:10])[C:5]([H:11])([H:12])[C:6]1([H:13])[H:14])([H:8])[H:9])[H:7]>>[C:1](#[C:2][C:3]([C:4]([C:5](=[C:6]([H:13])[H:14])[H:12])([H:10])[H:11])([H:8])[H:9])[H:7]"
C        2.53205077      -0.78136095      -1.04907427
C        1.79353345      -0.34885736      -0.21078689
C        0.86351790       0.16058356       0.79744353
C       -0.33078031       0.86813187       0.20813359
C       -1.74500374       0.48934403       0.11668878
C       -1.41904040      -0.80814952      -0.29765782
H        3.18146509      -1.05647588      -1.84623845
H        0.53470378      -0.65473357       1.44958010
H        1.42450868       0.83521977       1.45174600
H       -0.10771853       1.93514459       0.25890013
H       -1.43410869       1.43081814      -0.77524967
H       -2.41988912       0.68479870       0.94139816
H       -1.93880092      -1.63728383       0.16786814
H       -0.93443796      -1.11717953      -1.21275133
14
Frame=13 idx=005644 GeodesicLength=1.1359529487127267 rxn_smarts="[C:1](#[C:2][C:3]([C:4]1([H:10])[C:5]([H:11])([H:12])[C:6]1([H:13])[H:14])([H:8])[H:9])[H:7]>>[C:1](#[C:2][C:3]([C:4]([C:5](=[C:6]([H:13])[H:14])[H:12])([H:10])[H:11])([H:8])[H:9])[H:7]"
C        2.53766716      -0.78766490      -1.04451249
C        1.79644233      -0.34937040      -0.21168489
C        0.85919090       0.16122345       0.78866423
C       -0.33870663       0.85582662       0.18499806
C       -1.75736580       0.48781593       0.11614286
C       -1.41225595      -0.80315908      -0.29773520
H        3.18975558      -1.06548260      -1.83857386
H        0.53745068      -0.64687271       1.45230296
H        1.41383181       0.84370484       1.44010632
H       -0.11940235       1.92222844       0.27203146
H       -1.41613114       1.45927348      -0.76615195
H       -2.41614621       0.67418058       0.95516454
H       -1.92034351      -1.63593860       0.17440680
H       -0.95398689      -1.11576507      -1.22515885
14
Frame=14 idx=005644 GeodesicLength=1.2232231608597526 rxn_smarts="[C:1](#[C:2][C:3]([C:4]1([H:10])[C:5]([H:11])([H:12])[C:6]1([H:13])[H:14])([H:8])[H:9])[H:7]>>[C:1](#[C:2][C:3]([C:4]([C:5](=[C:6]([H:13])[H:14])[H:12])([H:10])[H:11])([H:8])[H:9])[H:7]"
C        2.54264064      -0.79333357      -1.04051520
C        1.79927723      -0.34928419      -0.21270509
C        0.85474001       0.16192620       0.77988427
C       -0.34667763       0.84402688       0.16239365
C       -1.76924682       0.48610349       0.11543969
C       -1.40556255      -0.79828522      -0.29789680
H        3.19779226      -1.07438777      -1.83092909
H        0.54011326      -0.63890445       1.45475346
H        1.40312890       0.85182215       1.42869293
H       -0.13105322       1.90865096       0.28566915
H       -1.39703169       1.48719996      -0.75697660
H       -2.41240175       0.66387658       0.96769603
H       -1.90201841      -1.63433469       0.18107282
H       -0.97370024      -1.11507634      -1.23657922
14
Frame=15 idx=005644 GeodesicLength=1.3104804090249849 rxn_smarts="[C:1](#[C:2][C:3]([C:4]1([H:10])[C:5]([H:11])([H:12])[C:6]1([H:13])[H:14])([H:8])[H:9])[H:7]>>[C:1](#[C:2][C:3]([C:4]([C:5](=[C:6]([H:13])[H:14])[H:12])([H:10])[H:11])([H:8])[H:9])[H:7]"
C        2.54695151      -0.79835702      -1.03711933
C        1.80201984      -0.34864147      -0.21384036
C        0.85016495       0.16264039       0.77113634
C       -0.35470423       0.83272902       0.14036855
C       -1.78069732       0.48423117       0.11458909
C       -1.39896947      -0.79352052      -0.29808757
H        3.20560723      -1.08300559      -1.82334247
H        0.54268729      -0.63090281       1.45694729
H        1.39241093       0.85951877       1.41755142
H       -0.14261312       1.89441537       0.29968860
H       -1.37666649       1.51449797      -0.74786282
H       -2.40877235       0.65395688       0.97902931
H       -1.88385965      -1.63245729       0.18791098
H       -0.99355913      -1.11510487      -1.24696904
14
Frame=16 idx=005644 GeodesicLength=1.3977253335242439 rxn_smarts="[C:1](#[C:2][C:3]([C:4]1([H:10])[C:5]([H:11])([H:12])[C:6]1([H:13])[H:14])([H:8])[H:9])[H:7]>>[C:1](#[C:2][C:3]([C:4]([C:5](=[C:6]([H:13])[H:14])[H:12])([H:10])[H:11])([H:8])[H:9])[H:7]"
C        2.55062686      -0.80275440      -1.03430646
C        1.80465405      -0.34758820      -0.21502606
C        0.84545895       0.16326695       0.76247459
C       -0.36277241       0.82188976       0.11894224
C       -1.79175771       0.48224708       0.11356883
C       -1.39252301      -0.78886693      -0.29822354
H        3.21320760      -1.09086213      -1.81597609
H        0.54512892      -0.62296602       1.45893641
H        1.38168175       0.86670106       1.40674118
H       -0.15398019       1.87950192       0.31392185
H       -1.35483086       1.54103924      -0.73902813
H       -2.40535256       0.64457080       0.98916689
H       -1.86597816      -1.63025857       0.19503164
H       -1.01356323      -1.11592057      -1.25622337
