15
Frame=0 idx=007167 GeodesicLength=0.0 rxn_smarts="[C:1]([C@@:2]1([H:11])[C:3]([H:12])([H:13])[N:4]1[C:5]([C:6]#[N:7])([H:14])[H:15])([H:8])([H:9])[H:10]>>[C:1]([C@@:2]([N+:4]([C-:3]([H:12])[H:13])=[C:5]([H:14])[H:15])([C:6]#[N:7])[H:11])([H:8])([H:9])[H:10]"
C       -1.21042295      -1.24575880       0.44960634
C       -0.44466330      -0.45664895      -0.58697746
C       -0.39828699       1.97514305      -0.10451642
N        0.09419478       0.80129523      -0.10045677
C        1.47326179       0.36911648       0.19779334
C        1.21216274      -1.01905348      -0.43614839
N        1.77563331      -2.04371735      -0.66162643
H       -0.66177580      -1.29858650       1.39175319
H       -1.31449862      -2.26618500       0.07733483
H       -2.20681532      -0.83506296       0.64397712
H       -1.01234243      -0.30766715      -1.50938982
H        0.24230557       2.83119135       0.07035181
H       -1.45510882       2.10985967      -0.29830499
H        2.19192454       0.93635951      -0.39431584
H        1.71443146       0.44971490       1.26091953
15
Frame=1 idx=007167 GeodesicLength=0.1074352767888008 rxn_smarts="[C:1]([C@@:2]1([H:11])[C:3]([H:12])([H:13])[N:4]1[C:5]([C:6]#[N:7])([H:14])[H:15])([H:8])([H:9])[H:10]>>[C:1]([C@@:2]([N+:4]([C-:3]([H:12])[H:13])=[C:5]([H:14])[H:15])([C:6]#[N:7])[H:11])([H:8])([H:9])[H:10]"
C       -1.22685067      -1.24454572       0.44514330
C       -0.44635913      -0.43771147      -0.56643579
C       -0.40425665       1.96232019      -0.12632595
N        0.10382758       0.79436000      -0.03571398
C        1.48826630       0.37875197       0.21346036
C        1.22107776      -1.02636565      -0.43422132
N        1.78146889      -2.04523971      -0.67912734
H       -0.69162901      -1.31402389       1.39386154
H       -1.32763674      -2.25899715       0.05586288
H       -2.22698569      -0.83957430       0.63012295
H       -0.98708131      -0.28415754      -1.50301318
H        0.23431850       2.82917076      -0.00535940
H       -1.47260314       2.08417398      -0.24950955
H        2.19684099       0.92750350      -0.40661174
H        1.75760232       0.47433503       1.26786722
15
Frame=2 idx=007167 GeodesicLength=0.2147579260937899 rxn_smarts="[C:1]([C@@:2]1([H:11])[C:3]([H:12])([H:13])[N:4]1[C:5]([C:6]#[N:7])([H:14])[H:15])([H:8])([H:9])[H:10]>>[C:1]([C@@:2]([N+:4]([C-:3]([H:12])[H:13])=[C:5]([H:14])[H:15])([C:6]#[N:7])[H:11])([H:8])([H:9])[H:10]"
C       -1.24291900      -1.24144097       0.44075184
C       -0.44767168      -0.41947832      -0.54684987
C       -0.41176920       1.94462242      -0.14288412
N        0.11429294       0.78768022       0.02260403
C        1.50250096       0.38924905       0.22727080
C        1.23026260      -1.03401714      -0.43319515
N        1.78793200      -2.04696192      -0.69566462
H       -0.72189709      -1.32509328       1.39614194
H       -1.34014252      -2.25053432       0.03684410
H       -2.24639704      -0.84090816       0.61487498
H       -0.96122515      -0.26400878      -1.49724592
H        0.22282100       2.81992883      -0.07175235
H       -1.48568104       2.06086901      -0.20330782
H        2.20101097       0.91853548      -0.41965343
H        1.79888225       0.50155789       1.27206558
15
Frame=3 idx=007167 GeodesicLength=0.32210805738112525 rxn_smarts="[C:1]([C@@:2]1([H:11])[C:3]([H:12])([H:13])[N:4]1[C:5]([C:6]#[N:7])([H:14])[H:15])([H:8])([H:9])[H:10]>>[C:1]([C@@:2]([N+:4]([C-:3]([H:12])[H:13])=[C:5]([H:14])[H:15])([C:6]#[N:7])[H:11])([H:8])([H:9])[H:10]"
C       -1.25859610      -1.23677616       0.43648709
C       -0.44867594      -0.40215319      -0.52832362
C       -0.42038447       1.92374158      -0.15388093
N        0.12555283       0.78100167       0.07495894
C        1.51613854       0.40031972       0.23945908
C        1.23974739      -1.04215682      -0.43319944
N        1.79504734      -2.04907362      -0.71160836
H       -0.75243794      -1.33225035       1.39863113
H       -1.35202829      -2.24118858       0.02024817
H       -2.26504721      -0.83959126       0.59850651
H       -0.93519664      -0.24667682      -1.49188753
H        0.20878197       2.80550894      -0.12934639
H       -1.49569599       2.03907034      -0.16078993
H        2.20471983       0.90924897      -0.43308945
H        1.83807468       0.53097558       1.27383473
15
Frame=4 idx=007167 GeodesicLength=0.42953330087393016 rxn_smarts="[C:1]([C@@:2]1([H:11])[C:3]([H:12])([H:13])[N:4]1[C:5]([C:6]#[N:7])([H:14])[H:15])([H:8])([H:9])[H:10]>>[C:1]([C@@:2]([N+:4]([C-:3]([H:12])[H:13])=[C:5]([H:14])[H:15])([C:6]#[N:7])[H:11])([H:8])([H:9])[H:10]"
C       -1.27391618      -1.23092322       0.43238949
C       -0.44943723      -0.38578101      -0.51081117
C       -0.42956121       1.90096795      -0.16018275
N        0.13746889       0.77418979       0.12225242
C        1.52929279       0.41180885       0.25030355
C        1.24950352      -1.05085385      -0.43427258
N        1.80277500      -2.05168299      -0.72725530
H       -0.78322906      -1.33612595       1.40138750
H       -1.36334385      -2.23135242       0.00584964
H       -2.28299900      -0.83621142       0.58125779
H       -0.90923899      -0.23162748      -1.48675743
H        0.19303999       2.78754456      -0.17894767
H       -1.50365744       2.01816428      -0.12206877
H        2.20811760       0.89954470      -0.44666217
H        1.87518518       0.56233822       1.27351745
15
Frame=5 idx=007167 GeodesicLength=0.5370321475417179 rxn_smarts="[C:1]([C@@:2]1([H:11])[C:3]([H:12])([H:13])[N:4]1[C:5]([C:6]#[N:7])([H:14])[H:15])([H:8])([H:9])[H:10]>>[C:1]([C@@:2]([N+:4]([C-:3]([H:12])[H:13])=[C:5]([H:14])[H:15])([C:6]#[N:7])[H:11])([H:8])([H:9])[H:10]"
C       -1.28890208      -1.22417666       0.42843454
C       -0.45005343      -0.37033209      -0.49417928
C       -0.43889795       1.87705883      -0.16285468
N        0.14984990       0.76708981       0.16536820
C        1.54199872       0.42360952       0.26013905
C        1.25948478      -1.06006782      -0.43639074
N        1.81108166      -2.05469218      -0.74288654
H       -0.81421870      -1.33727916       1.40435309
H       -1.37410294      -2.22124890      -0.00664476
H       -2.30030535      -0.83128478       0.56323992
H       -0.88357673      -0.21840898      -1.48164056
H        0.17630441       2.76700606      -0.22199946
H       -1.51017777       1.99788723      -0.08643829
H        2.21129432       0.88936885      -0.45996824
H        1.91022116       0.59547028       1.27146772
15
Frame=6 idx=007167 GeodesicLength=0.6445932445462381 rxn_smarts="[C:1]([C@@:2]1([H:11])[C:3]([H:12])([H:13])[N:4]1[C:5]([C:6]#[N:7])([H:14])[H:15])([H:8])([H:9])[H:10]>>[C:1]([C@@:2]([N+:4]([C-:3]([H:12])[H:13])=[C:5]([H:14])[H:15])([C:6]#[N:7])[H:11])([H:8])([H:9])[H:10]"
C       -1.30360298      -1.21677333       0.42463740
C       -0.45056936      -0.35577276      -0.47832732
C       -0.44811472       1.85253173      -0.16268698
N        0.16257717       0.75965721       0.20497081
C        1.55429662       0.43567456       0.26916846
C        1.26965699      -1.06979199      -0.43956296
N        1.81993238      -2.05809409      -0.75869243
H       -0.84543893      -1.33612177       1.40753814
H       -1.38434628      -2.21110048      -0.01742480
H       -2.31703130      -0.82520071       0.54457152
H       -0.85831986      -0.20670436      -1.47641815
H        0.15904062       2.74469003      -0.25932465
H       -1.51563425       1.97803329      -0.05353445
H        2.21434249       0.87870798      -0.47281716
H        1.94321141       0.63026468       1.26790257
15
Frame=7 idx=007167 GeodesicLength=0.7522023895365316 rxn_smarts="[C:1]([C@@:2]1([H:11])[C:3]([H:12])([H:13])[N:4]1[C:5]([C:6]#[N:7])([H:14])[H:15])([H:8])([H:9])[H:10]>>[C:1]([C@@:2]([N+:4]([C-:3]([H:12])[H:13])=[C:5]([H:14])[H:15])([C:6]#[N:7])[H:11])([H:8])([H:9])[H:10]"
C       -1.31805236      -1.20888449       0.42100709
C       -0.45103476      -0.34207288      -0.46315422
C       -0.45702388       1.82767844      -0.16037362
N        0.17554709       0.75183131       0.24157738
C        1.56620103       0.44796545       0.27756716
C        1.27998706      -1.07999846      -0.44379346
N        1.82929907      -2.06182621      -0.77485022
H       -0.87689456      -1.33295167       1.41092783
H       -1.39410175      -2.20104296      -0.02662580
H       -2.33321948      -0.81826051       0.52532893
H       -0.83357301      -0.19628647      -1.47099301
H        0.14161727       2.72112538      -0.29161825
H       -1.52024966       1.95851477      -0.02297431
H        2.21734085       0.86754873      -0.48500931
H        1.97415709       0.66665958       1.26298381
15
Frame=8 idx=007167 GeodesicLength=0.8598489810566787 rxn_smarts="[C:1]([C@@:2]1([H:11])[C:3]([H:12])([H:13])[N:4]1[C:5]([C:6]#[N:7])([H:14])[H:15])([H:8])([H:9])[H:10]>>[C:1]([C@@:2]([N+:4]([C-:3]([H:12])[H:13])=[C:5]([H:14])[H:15])([C:6]#[N:7])[H:11])([H:8])([H:9])[H:10]"
C       -1.33227987      -1.20064277       0.41755593
C       -0.45148519      -0.32919988      -0.44857025
C       -0.46550857       1.80269022      -0.15640965
N        0.18868382       0.74357253       0.27560083
C        1.57772239       0.46045372       0.28548600
C        1.29044768      -1.09066110      -0.44910582
N        1.83915768      -2.06583465      -0.79152377
H       -0.90859868      -1.32799412       1.41451204
H       -1.40339157      -2.19118216      -0.03434768
H       -2.34890288      -0.81069969       0.50557515
H       -0.80940998      -0.18697260      -1.46529767
H        0.12431112       2.69669932      -0.31952110
H       -1.52415800       1.93928531       0.00556933
H        2.22037194       0.85588776      -0.49636897
H        2.00304011       0.70459812       1.25684563
15
Frame=9 idx=007167 GeodesicLength=0.9675187593064624 rxn_smarts="[C:1]([C@@:2]1([H:11])[C:3]([H:12])([H:13])[N:4]1[C:5]([C:6]#[N:7])([H:14])[H:15])([H:8])([H:9])[H:10]>>[C:1]([C@@:2]([N+:4]([C-:3]([H:12])[H:13])=[C:5]([H:14])[H:15])([C:6]#[N:7])[H:11])([H:8])([H:9])[H:10]"
C       -1.34631323      -1.19215039       0.41429915
C       -0.45194675      -0.31712325      -0.43449937
C       -0.47349370       1.77769200      -0.15117523
N        0.20193363       0.73485793       0.30736888
C        1.58887092       0.47311884       0.29304554
C        1.30101422      -1.10175620      -0.45553013
N        1.84948414      -2.07007111      -0.80884836
H       -0.94056812      -1.32141638       1.41828434
H       -1.41224088      -2.18160053      -0.04065669
H       -2.36410665      -0.80270454       0.48536016
H       -0.78588068      -0.17862214      -1.45928730
H        0.10733487       2.67170579      -0.34353154
H       -1.52743993       1.92031114       0.03234545
H        2.22351695       0.84371986      -0.50675478
H        2.02983523       0.74403899       1.24957988
15
Frame=10 idx=007167 GeodesicLength=1.0752095411451947 rxn_smarts="[C:1]([C@@:2]1([H:11])[C:3]([H:12])([H:13])[N:4]1[C:5]([C:6]#[N:7])([H:14])[H:15])([H:8])([H:9])[H:10]>>[C:1]([C@@:2]([N+:4]([C-:3]([H:12])[H:13])=[C:5]([H:14])[H:15])([C:6]#[N:7])[H:11])([H:8])([H:9])[H:10]"
C       -1.36017510      -1.18348311       0.41125325
C       -0.45243717      -0.30581586      -0.42086624
C       -0.48093206       1.75276314      -0.14493346
N        0.21526165       0.72565447       0.33716002
C        1.59965701       0.48593792       0.30036618
C        1.31166444      -1.11326430      -0.46310615
N        1.86025696      -2.07448218      -0.82698636
H       -0.97282583      -1.31333185       1.42223939
H       -1.42066309      -2.17235720      -0.04559053
H       -2.37884903      -0.79442182       0.46471570
H       -0.76302274      -0.17111820      -1.45292779
H        0.09084723       2.64634922      -0.36414444
H       -1.53015273       1.90158344       0.05756960
H        2.22686372       0.83103915      -0.51601881
H        2.05450675       0.78494720       1.24126963
15
Frame=11 idx=007167 GeodesicLength=1.182915294410362 rxn_smarts="[C:1]([C@@:2]1([H:11])[C:3]([H:12])([H:13])[N:4]1[C:5]([C:6]#[N:7])([H:14])[H:15])([H:8])([H:9])[H:10]>>[C:1]([C@@:2]([N+:4]([C-:3]([H:12])[H:13])=[C:5]([H:14])[H:15])([C:6]#[N:7])[H:11])([H:8])([H:9])[H:10]"
C       -1.37388753      -1.17469960       0.40843559
C       -0.45296802      -0.29525325      -0.40760640
C       -0.48779347       1.72795704      -0.13789254
N        0.22864541       0.71593798       0.36520299
C        1.61009143       0.49889240       0.30755026
C        1.32237682      -1.12516765      -0.47187687
N        1.87145343      -2.07901788      -0.84607780
H       -1.00539982      -1.30381898       1.42637295
H       -1.42867413      -2.16349961      -0.04916441
H       -2.39314303      -0.78597245       0.44366226
H       -0.74085637      -0.16436978      -1.44619830
H        0.07497456       2.62078651      -0.38175227
H       -1.53233081       1.88309080       0.08141445
H        2.23049902       0.81783266      -0.52403434
H        2.07701252       0.82730180       1.23196443
15
Frame=12 idx=007167 GeodesicLength=1.2906345379795394 rxn_smarts="[C:1]([C@@:2]1([H:11])[C:3]([H:12])([H:13])[N:4]1[C:5]([C:6]#[N:7])([H:14])[H:15])([H:8])([H:9])[H:10]>>[C:1]([C@@:2]([N+:4]([C-:3]([H:12])[H:13])=[C:5]([H:14])[H:15])([C:6]#[N:7])[H:11])([H:8])([H:9])[H:10]"
C       -1.38746918      -1.16584229       0.40586534
C       -0.45354549      -0.28541356      -0.39466244
C       -0.49405994       1.70330804      -0.13021282
N        0.24207434       0.70568434       0.39168899
C        1.62018493       0.51196371       0.31469692
C        1.33313119      -1.13744800      -0.48189621
N        1.88305230      -2.08362591      -0.86626555
H       -1.03831933      -1.29292101       1.43068116
H       -1.43628533      -2.15506294      -0.05137149
H       -2.40699603      -0.77745638       0.42221344
H       -0.71939430      -0.15830478      -1.43908732
H        0.05981397       2.59513041      -0.39670635
H       -1.53399703       1.86482621       0.10402845
H        2.23451554       0.80408136      -0.53067093
H        2.09729435       0.87108081       1.22169882
15
Frame=13 idx=007167 GeodesicLength=1.3983647392093446 rxn_smarts="[C:1]([C@@:2]1([H:11])[C:3]([H:12])([H:13])[N:4]1[C:5]([C:6]#[N:7])([H:14])[H:15])([H:8])([H:9])[H:10]>>[C:1]([C@@:2]([N+:4]([C-:3]([H:12])[H:13])=[C:5]([H:14])[H:15])([C:6]#[N:7])[H:11])([H:8])([H:9])[H:10]"
C       -1.40093501      -1.15694132       0.40356445
C       -0.45417174      -0.27627618      -0.38198421
C       -0.49972130       1.67883776      -0.12202253
N        0.25554540       0.69487447       0.41677772
C        1.62994749       0.52513442       0.32190170
C        1.34390726      -1.15008315      -0.49322891
N        1.89503201      -2.08824906      -0.88769087
H       -1.07161130      -1.28065508       1.43515950
H       -1.44350552      -2.14707341      -0.05218568
H       -2.42040859      -0.76895888       0.40038183
H       -0.69864358      -0.15286679      -1.43158987
H        0.04544072       2.56946147      -0.40931398
H       -1.53516673       1.84678424       0.12553043
H        2.23901174       0.78975860      -0.53579319
H        2.11527917       0.91625293       1.21049360
15
Frame=14 idx=007167 GeodesicLength=1.5061031934702196 rxn_smarts="[C:1]([C@@:2]1([H:11])[C:3]([H:12])([H:13])[N:4]1[C:5]([C:6]#[N:7])([H:14])[H:15])([H:8])([H:9])[H:10]>>[C:1]([C@@:2]([N+:4]([C-:3]([H:12])[H:13])=[C:5]([H:14])[H:15])([C:6]#[N:7])[H:11])([H:8])([H:9])[H:10]"
C       -1.41429750      -1.14801664       0.40155357
C       -0.45484476      -0.26782163      -0.36952518
C       -0.50477396       1.65455846      -0.11341703
N        0.26905984       0.68348917       0.44060789
C        1.63938918       0.53838968       0.32925602
C        1.35468384      -1.16304909      -0.50594329
N        1.90736953      -2.09282761      -0.91048809
H       -1.10530843      -1.26701152       1.43979950
H       -1.45033649      -2.13954957      -0.05156453
H       -2.43337608      -0.76055628       0.37816517
H       -0.67860199      -0.14800909      -1.42370405
H        0.03191047       2.54383197      -0.41985326
H       -1.53585076       1.82896029       0.14603003
H        2.24408679       0.77482828      -0.53926579
H        2.13089030       0.96278358       1.19834905
15
Frame=15 idx=007167 GeodesicLength=1.6138511828497828 rxn_smarts="[C:1]([C@@:2]1([H:11])[C:3]([H:12])([H:13])[N:4]1[C:5]([C:6]#[N:7])([H:14])[H:15])([H:8])([H:9])[H:10]>>[C:1]([C@@:2]([N+:4]([C-:3]([H:12])[H:13])=[C:5]([H:14])[H:15])([C:6]#[N:7])[H:11])([H:8])([H:9])[H:10]"
C       -1.42756584      -1.13907936       0.39985539
C       -0.45555927      -0.26003213      -0.35724399
C       -0.50921897       1.63047594      -0.10447410
N        0.28262402       0.67151036       0.46329728
C        1.64851834       0.55171571       0.33685182
C        1.36543933      -1.17631709      -0.52011745
N        1.92004226      -2.09729464      -0.93479584
H       -1.13944514      -1.25195357       1.44459099
H       -1.45677298      -2.13250411      -0.04944514
H       -2.44588848      -0.75232008       0.35555471
H       -0.65926474      -0.14369577      -1.41543233
H        0.01926390       2.51827415      -0.42857264
H       -1.53605687       1.81135100       0.16562135
H        2.24984559       0.75924181      -0.54093996
H        2.14403885       1.01062778       1.18524992
15
Frame=16 idx=007167 GeodesicLength=1.7216121636799908 rxn_smarts="[C:1]([C@@:2]1([H:11])[C:3]([H:12])([H:13])[N:4]1[C:5]([C:6]#[N:7])([H:14])[H:15])([H:8])([H:9])[H:10]>>[C:1]([C@@:2]([N+:4]([C-:3]([H:12])[H:13])=[C:5]([H:14])[H:15])([C:6]#[N:7])[H:11])([H:8])([H:9])[H:10]"
C       -1.44074609      -1.13013374       0.39849435
C       -0.45630765      -0.25289078      -0.34510457
C       -0.51306127       1.60659166      -0.09525868
N        0.29624706       0.65892328       0.48494569
C        1.65734158       0.56510078       0.34478013
C        1.37615100      -1.18985150      -0.53583992
N        1.93302669      -2.10157604      -0.96075255
H       -1.17405877      -1.23541793       1.44952061
H       -1.46280120      -2.12594601      -0.04574291
H       -2.45793049      -0.74432289       0.33253344
H       -0.64062527      -0.13989929      -1.40678081
H        0.00752981       2.49280786      -0.43568719
H       -1.53579193       1.79395264       0.18438268
H        2.25639878       0.74293492      -0.54065241
H        2.15462774       1.05972704       1.17116216
