11
Frame=0 idx=011305 GeodesicLength=0.0 rxn_smarts="[N:1](=[c:2]1/[c:3]([H:9])[c:4]([H:10])[c:5]([H:11])[n:6][o:7]1)\[H:8]>>[N:1]1([H:8])[C-:2]=[O+:7][N:6]=[C:5]([H:11])[C:4]([H:10])=[C:3]1[H:9]"
N        1.63371205      -0.14452014       0.28142204
C        1.11979574       0.32481160      -0.82441155
C        0.43313534      -0.97405850      -0.54138672
C       -0.82163175      -0.71685188       0.00024990
C       -1.10207027       0.61767702       0.41868395
N       -0.50609843       1.71409515       0.07555226
O        0.42979928       1.46841458      -0.99877708
H        1.45883243       0.35511192       1.16005224
H        0.78202412      -1.94016923      -0.86905734
H       -1.55418735      -1.49920382       0.13458660
H       -1.87331116       0.79469331       1.16308572
11
Frame=1 idx=011305 GeodesicLength=0.059803039784648175 rxn_smarts="[N:1](=[c:2]1/[c:3]([H:9])[c:4]([H:10])[c:5]([H:11])[n:6][o:7]1)\[H:8]>>[N:1]1([H:8])[C-:2]=[O+:7][N:6]=[C:5]([H:11])[C:4]([H:10])=[C:3]1[H:9]"
N        1.65400900      -0.14606806       0.26635069
C        1.12341655       0.32790631      -0.83172994
C        0.42842045      -0.97793508      -0.53085028
C       -0.82259011      -0.72048471       0.00988209
C       -1.10540985       0.61470812       0.42848954
N       -0.50773452       1.71066565       0.09082902
O        0.43458567       1.47556754      -0.97647023
H        1.49630096       0.36530922       1.14103671
H        0.77329182      -1.94624790      -0.85730941
H       -1.56280423      -1.49886966       0.12563515
H       -1.91148574       0.79544857       1.13413666
11
Frame=2 idx=011305 GeodesicLength=0.11938889726729891 rxn_smarts="[N:1](=[c:2]1/[c:3]([H:9])[c:4]([H:10])[c:5]([H:11])[n:6][o:7]1)\[H:8]>>[N:1]1([H:8])[C-:2]=[O+:7][N:6]=[C:5]([H:11])[C:4]([H:10])=[C:3]1[H:9]"
N        1.67425437      -0.14740684       0.25068550
C        1.12649233       0.33122565      -0.83908693
C        0.42378102      -0.98178723      -0.51942614
C       -0.82369412      -0.72421546       0.02004487
C       -1.10906485       0.61165043       0.43890064
N       -0.50937374       1.70701443       0.10676851
O        0.43908069       1.48243128      -0.95360590
H        1.53402567       0.37535324       1.12118609
H        0.76475407      -1.95218137      -0.84482986
H       -1.57173562      -1.49813317       0.11571324
H       -1.94851981       0.79604905       1.10365001
11
Frame=3 idx=011305 GeodesicLength=0.1787413864847446 rxn_smarts="[N:1](=[c:2]1/[c:3]([H:9])[c:4]([H:10])[c:5]([H:11])[n:6][o:7]1)\[H:8]>>[N:1]1([H:8])[C-:2]=[O+:7][N:6]=[C:5]([H:11])[C:4]([H:10])=[C:3]1[H:9]"
N        1.69424764      -0.14856747       0.23458815
C        1.12908728       0.33479519      -0.84639266
C        0.41920543      -0.98558272      -0.50720218
C       -0.82509266      -0.72799999       0.03034418
C       -1.11328678       0.60856114       0.44942128
N       -0.51108890       1.70317622       0.12314201
O        0.44344531       1.48903949      -0.93021762
H        1.57159209       0.38516706       1.10065364
H        0.75644078      -1.95792613      -0.83171411
H       -1.58075785      -1.49711477       0.10518824
H       -1.98379234       0.79645197       1.07218906
11
Frame=4 idx=011305 GeodesicLength=0.2378666110868502 rxn_smarts="[N:1](=[c:2]1/[c:3]([H:9])[c:4]([H:10])[c:5]([H:11])[n:6][o:7]1)\[H:8]>>[N:1]1([H:8])[C-:2]=[O+:7][N:6]=[C:5]([H:11])[C:4]([H:10])=[C:3]1[H:9]"
N        1.71383936      -0.14959823       0.21819760
C        1.13128267       0.33864665      -0.85356879
C        0.41468046      -0.98928622      -0.49429679
C       -0.82690831      -0.73178968       0.04040128
C       -1.11828111       0.60550190       0.45956951
N       -0.51292012       1.69919356       0.13976758
O        0.44784405       1.49543794      -0.90630414
H        1.60867570       0.39464809       1.07960213
H        0.74835416      -1.96343101      -0.81813773
H       -1.58962084      -1.49601322       0.09456597
H       -2.01694601       0.79669024       1.04020337
11
Frame=5 idx=011305 GeodesicLength=0.2967631641147683 rxn_smarts="[N:1](=[c:2]1/[c:3]([H:9])[c:4]([H:10])[c:5]([H:11])[n:6][o:7]1)\[H:8]>>[N:1]1([H:8])[C-:2]=[O+:7][N:6]=[C:5]([H:11])[C:4]([H:10])=[C:3]1[H:9]"
N        1.73292938      -0.15048857       0.20167051
C        1.13316413       0.34276554      -0.86057255
C        0.41022713      -0.99289280      -0.48068530
C       -0.82920133      -0.73556455       0.05002135
C       -1.12419709       0.60252446       0.46887569
N       -0.51493750       1.69509677       0.15631713
O        0.45238043       1.50158614      -0.88201081
H        1.64505232       0.40384864       1.05815201
H        0.74053698      -1.96868739      -0.80403637
H       -1.59837010      -1.49484178       0.08364199
H       -2.04758436       0.79665354       1.00862636
11
Frame=6 idx=011305 GeodesicLength=0.3553847821365019 rxn_smarts="[N:1](=[c:2]1/[c:3]([H:9])[c:4]([H:10])[c:5]([H:11])[n:6][o:7]1)\[H:8]>>[N:1]1([H:8])[C-:2]=[O+:7][N:6]=[C:5]([H:11])[C:4]([H:10])=[C:3]1[H:9]"
N        1.75140773      -0.15133088       0.18515312
C        1.13488486       0.34719497      -0.86732962
C        0.40583575      -0.99634385      -0.46659749
C       -0.83207514      -0.73924113       0.05870909
C       -1.13116920       0.59970099       0.47680930
N       -0.51717710       1.69093378       0.17258276
O        0.45727993       1.50754324      -0.85729258
H        1.68042569       0.41257679       1.03653773
H        0.73298335      -1.97360640      -0.78975107
H       -1.60665693      -1.49396450       0.07328313
H       -2.07573893       0.79653699       0.97789563
11
Frame=7 idx=011305 GeodesicLength=0.4138465946007847 rxn_smarts="[N:1](=[c:2]1/[c:3]([H:9])[c:4]([H:10])[c:5]([H:11])[n:6][o:7]1)\[H:8]>>[N:1]1([H:8])[C-:2]=[O+:7][N:6]=[C:5]([H:11])[C:4]([H:10])=[C:3]1[H:9]"
N        1.76933649      -0.15211959       0.16870537
C        1.13654176       0.35191537      -0.87384189
C        0.40155170      -0.99967153      -0.45197272
C       -0.83552056      -0.74283592       0.06645493
C       -1.13919707       0.59706440       0.48318027
N       -0.51970631       1.68675387       0.18833209
O        0.46257815       1.51327350      -0.83226221
H        1.71483701       0.42090241       1.01480867
H        0.72574095      -1.97823577      -0.77522449
H       -1.61464307      -1.49338255       0.06314964
H       -2.10151904       0.79633579       0.94867034
11
Frame=8 idx=011305 GeodesicLength=0.4721528669962844 rxn_smarts="[N:1](=[c:2]1/[c:3]([H:9])[c:4]([H:10])[c:5]([H:11])[n:6][o:7]1)\[H:8]>>[N:1]1([H:8])[C-:2]=[O+:7][N:6]=[C:5]([H:11])[C:4]([H:10])=[C:3]1[H:9]"
N        1.78693030      -0.15286187       0.15199741
C        1.13796697       0.35693012      -0.88019962
C        0.39738717      -1.00288102      -0.43664956
C       -0.83933163      -0.74640963       0.07381583
C       -1.14799867       0.59454371       0.48858516
N       -0.52235859       1.68247054       0.20405899
O        0.46808363       1.51872429      -0.80673261
H        1.74883753       0.42882165       0.99268343
H        0.71871260      -1.98256019      -0.76044827
H       -1.62236312      -1.49297493       0.05307530
H       -2.12586619       0.79619733       0.91981394
11
Frame=9 idx=011305 GeodesicLength=0.5303008444823042 rxn_smarts="[N:1](=[c:2]1/[c:3]([H:9])[c:4]([H:10])[c:5]([H:11])[n:6][o:7]1)\[H:8]>>[N:1]1([H:8])[C-:2]=[O+:7][N:6]=[C:5]([H:11])[C:4]([H:10])=[C:3]1[H:9]"
N        1.80424240      -0.15361462       0.13488296
C        1.13912322       0.36230634      -0.88641279
C        0.39333730      -1.00592823      -0.42064466
C       -0.84344755      -0.74995509       0.08090355
C       -1.15750513       0.59212529       0.49314970
N       -0.52507223       1.67804830       0.21997884
O        0.47381505       1.52393672      -0.78053063
H        1.78257394       0.43618684       0.97009100
H        0.71183492      -1.98649629      -0.74559851
H       -1.62967744      -1.49286825       0.04350880
H       -2.14922448       0.79625898       0.89067173
11
Frame=10 idx=011305 GeodesicLength=0.5882315383542583 rxn_smarts="[N:1](=[c:2]1/[c:3]([H:9])[c:4]([H:10])[c:5]([H:11])[n:6][o:7]1)\[H:8]>>[N:1]1([H:8])[C-:2]=[O+:7][N:6]=[C:5]([H:11])[C:4]([H:10])=[C:3]1[H:9]"
N        1.82123299      -0.15435546       0.11744101
C        1.14004097       0.36798982      -0.89244865
C        0.38943058      -1.00883528      -0.40386275
C       -0.84785225      -0.75347059       0.08769774
C       -1.16767948       0.58982880       0.49676589
N       -0.52793509       1.67349503       0.23586961
O        0.47976497       1.52879588      -0.75374630
H        1.81600446       0.44312096       0.94706115
H        0.70512302      -1.99006041      -0.73061041
H       -1.63667892      -1.49297289       0.03405113
H       -2.17145124       0.79646414       0.86178160
11
Frame=11 idx=011305 GeodesicLength=0.6460825389949207 rxn_smarts="[N:1](=[c:2]1/[c:3]([H:9])[c:4]([H:10])[c:5]([H:11])[n:6][o:7]1)\[H:8]>>[N:1]1([H:8])[C-:2]=[O+:7][N:6]=[C:5]([H:11])[C:4]([H:10])=[C:3]1[H:9]"
N        1.83798336      -0.15512697       0.09951973
C        1.14068674       0.37406058      -0.89831756
C        0.38567103      -1.01158650      -0.38627632
C       -0.85250121      -0.75698051       0.09435640
C       -1.17847152       0.58764108       0.49959639
N       -0.53092209       1.66880753       0.25191315
O        0.48593876       1.53336351      -0.72622700
H        1.84932359       0.44951835       0.92348744
H        0.69853716      -1.99322485      -0.71556909
H       -1.64333286      -1.49337416       0.02494279
H       -2.19291295       0.79690196       0.83257406
11
Frame=12 idx=011305 GeodesicLength=0.703852444322448 rxn_smarts="[N:1](=[c:2]1/[c:3]([H:9])[c:4]([H:10])[c:5]([H:11])[n:6][o:7]1)\[H:8]>>[N:1]1([H:8])[C-:2]=[O+:7][N:6]=[C:5]([H:11])[C:4]([H:10])=[C:3]1[H:9]"
N        1.85453261      -0.15593085       0.08094713
C        1.14094023       0.38052988      -0.90402957
C        0.38207065      -1.01418338      -0.36775314
C       -0.85730562      -0.76052182       0.10116491
C       -1.18980607       0.58553521       0.50186211
N       -0.53399539       1.66393429       0.26834797
O        0.49225869       1.53758901      -0.69782825
H        1.88275071       0.45539770       0.89918798
H        0.69203294      -1.99596982      -0.70045075
H       -1.64964504      -1.49399706       0.01605526
H       -2.21383371       0.79761684       0.80249636
11
Frame=13 idx=011305 GeodesicLength=0.7615698130264501 rxn_smarts="[N:1](=[c:2]1/[c:3]([H:9])[c:4]([H:10])[c:5]([H:11])[n:6][o:7]1)\[H:8]>>[N:1]1([H:8])[C-:2]=[O+:7][N:6]=[C:5]([H:11])[C:4]([H:10])=[C:3]1[H:9]"
N        1.87087325      -0.15678769       0.06159879
C        1.14072803       0.38745524      -0.90956742
C        0.37863061      -1.01660576      -0.34823878
C       -0.86221727      -0.76411171       0.10827383
C       -1.20165617       0.58350276       0.50364853
N       -0.53715861       1.65884942       0.28530491
O        0.49872712       1.54147012      -0.66839581
H        1.91638548       0.46070199       0.87405102
H        0.68556786      -1.99825250      -0.68529061
H       -1.65556779      -1.49486574       0.00749567
H       -2.23431252       0.79864386       0.77111988
11
Frame=14 idx=011305 GeodesicLength=0.8191621792078407 rxn_smarts="[N:1](=[c:2]1/[c:3]([H:9])[c:4]([H:10])[c:5]([H:11])[n:6][o:7]1)\[H:8]>>[N:1]1([H:8])[C-:2]=[O+:7][N:6]=[C:5]([H:11])[C:4]([H:10])=[C:3]1[H:9]"
N        1.88691272      -0.15771264       0.04149770
C        1.14005390       0.39485065      -0.91488120
C        0.37535839      -1.01883525      -0.32769328
C       -0.86721535      -0.76773046       0.11568627
C       -1.21397064       0.58154222       0.50495146
N       -0.54048427       1.65354227       0.30266486
O        0.50537053       1.54493074      -0.63790462
H        1.95014918       0.46543191       0.84806273
H        0.67911977      -2.00000917      -0.67014022
H       -1.66106948      -1.49595785      -0.00074473
H       -2.25422475       0.79994759       0.73850103
11
Frame=15 idx=011305 GeodesicLength=0.8766493966054756 rxn_smarts="[N:1](=[c:2]1/[c:3]([H:9])[c:4]([H:10])[c:5]([H:11])[n:6][o:7]1)\[H:8]>>[N:1]1([H:8])[C-:2]=[O+:7][N:6]=[C:5]([H:11])[C:4]([H:10])=[C:3]1[H:9]"
N        1.90259241      -0.15872909       0.02060275
C        1.13890231       0.40277690      -0.91993026
C        0.37225252      -1.02085066      -0.30612533
C       -0.87227470      -0.77137710       0.12343051
C       -1.22672977       0.57966042       0.50575051
N       -0.54405004       1.64802415       0.32035900
O        0.51223684       1.54795494      -0.60624455
H        1.98401060       0.46952285       0.82119381
H        0.67267687      -2.00120177      -0.65503049
H       -1.66610642      -1.49731284      -0.00856326
H       -2.27351061       0.80153219       0.70455732
11
Frame=16 idx=011305 GeodesicLength=0.9340915315548792 rxn_smarts="[N:1](=[c:2]1/[c:3]([H:9])[c:4]([H:10])[c:5]([H:11])[n:6][o:7]1)\[H:8]>>[N:1]1([H:8])[C-:2]=[O+:7][N:6]=[C:5]([H:11])[C:4]([H:10])=[C:3]1[H:9]"
N        1.91786783      -0.15986212      -0.00122402
C        1.13718355       0.41132620      -0.92467447
C        0.36930479      -1.02263412      -0.28350664
C       -0.87734124      -0.77507226       0.13170367
C       -1.23991871       0.57784999       0.50614260
N       -0.54786072       1.64228204       0.33856084
O        0.51932865       1.55053028      -0.57319386
H        2.01808459       0.47292006       0.79329126
H        0.66617874      -2.00178249      -0.64002513
H       -1.67062503      -1.49897158      -0.01577504
H       -2.29220245       0.80341400       0.66870079
