12
Frame=0 idx=007497 GeodesicLength=0.0 rxn_smarts="[O:1]=[C:2]([C:3]#[C:4][H:8])[C@@:5]1([H:9])[C:6]([H:10])([H:11])[N:7]1[H:12]>>[O:1]1[C:2]([C:3]#[C:4][H:8])=[C:5]([H:9])[C:6]([H:10])([H:11])[N:7]1[H:12]"
O        0.21782815       0.75153504       1.41443239
C        0.58337799       0.31777695       0.30492395
C        1.97473480      -0.02655483       0.08701610
C        3.13019566      -0.28098388      -0.09656311
C       -0.31417167       0.01382037      -0.71581406
C       -1.71679441      -0.26296545      -0.23066859
N       -1.84150350       0.83593902       0.60891914
H        4.15990135      -0.50356283      -0.25143019
H       -0.04411299      -0.06457952      -1.75895421
H       -1.89585027      -1.26598172       0.16923417
H       -2.33508007      -0.07754980      -1.11954894
H       -1.91852508       0.56310668       1.58845331
12
Frame=1 idx=007497 GeodesicLength=0.04918474812312504 rxn_smarts="[O:1]=[C:2]([C:3]#[C:4][H:8])[C@@:5]1([H:9])[C:6]([H:10])([H:11])[N:7]1[H:12]>>[O:1]1[C:2]([C:3]#[C:4][H:8])=[C:5]([H:9])[C:6]([H:10])([H:11])[N:7]1[H:12]"
O        0.21562249       0.73990934       1.41504109
C        0.58203131       0.28012457       0.31397212
C        1.97720235      -0.03266962       0.08325816
C        3.13556196      -0.26886304      -0.10636903
C       -0.32140286       0.01319547      -0.71223364
C       -1.72405220      -0.26548506      -0.23475942
N       -1.81783057       0.84515763       0.59924850
H        4.16928255      -0.48775503      -0.23885986
H       -0.04898594      -0.05479270      -1.75550069
H       -1.90758548      -1.26177869       0.17788120
H       -2.34801628      -0.08015708      -1.11889696
H       -1.91182732       0.57311420       1.57721853
12
Frame=2 idx=007497 GeodesicLength=0.09831585635571934 rxn_smarts="[O:1]=[C:2]([C:3]#[C:4][H:8])[C@@:5]1([H:9])[C:6]([H:10])([H:11])[N:7]1[H:12]>>[O:1]1[C:2]([C:3]#[C:4][H:8])=[C:5]([H:9])[C:6]([H:10])([H:11])[N:7]1[H:12]"
O        0.21335847       0.72947782       1.41507444
C        0.58050177       0.24267002       0.32329488
C        1.97959560      -0.03619076       0.08019338
C        3.14077780      -0.25357960      -0.11483361
C       -0.32782179       0.01198887      -0.70807304
C       -1.73079276      -0.26815849      -0.23889912
N       -1.79441718       0.85317532       0.58970699
H        4.17588625      -0.47631939      -0.22859993
H       -0.05284879      -0.04525685      -1.75132830
H       -1.91923826      -1.25771832       0.18587780
H       -2.36005908      -0.08247299      -1.11841971
H       -1.90494202       0.58238436       1.56600622
12
Frame=3 idx=007497 GeodesicLength=0.1473505998379273 rxn_smarts="[O:1]=[C:2]([C:3]#[C:4][H:8])[C@@:5]1([H:9])[C:6]([H:10])([H:11])[N:7]1[H:12]>>[O:1]1[C:2]([C:3]#[C:4][H:8])=[C:5]([H:9])[C:6]([H:10])([H:11])[N:7]1[H:12]"
O        0.21127138       0.71995469       1.41434178
C        0.57900655       0.20824942       0.33141553
C        1.98046491      -0.04471476       0.07971938
C        3.14410110      -0.24346741      -0.12033450
C       -0.33368975       0.01133174      -0.70396068
C       -1.73696489      -0.27037591      -0.24306348
N       -1.77122162       0.86054157       0.58031188
H        4.18207866      -0.45884714      -0.22191754
H       -0.05595650      -0.03663005      -1.74697591
H       -1.92993236      -1.25323309       0.19343725
H       -2.37160358      -0.08416962      -1.11784042
H       -1.89755390       0.59136056       1.55486672
12
Frame=4 idx=007497 GeodesicLength=0.19630298124441894 rxn_smarts="[O:1]=[C:2]([C:3]#[C:4][H:8])[C@@:5]1([H:9])[C:6]([H:10])([H:11])[N:7]1[H:12]>>[O:1]1[C:2]([C:3]#[C:4][H:8])=[C:5]([H:9])[C:6]([H:10])([H:11])[N:7]1[H:12]"
O        0.20912273       0.71249163       1.41279115
C        0.57752713       0.17912587       0.33766606
C        1.98043188      -0.05471152       0.08032939
C        3.14619751      -0.23647203      -0.12390595
C       -0.33930978       0.01243492      -0.70035271
C       -1.74227911      -0.27282907      -0.24710239
N       -1.74906188       0.86651175       0.57158898
H        4.18708623      -0.44194601      -0.21622058
H       -0.05892341      -0.02740497      -1.74302317
H       -1.93796353      -1.24940341       0.20061452
H       -2.38299754      -0.08657814      -1.11666755
H       -1.88983024       0.59878097       1.54428226
12
Frame=5 idx=007497 GeodesicLength=0.24518815969814745 rxn_smarts="[O:1]=[C:2]([C:3]#[C:4][H:8])[C@@:5]1([H:9])[C:6]([H:10])([H:11])[N:7]1[H:12]>>[O:1]1[C:2]([C:3]#[C:4][H:8])=[C:5]([H:9])[C:6]([H:10])([H:11])[N:7]1[H:12]"
O        0.20688553       0.70691418       1.41062788
C        0.57608189       0.15452119       0.34240117
C        1.97990739      -0.06492610       0.08147312
C        3.14745993      -0.23156914      -0.12606965
C       -0.34473592       0.01499558      -0.69715717
C       -1.74686527      -0.27555149      -0.25102039
N       -1.72796303       0.87121966       0.56349689
H        4.19099358      -0.42674045      -0.21101570
H       -0.06181893      -0.01765725      -1.73941788
H       -1.94371716      -1.24626049       0.20737625
H       -2.39427865      -0.08963471      -1.11493615
H       -1.88194937       0.60468902       1.53424163
12
Frame=6 idx=007497 GeodesicLength=0.2939924538575631 rxn_smarts="[O:1]=[C:2]([C:3]#[C:4][H:8])[C@@:5]1([H:9])[C:6]([H:10])([H:11])[N:7]1[H:12]>>[O:1]1[C:2]([C:3]#[C:4][H:8])=[C:5]([H:9])[C:6]([H:10])([H:11])[N:7]1[H:12]"
O        0.20448942       0.70430436       1.40757158
C        0.57480560       0.13596451       0.34516599
C        1.97900493      -0.07331302       0.08251693
C        3.14768780      -0.22901228      -0.12654935
C       -0.35003815       0.01969164      -0.69459147
C       -1.75044315      -0.27894096      -0.25470435
N       -1.70837381       0.87415878       0.55634369
H        4.19321289      -0.41612374      -0.20555901
H       -0.06498555      -0.00628134      -1.73648473
H       -1.94608053      -1.24442335       0.21366616
H       -2.40544309      -0.09424504      -1.11238864
H       -1.87383636       0.60822044       1.52501320
12
Frame=7 idx=007497 GeodesicLength=0.3427324977516637 rxn_smarts="[O:1]=[C:2]([C:3]#[C:4][H:8])[C@@:5]1([H:9])[C:6]([H:10])([H:11])[N:7]1[H:12]>>[O:1]1[C:2]([C:3]#[C:4][H:8])=[C:5]([H:9])[C:6]([H:10])([H:11])[N:7]1[H:12]"
O        0.20197246       0.70259917       1.40435349
C        0.57352509       0.11964596       0.34727288
C        1.97804991      -0.08092774       0.08374238
C        3.14777298      -0.22707676      -0.12638562
C       -0.35516746       0.02486550      -0.69208985
C       -1.75365996      -0.28240882      -0.25836010
N       -1.68958442       0.87642877       0.54957078
H        4.19494557      -0.40708864      -0.20060053
H       -0.06800280       0.00496748      -1.73357858
H       -1.94752643      -1.24292796       0.21954301
H       -2.41643471      -0.09899457      -1.10958593
H       -1.86589023       0.61091761       1.51611807
12
Frame=8 idx=007497 GeodesicLength=0.3914033089359997 rxn_smarts="[O:1]=[C:2]([C:3]#[C:4][H:8])[C@@:5]1([H:9])[C:6]([H:10])([H:11])[N:7]1[H:12]>>[O:1]1[C:2]([C:3]#[C:4][H:8])=[C:5]([H:9])[C:6]([H:10])([H:11])[N:7]1[H:12]"
O        0.19954258       0.70107146       1.40108097
C        0.57226165       0.10428529       0.34906779
C        1.97699621      -0.08923428       0.08529388
C        3.14764379      -0.22634301      -0.12589200
C       -0.36014568       0.02986416      -0.68960964
C       -1.75676569      -0.28563498      -0.26201533
N       -1.67114603       0.87843249       0.54300339
H        4.19674985      -0.39676893      -0.19609651
H       -0.07084485       0.01543648      -1.73061537
H       -1.94903645      -1.24122097       0.22503778
H       -2.42729964      -0.10322711      -1.10662620
H       -1.85795575       0.61333940       1.50737123
12
Frame=9 idx=007497 GeodesicLength=0.44004708607194226 rxn_smarts="[O:1]=[C:2]([C:3]#[C:4][H:8])[C@@:5]1([H:9])[C:6]([H:10])([H:11])[N:7]1[H:12]>>[O:1]1[C:2]([C:3]#[C:4][H:8])=[C:5]([H:9])[C:6]([H:10])([H:11])[N:7]1[H:12]"
O        0.19723008       0.69926430       1.39789778
C        0.57096601       0.08916119       0.35074701
C        1.97583536      -0.09899494       0.08745031
C        3.14734541      -0.22665496      -0.12504156
C       -0.36491865       0.03437937      -0.68702288
C       -1.75986744      -0.28845079      -0.26573082
N       -1.65283558       0.88041228       0.53652040
H        4.19870117      -0.38402030      -0.19251982
H       -0.07332439       0.02472303      -1.72747155
H       -1.95107799      -1.23906638       0.23018135
H       -2.43798921      -0.10662897      -1.10366633
H       -1.85006477       0.61587617       1.49865609
12
Frame=10 idx=007497 GeodesicLength=0.4886529179094279 rxn_smarts="[O:1]=[C:2]([C:3]#[C:4][H:8])[C@@:5]1([H:9])[C:6]([H:10])([H:11])[N:7]1[H:12]>>[O:1]1[C:2]([C:3]#[C:4][H:8])=[C:5]([H:9])[C:6]([H:10])([H:11])[N:7]1[H:12]"
O        0.19511187       0.69695122       1.39484562
C        0.56961216       0.07386041       0.35243612
C        1.97451410      -0.11087634       0.09033324
C        3.14678336      -0.22858678      -0.12385193
C       -0.36946790       0.03826064      -0.68433710
C       -1.76304973      -0.29073039      -0.26952208
N       -1.63447658       0.88249319       0.53004935
H        4.20096477      -0.36748617      -0.18997184
H       -0.07537949       0.03261094      -1.72414525
H       -1.95393234      -1.23626572       0.23500549
H       -2.44853381      -0.10897187      -1.10074235
H       -1.84214639       0.61874086       1.48990074
12
Frame=11 idx=007497 GeodesicLength=0.5372843490925457 rxn_smarts="[O:1]=[C:2]([C:3]#[C:4][H:8])[C@@:5]1([H:9])[C:6]([H:10])([H:11])[N:7]1[H:12]>>[O:1]1[C:2]([C:3]#[C:4][H:8])=[C:5]([H:9])[C:6]([H:10])([H:11])[N:7]1[H:12]"
O        0.19397110       0.69220769       1.39194864
C        0.56812514       0.05563060       0.35436796
C        1.97265113      -0.12990038       0.09437244
C        3.14537078      -0.23921275      -0.12203373
C       -0.37376315       0.04016666      -0.68150403
C       -1.76686761      -0.29137699      -0.27347351
N       -1.61474179       0.88570981       0.52327229
H        4.20447107      -0.33451003      -0.18876891
H       -0.07681821       0.03714987      -1.72054090
H       -1.95983077      -1.23124083       0.23965097
H       -2.45905950      -0.10818829      -1.09808703
H       -1.83350819       0.62356465       1.48079581
12
Frame=12 idx=007497 GeodesicLength=0.5858779221825627 rxn_smarts="[O:1]=[C:2]([C:3]#[C:4][H:8])[C@@:5]1([H:9])[C:6]([H:10])([H:11])[N:7]1[H:12]>>[O:1]1[C:2]([C:3]#[C:4][H:8])=[C:5]([H:9])[C:6]([H:10])([H:11])[N:7]1[H:12]"
O        0.19168337       0.69045660       1.38910137
C        0.56675145       0.04184261       0.35606032
C        1.97132844      -0.14191728       0.09843065
C        3.14472974      -0.24167842      -0.11899977
C       -0.37768672       0.04380062      -0.67866282
C       -1.76957082      -0.29341668      -0.27741127
N       -1.59704063       0.88719830       0.51698805
H        4.20501127      -0.31793392      -0.18929263
H       -0.07790754       0.04402484      -1.71691896
H       -1.96243772      -1.22825511       0.24380535
H       -2.46895043      -0.11005484      -1.09519017
H       -1.82591040       0.62593327       1.47208986
12
Frame=13 idx=007497 GeodesicLength=0.6344319857911679 rxn_smarts="[O:1]=[C:2]([C:3]#[C:4][H:8])[C@@:5]1([H:9])[C:6]([H:10])([H:11])[N:7]1[H:12]>>[O:1]1[C:2]([C:3]#[C:4][H:8])=[C:5]([H:9])[C:6]([H:10])([H:11])[N:7]1[H:12]"
O        0.18936264       0.68977226       1.38592977
C        0.56549560       0.02989589       0.35713475
C        1.97016495      -0.15161602       0.10175463
C        3.14417437      -0.24301724      -0.11620707
C       -0.38165771       0.04798568      -0.67606469
C       -1.77196493      -0.29581799      -0.28123716
N       -1.58015732       0.88799865       0.51112565
H        4.20514334      -0.30558216      -0.18855262
H       -0.07932495       0.05159224      -1.71360635
H       -1.96393137      -1.22589613       0.24774074
H       -2.47892283      -0.11259480      -1.09180070
H       -1.81838180       0.62727962       1.46378305
12
Frame=14 idx=007497 GeodesicLength=0.6829695000998682 rxn_smarts="[O:1]=[C:2]([C:3]#[C:4][H:8])[C@@:5]1([H:9])[C:6]([H:10])([H:11])[N:7]1[H:12]>>[O:1]1[C:2]([C:3]#[C:4][H:8])=[C:5]([H:9])[C:6]([H:10])([H:11])[N:7]1[H:12]"
O        0.18700911       0.68976507       1.38256689
C        0.56430745       0.01917769       0.35781150
C        1.96909425      -0.15996401       0.10474966
C        3.14365325      -0.24372646      -0.11347274
C       -0.38560207       0.05241642      -0.67358859
C       -1.77414138      -0.29838565      -0.28501304
N       -1.56388093       0.88835019       0.50554748
H        4.20504571      -0.29570425      -0.18727398
H       -0.08085362       0.05942477      -1.71043577
H       -1.96479041      -1.22387676       0.25144933
H       -2.48889097      -0.11544114      -1.08808096
H       -1.81095040       0.62796412       1.45574024
12
Frame=15 idx=007497 GeodesicLength=0.7314904007041576 rxn_smarts="[O:1]=[C:2]([C:3]#[C:4][H:8])[C@@:5]1([H:9])[C:6]([H:10])([H:11])[N:7]1[H:12]>>[O:1]1[C:2]([C:3]#[C:4][H:8])=[C:5]([H:9])[C:6]([H:10])([H:11])[N:7]1[H:12]"
O        0.18467152       0.69031850       1.37900270
C        0.56319046       0.00952548       0.35808620
C        1.96810350      -0.16717546       0.10735325
C        3.14316654      -0.24372358      -0.11095719
C       -0.38955863       0.05703227      -0.67125857
C       -1.77614791      -0.30109287      -0.28873014
N       -1.54814846       0.88831516       0.50023179
H        4.20487194      -0.28807324      -0.18520681
H       -0.08255716       0.06750764      -1.70744121
H       -1.96511122      -1.22214122       0.25497021
H       -2.49890747      -0.11855688      -1.08399706
H       -1.80357311       0.62806419       1.44794681
12
Frame=16 idx=007497 GeodesicLength=0.7799989753735996 rxn_smarts="[O:1]=[C:2]([C:3]#[C:4][H:8])[C@@:5]1([H:9])[C:6]([H:10])([H:11])[N:7]1[H:12]>>[O:1]1[C:2]([C:3]#[C:4][H:8])=[C:5]([H:9])[C:6]([H:10])([H:11])[N:7]1[H:12]"
O        0.18236232       0.69136050       1.37524175
C        0.56214439       0.00080469       0.35797741
C        1.96718785      -0.17338693       0.10957332
C        3.14272102      -0.24304612      -0.10868595
C       -0.39353575       0.06178204      -0.66906717
C       -1.77800989      -0.30392010      -0.29239473
N       -1.53291715       0.88795146       0.49515233
H        4.20467926      -0.28245274      -0.18233846
H       -0.08444042       0.07582511      -1.70461421
H       -1.96497034      -1.22065526       0.25832326
H       -2.50898087      -0.12190997      -1.07955391
H       -1.79624041       0.62764733       1.44038637
