16
Frame=0 idx=008625 GeodesicLength=0.0 rxn_smarts="[C:1]([C:2]([C:3]([O:4][C:5](=[O:6])[N:7]([H:15])[H:16])([H:13])[H:14])([H:11])[H:12])([H:8])([H:9])[H:10]>>[C:1]([C:2](=[C:3]([H:13])[H:14])[H:12])([H:8])([H:9])[H:10].[O:4]=[C:5]([O:6][H:11])[N:7]([H:15])[H:16]"
C       -2.10888287      -0.49582766      -0.47217203
C       -1.26975438       0.58184324       0.18555603
C       -0.55323186       0.30326810       1.35019268
O        1.35387880      -0.02408237       0.97732351
C        1.68428916       0.08556079      -0.23563534
O        0.97712538       0.66110336      -1.12131111
N        2.85968029      -0.46906683      -0.63350948
H       -3.09099801      -0.59912911      -0.00285996
H       -2.27166232      -0.27973127      -1.52942668
H       -1.60872934      -1.46534281      -0.41526789
H       -0.17887615       0.71282027      -0.55078830
H       -1.64635861       1.60081726       0.11036168
H       -0.27461479       1.10196599       2.02312287
H       -0.57103783      -0.68319533       1.79626753
H        3.19740193      -0.24945041      -1.55215546
H        3.50177060      -0.78155317       0.07030198
16
Frame=1 idx=008625 GeodesicLength=0.08963854013128456 rxn_smarts="[C:1]([C:2]([C:3]([O:4][C:5](=[O:6])[N:7]([H:15])[H:16])([H:13])[H:14])([H:11])[H:12])([H:8])([H:9])[H:10]>>[C:1]([C:2](=[C:3]([H:13])[H:14])[H:12])([H:8])([H:9])[H:10].[O:4]=[C:5]([O:6][H:11])[N:7]([H:15])[H:16]"
C       -2.11252067      -0.50908342      -0.46270221
C       -1.27860718       0.58170077       0.17891472
C       -0.55529767       0.31533740       1.34406467
O        1.33727770      -0.09180648       0.95921862
C        1.70171479       0.09092094      -0.23532174
O        1.02135246       0.73952795      -1.09119651
N        2.87023552      -0.46622209      -0.64773882
H       -3.09445653      -0.60495971       0.00886279
H       -2.27646880      -0.31062815      -1.52359458
H       -1.61169736      -1.47733789      -0.38842649
H       -0.18180841       0.71707077      -0.56440308
H       -1.66667156       1.59627408       0.09707369
H       -0.27332911       1.12747981       2.00043402
H       -0.59680241      -0.65588595       1.82211661
H        3.23725458      -0.18797645      -1.53881138
H        3.47982465      -0.86441160       0.04150969
16
Frame=2 idx=008625 GeodesicLength=0.17873410965368614 rxn_smarts="[C:1]([C:2]([C:3]([O:4][C:5](=[O:6])[N:7]([H:15])[H:16])([H:13])[H:14])([H:11])[H:12])([H:8])([H:9])[H:10]>>[C:1]([C:2](=[C:3]([H:13])[H:14])[H:12])([H:8])([H:9])[H:10].[O:4]=[C:5]([O:6][H:11])[N:7]([H:15])[H:16]"
C       -2.12338525      -0.51967879      -0.45090974
C       -1.28604278       0.58000567       0.16983371
C       -0.55587299       0.32370921       1.33478693
O        1.31936970      -0.16024356       0.93517987
C        1.72171570       0.09593572      -0.23368064
O        1.06399607       0.80461735      -1.05922846
N        2.88766297      -0.45641760      -0.65742608
H       -3.10427098      -0.60134926       0.02561214
H       -2.29027730      -0.33985430      -1.51493244
H       -1.62754952      -1.48915748      -0.35908978
H       -0.18385677       0.71172382      -0.58340457
H       -1.67982305       1.59210568       0.08071786
H       -0.27079508       1.14779878       1.97587819
H       -0.61795850      -0.63224037       1.84153497
H        3.28514287      -0.12185096      -1.51526065
H        3.46194489      -0.93510392       0.01038870
16
Frame=3 idx=008625 GeodesicLength=0.2673893853675593 rxn_smarts="[C:1]([C:2]([C:3]([O:4][C:5](=[O:6])[N:7]([H:15])[H:16])([H:13])[H:14])([H:11])[H:12])([H:8])([H:9])[H:10]>>[C:1]([C:2](=[C:3]([H:13])[H:14])[H:12])([H:8])([H:9])[H:10].[O:4]=[C:5]([O:6][H:11])[N:7]([H:15])[H:16]"
C       -2.13886382      -0.52823336      -0.43803494
C       -1.29250970       0.57705074       0.15926155
C       -0.55526309       0.32888080       1.32348787
O        1.30228003      -0.22359791       0.90747483
C        1.74408272       0.10286451      -0.22964131
O        1.10440987       0.85980412      -1.02639951
N        2.90875505      -0.44334438      -0.66283171
H       -3.11809530      -0.59135888       0.04482920
H       -2.30980136      -0.36712303      -1.50472906
H       -1.65147879      -1.50041688      -0.32900686
H       -0.18503715       0.70096291      -0.60561893
H       -1.68857486       1.58800820       0.06297284
H       -0.27001557       1.16364941       1.95176507
H       -0.63277968      -0.61305566       1.85472421
H        3.33474835      -0.05909698      -1.48532519
H        3.44814329      -0.99499360      -0.02292807
16
Frame=4 idx=008625 GeodesicLength=0.3556327575951341 rxn_smarts="[C:1]([C:2]([C:3]([O:4][C:5](=[O:6])[N:7]([H:15])[H:16])([H:13])[H:14])([H:11])[H:12])([H:8])([H:9])[H:10]>>[C:1]([C:2](=[C:3]([H:13])[H:14])[H:12])([H:8])([H:9])[H:10].[O:4]=[C:5]([O:6][H:11])[N:7]([H:15])[H:16]"
C       -2.15680857      -0.53575200      -0.42415779
C       -1.29836647       0.57330320       0.14754079
C       -0.55369255       0.33251601       1.31068154
O        1.28606149      -0.28135358       0.87639923
C        1.76754362       0.11089069      -0.22385038
O        1.14247931       0.90743381      -0.99370008
N        2.93178100      -0.42840750      -0.66513504
H       -3.13355659      -0.57815658       0.06613664
H       -2.33307628      -0.39355135      -1.49301283
H       -1.67932276      -1.51103525      -0.29823287
H       -0.18563978       0.68786908      -0.62999469
H       -1.69518128       1.58372105       0.04420279
H       -0.27112261       1.17733272       1.92790239
H       -0.64193053      -0.59659464       1.86334053
H        3.38768962       0.00363741      -1.44673721
H        3.43314237      -1.05185306      -0.06138301
16
Frame=5 idx=008625 GeodesicLength=0.4428594020219319 rxn_smarts="[C:1]([C:2]([C:3]([O:4][C:5](=[O:6])[N:7]([H:15])[H:16])([H:13])[H:14])([H:11])[H:12])([H:8])([H:9])[H:10]>>[C:1]([C:2](=[C:3]([H:13])[H:14])[H:12])([H:8])([H:9])[H:10].[O:4]=[C:5]([O:6][H:11])[N:7]([H:15])[H:16]"
C       -2.17644692      -0.54176349      -0.41018477
C       -1.30372656       0.56892274       0.13532804
C       -0.55144279       0.33416697       1.29692512
O        1.27119951      -0.33382261       0.84330203
C        1.79117618       0.11836027      -0.21639493
O        1.17870706       0.94899800      -0.96053035
N        2.95586915      -0.41313618      -0.66414523
H       -3.15009277      -0.56187458       0.08773171
H       -2.35862408      -0.41791156      -1.48064495
H       -1.71014729      -1.52040709      -0.26799482
H       -0.18567053       0.67372812      -0.65519533
H       -1.69987970       1.57934578       0.02552202
H       -0.27474950       1.18816511       1.90542809
H       -0.64633916      -0.58380980       1.86759301
H        3.43714219       0.05814208      -1.40675667
H        3.42302522      -1.09710376      -0.09998297
16
Frame=6 idx=008625 GeodesicLength=0.5294914756280732 rxn_smarts="[C:1]([C:2]([C:3]([O:4][C:5](=[O:6])[N:7]([H:15])[H:16])([H:13])[H:14])([H:11])[H:12])([H:8])([H:9])[H:10]>>[C:1]([C:2](=[C:3]([H:13])[H:14])[H:12])([H:8])([H:9])[H:10].[O:4]=[C:5]([O:6][H:11])[N:7]([H:15])[H:16]"
C       -2.19588583      -0.54769557      -0.39583846
C       -1.30894716       0.56427598       0.12265771
C       -0.54879659       0.33585212       1.28260290
O        1.25740997      -0.38035328       0.80857646
C        1.81464707       0.12605044      -0.20762697
O        1.21353403       0.98686067      -0.92709630
N        2.97971644      -0.39820076      -0.66132216
H       -3.16578100      -0.54569531       0.10983629
H       -2.38473268      -0.44222781      -1.46743539
H       -1.74019212      -1.52907115      -0.23758925
H       -0.18540464       0.66069157      -0.68090455
H       -1.70474059       1.57458285       0.00649858
H       -0.28109373       1.19888608       1.88370992
H       -0.64662605      -0.57215116       1.86928864
H        3.48790874       0.11061389      -1.35975247
H        3.40898416      -1.14241855      -0.14560497
16
Frame=7 idx=008625 GeodesicLength=0.6156912038572979 rxn_smarts="[C:1]([C:2]([C:3]([O:4][C:5](=[O:6])[N:7]([H:15])[H:16])([H:13])[H:14])([H:11])[H:12])([H:8])([H:9])[H:10]>>[C:1]([C:2](=[C:3]([H:13])[H:14])[H:12])([H:8])([H:9])[H:10].[O:4]=[C:5]([O:6][H:11])[N:7]([H:15])[H:16]"
C       -2.21591352      -0.55291317      -0.38118978
C       -1.31410655       0.55927929       0.10964312
C       -0.54576027       0.33686419       1.26764126
O        1.24467221      -0.42284471       0.77221924
C        1.83763528       0.13240294      -0.19823290
O        1.24730976       1.02094912      -0.89342693
N        3.00410200      -0.38363051      -0.65628282
H       -3.18149483      -0.52816851       0.13219367
H       -2.41194362      -0.46572247      -1.45347588
H       -1.77106691      -1.53677136      -0.20695722
H       -0.18503608       0.64789822      -0.70721623
H       -1.70911950       1.56964307      -0.01268646
H       -0.28966872       1.20850311       1.86280225
H       -0.64361426      -0.56240594       1.86837970
H        3.53767237       0.15847784      -1.30913384
H        3.39633266      -1.18156111      -0.19427719
16
Frame=8 idx=008625 GeodesicLength=0.7014672838877214 rxn_smarts="[C:1]([C:2]([C:3]([O:4][C:5](=[O:6])[N:7]([H:15])[H:16])([H:13])[H:14])([H:11])[H:12])([H:8])([H:9])[H:10]>>[C:1]([C:2](=[C:3]([H:13])[H:14])[H:12])([H:8])([H:9])[H:10].[O:4]=[C:5]([O:6][H:11])[N:7]([H:15])[H:16]"
C       -2.23501567      -0.55828354      -0.36642295
C       -1.31929975       0.55419771       0.09640140
C       -0.54262780       0.33836079       1.25244395
O        1.23268901      -0.46072720       0.73487353
C        1.86018138       0.13839477      -0.18773716
O        1.28067828       1.05336978      -0.85837235
N        3.02741821      -0.37065380      -0.65032484
H       -3.19588491      -0.51146027       0.15433353
H       -2.43854438      -0.48948101      -1.43898958
H       -1.80004318      -1.54381358      -0.17616652
H       -0.18447168       0.63700941      -0.73359714
H       -1.71419841       1.56433671      -0.03207293
H       -0.30092295       1.21841912       1.84270942
H       -0.63781132      -0.55312200       1.86585238
H        3.58711974       0.20167310      -1.25351155
H        3.38073342      -1.21821998      -0.24941921
16
Frame=9 idx=008625 GeodesicLength=0.7867084954479225 rxn_smarts="[C:1]([C:2]([C:3]([O:4][C:5](=[O:6])[N:7]([H:15])[H:16])([H:13])[H:14])([H:11])[H:12])([H:8])([H:9])[H:10]>>[C:1]([C:2](=[C:3]([H:13])[H:14])[H:12])([H:8])([H:9])[H:10].[O:4]=[C:5]([O:6][H:11])[N:7]([H:15])[H:16]"
C       -2.25537774      -0.56241692      -0.35127884
C       -1.32451711       0.54870352       0.08287147
C       -0.53899823       0.33868153       1.23637612
O        1.22156705      -0.49659729       0.69553221
C        1.88187876       0.14184336      -0.17767149
O        1.31331688       1.08229189      -0.82299153
N        3.05152490      -0.35829397      -0.64240711
H       -3.21077117      -0.49246977       0.17693536
H       -2.46714896      -0.51165648      -1.42357222
H       -1.83098197      -1.54957599      -0.14528421
H       -0.18420691       0.62550375      -0.76088814
H       -1.71825132       1.55899801      -0.05150704
H       -0.31352976       1.22637384       1.82318061
H       -0.62952680      -0.54618538       1.86064034
H        3.63366213       0.23948343      -1.19755297
H        3.37136024      -1.24468352      -0.30238255
16
Frame=10 idx=008625 GeodesicLength=0.8717534089121501 rxn_smarts="[C:1]([C:2]([C:3]([O:4][C:5](=[O:6])[N:7]([H:15])[H:16])([H:13])[H:14])([H:11])[H:12])([H:8])([H:9])[H:10]>>[C:1]([C:2](=[C:3]([H:13])[H:14])[H:12])([H:8])([H:9])[H:10].[O:4]=[C:5]([O:6][H:11])[N:7]([H:15])[H:16]"
C       -2.27479632      -0.56686065      -0.33587576
C       -1.32986308       0.54309065       0.06903499
C       -0.53538503       0.33979610       1.22005481
O        1.21118827      -0.52851025       0.65558577
C        1.90317561       0.14481381      -0.16675688
O        1.34601329       1.11024744      -0.78576913
N        3.07463745      -0.34754007      -0.63392552
H       -3.22439682      -0.47430761       0.19932647
H       -2.49503174      -0.53454471      -1.40751116
H       -1.85999941      -1.55481020      -0.11375928
H       -0.18388584       0.61552768      -0.78844835
H       -1.72305746       1.55324200      -0.07158541
H       -0.32869472       1.23489359       1.80413996
H       -0.61910145      -0.53914397       1.85426032
H        3.68031029       0.27309995      -1.13616566
H        3.35888696      -1.26899377      -0.36260518
16
Frame=11 idx=008625 GeodesicLength=0.9566564744444336 rxn_smarts="[C:1]([C:2]([C:3]([O:4][C:5](=[O:6])[N:7]([H:15])[H:16])([H:13])[H:14])([H:11])[H:12])([H:8])([H:9])[H:10]>>[C:1]([C:2](=[C:3]([H:13])[H:14])[H:12])([H:8])([H:9])[H:10].[O:4]=[C:5]([O:6][H:11])[N:7]([H:15])[H:16]"
C       -2.29440135      -0.57087140      -0.32011912
C       -1.33533277       0.53715791       0.05485914
C       -0.53162362       0.34070892       1.20315649
O        1.20163654      -0.55769662       0.61436058
C        1.92406504       0.14657797      -0.15570792
O        1.37866535       1.13658634      -0.74704700
N        3.09753669      -0.33800857      -0.62475062
H       -3.23771453      -0.45529926       0.22176684
H       -2.52350430      -0.55714266      -1.39062939
H       -1.88915805      -1.55917882      -0.08161137
H       -0.18375365       0.60591350      -0.81670871
H       -1.72780088       1.54721137      -0.09205829
H       -0.34572592       1.24251643       1.78558738
H       -0.60668746      -0.53320538       1.84603409
H        3.72542364       0.30153297      -1.07294684
H        3.34837526      -1.28680272      -0.42418525
16
Frame=12 idx=008625 GeodesicLength=1.0415065187663997 rxn_smarts="[C:1]([C:2]([C:3]([O:4][C:5](=[O:6])[N:7]([H:15])[H:16])([H:13])[H:14])([H:11])[H:12])([H:8])([H:9])[H:10]>>[C:1]([C:2](=[C:3]([H:13])[H:14])[H:12])([H:8])([H:9])[H:10].[O:4]=[C:5]([O:6][H:11])[N:7]([H:15])[H:16]"
C       -2.31270193      -0.57536317      -0.30429605
C       -1.34092468       0.53115217       0.04039847
C       -0.52813106       0.34267414       1.18620446
O        1.19275115      -0.58311296       0.57309080
C        1.94475843       0.14801370      -0.14349162
O        1.41192662       1.16279764      -0.70501760
N        3.11880435      -0.33064050      -0.61628461
H       -3.24964136      -0.43744876       0.24352627
H       -2.55056246      -0.58075996      -1.37332029
H       -1.91588567      -1.56310853      -0.04885104
H       -0.18342095       0.59811145      -0.84505987
H       -1.73345311       1.54073736      -0.11324460
H       -0.36552962       1.25075374       1.76763081
H       -0.59276905      -0.52675211       1.83701319
H        3.76976822       0.32370317      -1.00637171
H        3.33501112      -1.30075738      -0.49192660
16
Frame=13 idx=008625 GeodesicLength=1.1260990627368848 rxn_smarts="[C:1]([C:2]([C:3]([O:4][C:5](=[O:6])[N:7]([H:15])[H:16])([H:13])[H:14])([H:11])[H:12])([H:8])([H:9])[H:10]>>[C:1]([C:2](=[C:3]([H:13])[H:14])[H:12])([H:8])([H:9])[H:10].[O:4]=[C:5]([O:6][H:11])[N:7]([H:15])[H:16]"
C       -2.33342642      -0.57822388      -0.28728126
C       -1.34669284       0.52430793       0.02523679
C       -0.52383312       0.34302406       1.16758005
O        1.18470549      -0.60817224       0.52850353
C        1.96464817       0.14689537      -0.13290085
O        1.44443698       1.18541170      -0.66329938
N        3.14201965      -0.32264865      -0.60514564
H       -3.26268507      -0.41579107       0.26685144
H       -2.58149373      -0.60279884      -1.35402718
H       -1.94644221      -1.56545096      -0.01469772
H       -0.18418030       0.58768165      -0.87557958
H       -1.73750261       1.53398007      -0.13522538
H       -0.38509804       1.25612412       1.74908180
H       -0.57653258      -0.52276830       1.82485647
H        3.81226658       0.34365008      -0.93785602
H        3.32981006      -1.30522102      -0.55609705
16
Frame=14 idx=008625 GeodesicLength=1.2106260069979091 rxn_smarts="[C:1]([C:2]([C:3]([O:4][C:5](=[O:6])[N:7]([H:15])[H:16])([H:13])[H:14])([H:11])[H:12])([H:8])([H:9])[H:10]>>[C:1]([C:2](=[C:3]([H:13])[H:14])[H:12])([H:8])([H:9])[H:10].[O:4]=[C:5]([O:6][H:11])[N:7]([H:15])[H:16]"
C       -2.35239817      -0.58176530      -0.27040124
C       -1.35255865       0.51738655       0.00977332
C       -0.52007606       0.34478241       1.14911719
O        1.17745555      -0.62912841       0.48480807
C        1.98456895       0.14577202      -0.12057978
O        1.47795217       1.20840039      -0.61677855
N        3.16311422      -0.31706476      -0.59540426
H       -3.27410020      -0.39569729       0.28892535
H       -2.61026035      -0.62617876      -1.33451043
H       -1.97389237      -1.56738188       0.02003564
H       -0.18457096       0.57909484      -0.90600933
H       -1.74259529       1.52665543      -0.15819032
H       -0.40775842       1.26229625       1.73120820
H       -0.55934291      -0.51772182       1.81227193
H        3.85325116       0.35608375      -0.86803791
H        3.32121132      -1.30553342      -0.62622789
16
Frame=15 idx=008625 GeodesicLength=1.2951946762153683 rxn_smarts="[C:1]([C:2]([C:3]([O:4][C:5](=[O:6])[N:7]([H:15])[H:16])([H:13])[H:14])([H:11])[H:12])([H:8])([H:9])[H:10]>>[C:1]([C:2](=[C:3]([H:13])[H:14])[H:12])([H:8])([H:9])[H:10].[O:4]=[C:5]([O:6][H:11])[N:7]([H:15])[H:16]"
C       -2.37150007      -0.58499274      -0.25303735
C       -1.35857441       0.50994399      -0.00624732
C       -0.51638993       0.34661616       1.13000448
O        1.17118929      -0.64754601       0.44037322
C        2.00436474       0.14373485      -0.10793285
O        1.51186519       1.23016839      -0.56703778
N        3.18379593      -0.31245022      -0.58597910
H       -3.28519030      -0.37462867       0.31085200
H       -2.63946494      -0.64980482      -1.31393236
H       -2.00142993      -1.56836026       0.05599440
H       -0.18523886       0.57014255      -0.93745699
H       -1.74756925       1.51878619      -0.18223000
H       -0.43199915       1.26750415       1.71337426
H       -0.54084537      -0.51310472       1.79811888
H        3.89276174       0.36309335      -0.79727801
H        3.31422530      -1.29910221      -0.69758548
16
Frame=16 idx=008625 GeodesicLength=1.3798052355552732 rxn_smarts="[C:1]([C:2]([C:3]([O:4][C:5](=[O:6])[N:7]([H:15])[H:16])([H:13])[H:14])([H:11])[H:12])([H:8])([H:9])[H:10]>>[C:1]([C:2](=[C:3]([H:13])[H:14])[H:12])([H:8])([H:9])[H:10].[O:4]=[C:5]([O:6][H:11])[N:7]([H:15])[H:16]"
C       -2.39086274      -0.58779668      -0.23513107
C       -1.36476047       0.50189888      -0.02287397
C       -0.51277108       0.34843757       1.11014985
O        1.16596385      -0.66354684       0.39513003
C        2.02404916       0.14074624      -0.09507046
O        1.54615786       1.25053559      -0.51371338
N        3.20412079      -0.30854935      -0.57709580
H       -3.29600376      -0.35237206       0.33267098
H       -2.66933297      -0.67357128      -1.29216063
H       -2.02924106      -1.56823857       0.09324789
H       -0.18631199       0.56045867      -0.97009600
H       -1.75232308       1.51030593      -0.20744429
H       -0.45761125       1.27153439       1.69545813
H       -0.52112481      -0.50893771       1.78231000
H        3.93066016       0.36484060      -0.72618678
H        3.30939141      -1.28574538      -0.76919451
