11
Frame=0 idx=002064 GeodesicLength=0.0 rxn_smarts="[C:1]([c:2]1[c:3]([H:10])[o:4][c:5]([H:11])[n:6]1)([H:7])([H:8])[H:9]>>[C:1]([c:2]1[c:3]([H:10])[o+:4][c-:5][n:6]1[H:11])([H:7])([H:8])[H:9]"
C       -1.52769099      -0.41061161      -0.08859523
C       -0.10287960       0.01121507      -0.05705820
C        0.49251089       1.10617927       0.43466875
O        1.83623314       1.02173750       0.26405595
C        2.09853965      -0.10738060      -0.44711134
N        0.91686071      -0.74301645      -0.65755033
H       -1.65366993      -1.37084356       0.41477685
H       -1.87200095      -0.52941653      -1.11694182
H       -2.16245074       0.32239721       0.40814053
H        0.11124078       2.00601029       0.88833048
H        1.86330708      -1.30627059      -0.04271560
11
Frame=1 idx=002064 GeodesicLength=0.030121348016779848 rxn_smarts="[C:1]([c:2]1[c:3]([H:10])[o:4][c:5]([H:11])[n:6]1)([H:7])([H:8])[H:9]>>[C:1]([c:2]1[c:3]([H:10])[o+:4][c-:5][n:6]1[H:11])([H:7])([H:8])[H:9]"
C       -1.52775085      -0.41045850      -0.08812947
C       -0.10328824       0.01222667      -0.05484134
C        0.49078181       1.10849256       0.43585506
O        1.83575355       1.01870538       0.27260754
C        2.09510068      -0.10404243      -0.44775457
N        0.91665091      -0.73948097      -0.65627072
H       -1.65501788      -1.36653997       0.42278092
H       -1.86919928      -0.53760150      -1.11648401
H       -2.16434567       0.32686692       0.39978626
H        0.10977172       2.00891841       0.88827706
H        1.87154324      -1.31708657      -0.05582673
11
Frame=2 idx=002064 GeodesicLength=0.060207317623814885 rxn_smarts="[C:1]([c:2]1[c:3]([H:10])[o:4][c:5]([H:11])[n:6]1)([H:7])([H:8])[H:9]>>[C:1]([c:2]1[c:3]([H:10])[o+:4][c-:5][n:6]1[H:11])([H:7])([H:8])[H:9]"
C       -1.52782475      -0.41029757      -0.08764808
C       -0.10370923       0.01324789      -0.05261005
C        0.48903471       1.11086804       0.43694824
O        1.83519830       1.01563922       0.28118822
C        2.09169102      -0.10075416      -0.44818472
N        0.91649166      -0.73606730      -0.65477322
H       -1.65642685      -1.36219816       0.43071081
H       -1.86640181      -0.54571016      -1.11595268
H       -2.16621017       0.33124325       0.39146533
H        0.10828814       2.01189179       0.88813128
H        1.87986898      -1.32786284      -0.06927514
11
Frame=3 idx=002064 GeodesicLength=0.09035452302270347 rxn_smarts="[C:1]([c:2]1[c:3]([H:10])[o:4][c:5]([H:11])[n:6]1)([H:7])([H:8])[H:9]>>[C:1]([c:2]1[c:3]([H:10])[o+:4][c-:5][n:6]1[H:11])([H:7])([H:8])[H:9]"
C       -1.52790465      -0.41012936      -0.08716703
C       -0.10413967       0.01423292      -0.05029840
C        0.48727925       1.11324727       0.43803119
O        1.83457054       1.01267163       0.28948548
C        2.08826318      -0.09754122      -0.44840157
N        0.91633162      -0.73286198      -0.65288840
H       -1.65791268      -1.35795808       0.43826558
H       -1.86362328      -0.55344506      -1.11538508
H       -2.16798192       0.33540006       0.38341194
H        0.10680412       2.01495596       0.88778655
H        1.88831346      -1.33857215      -0.08284026
11
Frame=4 idx=002064 GeodesicLength=0.12045665126352408 rxn_smarts="[C:1]([c:2]1[c:3]([H:10])[o:4][c:5]([H:11])[n:6]1)([H:7])([H:8])[H:9]>>[C:1]([c:2]1[c:3]([H:10])[o+:4][c-:5][n:6]1[H:11])([H:7])([H:8])[H:9]"
C       -1.52800841      -0.40994299      -0.08669535
C       -0.10457637       0.01518621      -0.04793195
C        0.48551901       1.11565721       0.43902398
O        1.83384994       1.00988358       0.29736971
C        2.08486711      -0.09444263      -0.44843343
N        0.91623950      -0.72992512      -0.65061146
H       -1.65949099      -1.35382856       0.44546010
H       -1.86088566      -0.56078161      -1.11481961
H       -2.16969980       0.33935909       0.37563723
H        0.10531658       2.01803050       0.88741598
H        1.89686908      -1.34919568      -0.09641521
11
Frame=5 idx=002064 GeodesicLength=0.1505003368385463 rxn_smarts="[C:1]([c:2]1[c:3]([H:10])[o:4][c:5]([H:11])[n:6]1)([H:7])([H:8])[H:9]>>[C:1]([c:2]1[c:3]([H:10])[o+:4][c-:5][n:6]1[H:11])([H:7])([H:8])[H:9]"
C       -1.52812732      -0.40974087      -0.08624658
C       -0.10501891       0.01608713      -0.04547001
C        0.48375732       1.11806834       0.43998433
O        1.83305152       1.00734225       0.30467868
C        2.08146027      -0.09147401      -0.44828396
N        0.91616117      -0.72728018      -0.64779389
H       -1.66117291      -1.34985804       0.45215311
H       -1.85818046      -0.56760978      -1.11426900
H       -2.17131542       0.34306741       0.36821704
H        0.10383962       2.02110567       0.88697356
H        1.90554511      -1.35970792      -0.10994327
11
Frame=6 idx=002064 GeodesicLength=0.180459373821086 rxn_smarts="[C:1]([c:2]1[c:3]([H:10])[o:4][c:5]([H:11])[n:6]1)([H:7])([H:8])[H:9]>>[C:1]([c:2]1[c:3]([H:10])[o+:4][c-:5][n:6]1[H:11])([H:7])([H:8])[H:9]"
C       -1.52826102      -0.40952467      -0.08580627
C       -0.10546765       0.01696491      -0.04296222
C        0.48198923       1.12050875       0.44086779
O        1.83218477       1.00497300       0.31163909
C        2.07807507      -0.08862378      -0.44794939
N        0.91613643      -0.72489042      -0.64458622
H       -1.66292544      -1.34600444       0.45851027
H       -1.85551101      -0.57406917      -1.11372781
H       -2.17287309       0.34659473       0.36107124
H        0.10235312       2.02420533       0.88646842
H        1.91429958      -1.37013424      -0.12352490
11
Frame=7 idx=002064 GeodesicLength=0.21033419695829875 rxn_smarts="[C:1]([c:2]1[c:3]([H:10])[o:4][c:5]([H:11])[n:6]1)([H:7])([H:8])[H:9]>>[C:1]([c:2]1[c:3]([H:10])[o+:4][c-:5][n:6]1[H:11])([H:7])([H:8])[H:9]"
C       -1.52840740      -0.40929385      -0.08537673
C       -0.10592856       0.01784124      -0.04043939
C        0.48020668       1.12300279       0.44162601
O        1.83126139       1.00275304       0.31832408
C        2.07470901      -0.08589231      -0.44741584
N        0.91615133      -0.72273226      -0.64102566
H       -1.66473321      -1.34221091       0.46463092
H       -1.85286958      -0.58027816      -1.11318265
H       -2.17438138       0.34999110       0.35410389
H        0.10086114       2.02729853       0.88598421
H        1.92313057      -1.38047921      -0.13722884
11
Frame=8 idx=002064 GeodesicLength=0.24032857245472505 rxn_smarts="[C:1]([c:2]1[c:3]([H:10])[o:4][c:5]([H:11])[n:6]1)([H:7])([H:8])[H:9]>>[C:1]([c:2]1[c:3]([H:10])[o+:4][c-:5][n:6]1[H:11])([H:7])([H:8])[H:9]"
C       -1.52856790      -0.40904441      -0.08496608
C       -0.10640862       0.01874776      -0.03794773
C        0.47839929       1.12559471       0.44223422
O        1.83028770       1.00065866       0.32474733
C        2.07135984      -0.08325703      -0.44669591
N        0.91620345      -0.72076740      -0.63713728
H       -1.66658397      -1.33840171       0.47064359
H       -1.85024372      -0.58639068      -1.11263028
H       -2.17586363       0.35332739       0.34717910
H        0.09936922       2.03032182       0.88567263
H        1.93204835      -1.39078911      -0.15109959
11
Frame=9 idx=002064 GeodesicLength=0.27012047630929614 rxn_smarts="[C:1]([c:2]1[c:3]([H:10])[o:4][c:5]([H:11])[n:6]1)([H:7])([H:8])[H:9]>>[C:1]([c:2]1[c:3]([H:10])[o+:4][c-:5][n:6]1[H:11])([H:7])([H:8])[H:9]"
C       -1.52874410      -0.40872187      -0.08467054
C       -0.10692019       0.01978430      -0.03574062
C        0.47655514       1.12855652       0.44191866
O        1.82921519       0.99895561       0.33040768
C        2.06802665      -0.08078529      -0.44596939
N        0.91631173      -0.71916637      -0.63285164
H       -1.66851093      -1.33419547       0.47696290
H       -1.84756983      -0.59293209      -1.11206437
H       -2.17735486       0.35687938       0.33971615
H        0.09797405       2.03254775       0.88708284
H        1.94101717      -1.40092248      -0.16479167
11
Frame=10 idx=002064 GeodesicLength=0.30008683091705063 rxn_smarts="[C:1]([c:2]1[c:3]([H:10])[o:4][c:5]([H:11])[n:6]1)([H:7])([H:8])[H:9]>>[C:1]([c:2]1[c:3]([H:10])[o+:4][c-:5][n:6]1[H:11])([H:7])([H:8])[H:9]"
C       -1.52893103      -0.40839795      -0.08436283
C       -0.10743546       0.02076652      -0.03338387
C        0.47471361       1.13142903       0.44185483
O        1.82811285       0.99739872       0.33576676
C        2.06468280      -0.07839090      -0.44502824
N        0.91643261      -0.71775546      -0.62807649
H       -1.67051011      -1.33023375       0.48278960
H       -1.84492002      -0.59893087      -1.11152655
H       -2.17877041       0.36017550       0.33269040
H        0.09654725       2.03497588       0.88792984
H        1.95007792      -1.41103673      -0.17865344
11
Frame=11 idx=002064 GeodesicLength=0.3299496426077717 rxn_smarts="[C:1]([c:2]1[c:3]([H:10])[o:4][c:5]([H:11])[n:6]1)([H:7])([H:8])[H:9]>>[C:1]([c:2]1[c:3]([H:10])[o+:4][c-:5][n:6]1[H:11])([H:7])([H:8])[H:9]"
C       -1.52913436      -0.40804868      -0.08407917
C       -0.10796183       0.02174278      -0.03099222
C        0.47286374       1.13433966       0.44168862
O        1.82696072       0.99609125       0.34070356
C        2.06134643      -0.07613421      -0.44396885
N        0.91659636      -0.71663864      -0.62286948
H       -1.67258824      -1.32631943       0.48837496
H       -1.84227676      -0.60467467      -1.11101874
H       -2.18015347       0.36337474       0.32580871
H        0.09511250       2.03732031       0.88892122
H        1.95923491      -1.42105312      -0.19256862
11
Frame=12 idx=002064 GeodesicLength=0.35980632838108867 rxn_smarts="[C:1]([c:2]1[c:3]([H:10])[o:4][c:5]([H:11])[n:6]1)([H:7])([H:8])[H:9]>>[C:1]([c:2]1[c:3]([H:10])[o+:4][c-:5][n:6]1[H:11])([H:7])([H:8])[H:9]"
C       -1.52935499      -0.40765821      -0.08385065
C       -0.10850388       0.02274642      -0.02864066
C        0.47099252       1.13741249       0.44115803
O        1.82575957       0.99508220       0.34507989
C        2.05800868      -0.07400162      -0.44284669
N        0.91680351      -0.71582920      -0.61717783
H       -1.67476442      -1.32231298       0.49389637
H       -1.83960385      -0.61039286      -1.11053515
H       -2.18151868       0.36658924       0.31883012
H        0.09369570       2.03934691       0.89058061
H        1.96848585      -1.43098238      -0.20649405
11
Frame=13 idx=002064 GeodesicLength=0.38961901422335626 rxn_smarts="[C:1]([c:2]1[c:3]([H:10])[o:4][c:5]([H:11])[n:6]1)([H:7])([H:8])[H:9]>>[C:1]([c:2]1[c:3]([H:10])[o+:4][c-:5][n:6]1[H:11])([H:7])([H:8])[H:9]"
C       -1.52959024      -0.40724024      -0.08364928
C       -0.10905857       0.02375242      -0.02625677
C        0.46910569       1.14056071       0.44044968
O        1.82451776       0.99428716       0.34911353
C        2.05466655      -0.07197277      -0.44162054
N        0.91704986      -0.71528639      -0.61102792
H       -1.67704499      -1.31824859       0.49932804
H       -1.83689205      -0.61604035      -1.11005410
H       -2.18286513       0.36978518       0.31180767
H        0.09227432       2.04123206       0.89253019
H        1.97783681      -1.44082918      -0.22062051
11
Frame=14 idx=002064 GeodesicLength=0.4194447150096381 rxn_smarts="[C:1]([c:2]1[c:3]([H:10])[o:4][c:5]([H:11])[n:6]1)([H:7])([H:8])[H:9]>>[C:1]([c:2]1[c:3]([H:10])[o+:4][c-:5][n:6]1[H:11])([H:7])([H:8])[H:9]"
C       -1.52983778      -0.40680613      -0.08345141
C       -0.10962402       0.02474525      -0.02378541
C        0.46720722       1.14372190       0.43974811
O        1.82324706       0.99360599       0.35299772
C        2.05131621      -0.07001668      -0.44024902
N        0.91733111      -0.71494886      -0.60443209
H       -1.67943972      -1.31414514       0.50469593
H       -1.83411925      -0.62163113      -1.10956630
H       -2.18419775       0.37296182       0.30474423
H        0.09082872       2.04311982       0.89445551
H        1.98728820      -1.45060686      -0.23515726
11
Frame=15 idx=002064 GeodesicLength=0.4492591696377671 rxn_smarts="[C:1]([c:2]1[c:3]([H:10])[o:4][c:5]([H:11])[n:6]1)([H:7])([H:8])[H:9]>>[C:1]([c:2]1[c:3]([H:10])[o+:4][c-:5][n:6]1[H:11])([H:7])([H:8])[H:9]"
C       -1.53009971      -0.40635966      -0.08324710
C       -0.11019821       0.02569915      -0.02116576
C        0.46530152       1.14684780       0.43915005
O        1.82195011       0.99301272       0.35681876
C        2.04794960      -0.06811885      -0.43873901
N        0.91765023      -0.71482432      -0.59736784
H       -1.68198591      -1.30998620       0.51002262
H       -1.83125254      -0.62719129      -1.10906169
H       -2.18552039       0.37613398       0.29759922
H        0.08934800       2.04508805       0.89623193
H        1.99685730      -1.46030138      -0.25024117
11
Frame=16 idx=002064 GeodesicLength=0.4790715703590561 rxn_smarts="[C:1]([c:2]1[c:3]([H:10])[o:4][c:5]([H:11])[n:6]1)([H:7])([H:8])[H:9]>>[C:1]([c:2]1[c:3]([H:10])[o+:4][c-:5][n:6]1[H:11])([H:7])([H:8])[H:9]"
C       -1.53037731      -0.40589919      -0.08303665
C       -0.11077935       0.02659734      -0.01835737
C        0.46338725       1.14993305       0.43867560
O        1.82062882       0.99250531       0.36057754
C        2.04455660      -0.06626944      -0.43710094
N        0.91800834      -0.71492545      -0.58978415
H       -1.68472344      -1.30573065       0.51536026
H       -1.82825387      -0.63278362      -1.10853984
H       -2.18683871       0.37933986       0.29028867
H        0.08783277       2.04712522       0.89788448
H        2.00655892      -1.46989241      -0.26596759
