10
Frame=0 idx=001753 GeodesicLength=0.0 rxn_smarts="[C:1]([n:2]1[n:3][c:4]([H:10])[n:5][n:6]1)([H:7])([H:8])[H:9]>>[C:1](=[N+:2]1[N:3]([H:8])[C:4]([H:10])=[N:5][N-:6]1)([H:7])[H:9]"
C       -1.69693545       0.05515637       0.19973821
N       -0.29532301      -0.35487811      -0.01513690
N        0.44558521       0.73340584       0.04705143
C        1.69376366       0.32765652      -0.14851813
N        1.68835732      -0.98937691      -0.32588915
N        0.42860120      -1.39363778      -0.23783096
H       -2.27396472      -0.24181120      -0.67692221
H       -0.48611559       1.37387607       0.23797784
H       -2.06979083      -0.46842691       1.08094585
H        2.56582221       0.95803610      -0.16141599
10
Frame=1 idx=001753 GeodesicLength=0.0781732109341342 rxn_smarts="[C:1]([n:2]1[n:3][c:4]([H:10])[n:5][n:6]1)([H:7])([H:8])[H:9]>>[C:1](=[N+:2]1[N:3]([H:8])[C:4]([H:10])=[N:5][N-:6]1)([H:7])[H:9]"
C       -1.69146324       0.05227532       0.18726235
N       -0.29157216      -0.35808563       0.00605882
N        0.45140841       0.73046600       0.07494984
C        1.69715879       0.32435023      -0.14235959
N        1.68416537      -0.98251440      -0.37724478
N        0.42614723      -1.38894493      -0.27491672
H       -2.27082570      -0.29765993      -0.66702523
H       -0.51234166       1.37786713       0.20741131
H       -2.06659565      -0.40559848       1.10277473
H        2.57391862       0.94784470      -0.11691074
10
Frame=2 idx=001753 GeodesicLength=0.15634685575222673 rxn_smarts="[C:1]([n:2]1[n:3][c:4]([H:10])[n:5][n:6]1)([H:7])([H:8])[H:9]>>[C:1](=[N+:2]1[N:3]([H:8])[C:4]([H:10])=[N:5][N-:6]1)([H:7])[H:9]"
C       -1.68525034       0.04780440       0.17635105
N       -0.28779513      -0.36197117       0.02479671
N        0.45643964       0.72751636       0.09978530
C        1.70053255       0.32106752      -0.13377582
N        1.67978128      -0.97306538      -0.42576756
N        0.42333564      -1.38208271      -0.31429099
H       -2.26886223      -0.35223997      -0.65160472
H       -0.53777196       1.37968786       0.17456062
H       -2.06211356      -0.34243469       1.12132170
H        2.58170410       0.93571778      -0.07137630
10
Frame=3 idx=001753 GeodesicLength=0.2345453624855265 rxn_smarts="[C:1]([n:2]1[n:3][c:4]([H:10])[n:5][n:6]1)([H:7])([H:8])[H:9]>>[C:1](=[N+:2]1[N:3]([H:8])[C:4]([H:10])=[N:5][N-:6]1)([H:7])[H:9]"
C       -1.67870544       0.04194225       0.16768075
N       -0.28434502      -0.36581908       0.03767112
N        0.46037835       0.72529826       0.11830620
C        1.70423603       0.31719551      -0.12146934
N        1.67643132      -0.96236748      -0.46756529
N        0.41976252      -1.37204120      -0.36007380
H       -2.27027579      -0.40584952      -0.62856633
H       -0.56322721       1.37985986       0.13809389
H       -2.05352548      -0.27965756       1.13835831
H        2.58927073       0.92143895      -0.02243553
10
Frame=4 idx=001753 GeodesicLength=0.3127379598146883 rxn_smarts="[C:1]([n:2]1[n:3][c:4]([H:10])[n:5][n:6]1)([H:7])([H:8])[H:9]>>[C:1](=[N+:2]1[N:3]([H:8])[C:4]([H:10])=[N:5][N-:6]1)([H:7])[H:9]"
C       -1.67197374       0.03524734       0.15992641
N       -0.28096421      -0.36997200       0.04804105
N        0.46392797       0.72294467       0.13595058
C        1.70781126       0.31311254      -0.10870271
N        1.67377158      -0.95068999      -0.50478208
N        0.41596338      -1.35959282      -0.40687393
H       -2.27209215      -0.45760864      -0.60154814
H       -0.58818344       1.37819135       0.10241459
H       -2.04428797      -0.21767312       1.15111151
H        2.59602733       0.90604067       0.02446272
10
Frame=5 idx=001753 GeodesicLength=0.39100822302271826 rxn_smarts="[C:1]([n:2]1[n:3][c:4]([H:10])[n:5][n:6]1)([H:7])([H:8])[H:9]>>[C:1](=[N+:2]1[N:3]([H:8])[C:4]([H:10])=[N:5][N-:6]1)([H:7])[H:9]"
C       -1.66511665       0.02765478       0.15298830
N       -0.27755858      -0.37436165       0.05636394
N        0.46710950       0.72059981       0.15244333
C        1.71121610       0.30901821      -0.09625459
N        1.67158899      -0.93791918      -0.53930533
N        0.41211171      -1.34490829      -0.45387923
H       -2.27406402      -0.50808634      -0.57056450
H       -0.61302422       1.37493223       0.06725931
H       -2.03443206      -0.15598718       1.15989122
H        2.60216923       0.88905760       0.07105756
10
Frame=6 idx=001753 GeodesicLength=0.46931978250856776 rxn_smarts="[C:1]([n:2]1[n:3][c:4]([H:10])[n:5][n:6]1)([H:7])([H:8])[H:9]>>[C:1](=[N+:2]1[N:3]([H:8])[C:4]([H:10])=[N:5][N-:6]1)([H:7])[H:9]"
C       -1.65821026       0.01951592       0.14659057
N       -0.27413822      -0.37899731       0.06353077
N        0.47016887       0.71798577       0.16919452
C        1.71445742       0.30488849      -0.08432565
N        1.66968623      -0.92426143      -0.57161953
N        0.40826542      -1.32837817      -0.49973532
H       -2.27532342      -0.55682286      -0.53675204
H       -0.63758741       1.37031609       0.03366371
H       -2.02501248      -0.09526644       1.16406376
H        2.60769385       0.87101993       0.11538920
10
Frame=7 idx=001753 GeodesicLength=0.547680935464111 rxn_smarts="[C:1]([n:2]1[n:3][c:4]([H:10])[n:5][n:6]1)([H:7])([H:8])[H:9]>>[C:1](=[N+:2]1[N:3]([H:8])[C:4]([H:10])=[N:5][N-:6]1)([H:7])[H:9]"
C       -1.65123334       0.01078729       0.14082585
N       -0.27064821      -0.38377535       0.06972459
N        0.47310641       0.71521661       0.18591154
C        1.71751820       0.30089041      -0.07322259
N        1.66790211      -0.90960516      -0.60246697
N        0.40444408      -1.31013808      -0.54424052
H       -2.27574103      -0.60386194      -0.50011028
H       -0.66215347       1.36451257       0.00110059
H       -2.01589953      -0.03557995       1.16399262
H        2.61270478       0.85155361       0.15848515
10
Frame=8 idx=001753 GeodesicLength=0.6260829865560577 rxn_smarts="[C:1]([n:2]1[n:3][c:4]([H:10])[n:5][n:6]1)([H:7])([H:8])[H:9]>>[C:1](=[N+:2]1[N:3]([H:8])[C:4]([H:10])=[N:5][N-:6]1)([H:7])[H:9]"
C       -1.64424701       0.00170263       0.13564462
N       -0.26714043      -0.38863072       0.07516834
N        0.47603269       0.71218236       0.20304288
C        1.72045906       0.29695243      -0.06276821
N        1.66619769      -0.89421177      -0.63169187
N        0.40058957      -1.29037591      -0.58716200
H       -2.27506687      -0.64883173      -0.46120014
H       -0.68671339       1.35773856      -0.03025321
H       -2.00739884       0.02245011       1.15973810
H        2.61728753       0.83102405       0.19948149
10
Frame=9 idx=001753 GeodesicLength=0.7045240063195225 rxn_smarts="[C:1]([n:2]1[n:3][c:4]([H:10])[n:5][n:6]1)([H:7])([H:8])[H:9]>>[C:1](=[N+:2]1[N:3]([H:8])[C:4]([H:10])=[N:5][N-:6]1)([H:7])[H:9]"
C       -1.63724511      -0.00759874       0.13114269
N       -0.26359627      -0.39346035       0.08008846
N        0.47897043       0.70896441       0.22053221
C        1.72328414       0.29315556      -0.05301175
N        1.66438265      -0.87781459      -0.66006974
N        0.39668619      -1.26925363      -0.62825605
H       -2.27309215      -0.69175965      -0.42006022
H       -0.71137613       1.35009884      -0.06113339
H       -1.99953975       0.07857290       1.15168682
H        2.62152599       0.80909524       0.23908098
10
Frame=10 idx=001753 GeodesicLength=0.7829844779338081 rxn_smarts="[C:1]([n:2]1[n:3][c:4]([H:10])[n:5][n:6]1)([H:7])([H:8])[H:9]>>[C:1](=[N+:2]1[N:3]([H:8])[C:4]([H:10])=[N:5][N-:6]1)([H:7])[H:9]"
C       -1.63025780      -0.01696101       0.12725890
N       -0.26006349      -0.39823219       0.08461984
N        0.48199426       0.70544000       0.23867847
C        1.72603112       0.28941561      -0.04376059
N        1.66244882      -0.86066462      -0.68729210
N        0.39268206      -1.24696184      -0.66740549
H       -2.26972497      -0.73222867      -0.37734423
H       -0.73613332       1.34170707      -0.09138852
H       -1.99247821       0.13230188       1.14010907
H        2.62550154       0.78618376       0.27652465
10
Frame=11 idx=001753 GeodesicLength=0.8614479716313052 rxn_smarts="[C:1]([n:2]1[n:3][c:4]([H:10])[n:5][n:6]1)([H:7])([H:8])[H:9]>>[C:1](=[N+:2]1[N:3]([H:8])[C:4]([H:10])=[N:5][N-:6]1)([H:7])[H:9]"
C       -1.62328743      -0.02625984       0.12393771
N       -0.25657479      -0.40295166       0.08897186
N        0.48517691       0.70145849       0.25775796
C        1.72872711       0.28562512      -0.03483800
N        1.66032360      -0.84283091      -0.71342109
N        0.38856292      -1.22378011      -0.70433604
H       -2.26488998      -0.76995193      -0.33371803
H       -0.76096218       1.33265026      -0.12092770
H       -1.98641746       0.18337602       1.12529008
H        2.62934130       0.76266457       0.31128326
10
Frame=12 idx=001753 GeodesicLength=0.9399857005940081 rxn_smarts="[C:1]([n:2]1[n:3][c:4]([H:10])[n:5][n:6]1)([H:7])([H:8])[H:9]>>[C:1](=[N+:2]1[N:3]([H:8])[C:4]([H:10])=[N:5][N-:6]1)([H:7])[H:9]"
C       -1.61631438      -0.03561914       0.12131214
N       -0.25305601      -0.40748283       0.09292926
N        0.48843178       0.69729924       0.27710959
C        1.73136651       0.28201120      -0.02637244
N        1.65799004      -0.82393262      -0.73896788
N        0.38435946      -1.19958379      -0.73953597
H       -2.25883641      -0.80531220      -0.28856834
H       -0.78625085       1.32281550      -0.15085217
H       -1.98067147       0.23210235       1.10786097
H        2.63298134       0.73770228       0.34508485
10
Frame=13 idx=001753 GeodesicLength=1.018534968716444 rxn_smarts="[C:1]([n:2]1[n:3][c:4]([H:10])[n:5][n:6]1)([H:7])([H:8])[H:9]>>[C:1](=[N+:2]1[N:3]([H:8])[C:4]([H:10])=[N:5][N-:6]1)([H:7])[H:9]"
C       -1.60938998      -0.04474564       0.11923106
N       -0.24961948      -0.41189563       0.09678889
N        0.49191118       0.69259005       0.29746856
C        1.73401073       0.27827151      -0.01802570
N        1.65544406      -0.80436481      -0.76351981
N        0.38003280      -1.17475777      -0.77258320
H       -2.25145008      -0.83778024      -0.24311614
H       -0.81176950       1.31235947      -0.18050674
H       -1.97582389       0.27799256       1.08799112
H        2.63665415       0.71233050       0.37627196
10
Frame=14 idx=001753 GeodesicLength=1.097160032436071 rxn_smarts="[C:1]([n:2]1[n:3][c:4]([H:10])[n:5][n:6]1)([H:7])([H:8])[H:9]>>[C:1](=[N+:2]1[N:3]([H:8])[C:4]([H:10])=[N:5][N-:6]1)([H:7])[H:9]"
C       -1.60244350      -0.05380514       0.11782446
N       -0.24616000      -0.41605629       0.10034937
N        0.49550968       0.68762928       0.31817900
C        1.73661475       0.27470646      -0.00999153
N        1.65264165      -0.78359706      -0.78761389
N        0.37565331      -1.14917536      -0.80386082
H       -2.24297289      -0.86769368      -0.19670330
H       -0.83793867       1.30104498      -0.21099189
H       -1.97107191       0.32139758       1.06623249
H        2.64016759       0.68554922       0.40657611
10
Frame=15 idx=001753 GeodesicLength=1.175779921783104 rxn_smarts="[C:1]([n:2]1[n:3][c:4]([H:10])[n:5][n:6]1)([H:7])([H:8])[H:9]>>[C:1](=[N+:2]1[N:3]([H:8])[C:4]([H:10])=[N:5][N-:6]1)([H:7])[H:9]"
C       -1.59552577      -0.06251168       0.11699041
N       -0.24279329      -0.42003498       0.10384825
N        0.49937549       0.68203244       0.33989467
C        1.73923411       0.27100612      -0.00198375
N        1.64962161      -0.76214366      -0.81070141
N        0.37117310      -1.12314130      -0.83309950
H       -2.23338525      -0.89460903      -0.15058368
H       -0.86456392       1.28900932      -0.24170261
H       -1.96692213       0.36193918       1.04287315
H        2.64378604       0.65845359       0.43446446
10
Frame=16 idx=001753 GeodesicLength=1.2544430885382003 rxn_smarts="[C:1]([n:2]1[n:3][c:4]([H:10])[n:5][n:6]1)([H:7])([H:8])[H:9]>>[C:1](=[N+:2]1[N:3]([H:8])[C:4]([H:10])=[N:5][N-:6]1)([H:7])[H:9]"
C       -1.58862319      -0.07094232       0.11676627
N       -0.23946592      -0.42376690       0.10718237
N        0.50347543       0.67592466       0.36233469
C        1.74188556       0.26734505       0.00593100
N        1.64638940      -0.73962301      -0.83315247
N        0.36666471      -1.09662651      -0.86055009
H       -2.22293476      -0.91878613      -0.10440999
H       -0.89194295       1.27604043      -0.27331031
H       -1.96290198       0.39994813       1.01829929
H        2.64745370       0.63048660       0.46090926
