15
Frame=0 idx=000983 GeodesicLength=0.0 rxn_smarts="[C:1]([N:2]([C:3]([H:10])([H:11])[H:12])[C:4]([C:5](=[O:6])[H:15])([H:13])[H:14])([H:7])([H:8])[H:9]>>[C:1]([N:2]([C:3]([H:10])([H:11])[H:12])/[C:4](=[C:5](/[O:6][H:14])[H:15])[H:13])([H:7])([H:8])[H:9]"
C       -1.35713768      -0.84820195       0.21417427
N       -0.38919779       0.23060878       0.30080599
C       -0.92044166       1.48352352      -0.19249339
C        0.88898441      -0.10133380      -0.21939267
C        1.95765548      -0.54023302       0.59162410
O        2.73484051      -1.29225502      -0.07915811
H       -1.65725996      -1.06555053      -0.82369407
H       -2.25208687      -0.58602757       0.78321963
H       -0.93799434      -1.75835595       0.64187099
H       -1.84780299       1.72439056       0.33071102
H       -0.20870164       2.28814430      -0.00547546
H       -1.13969276       1.45669352      -1.27357698
H        1.26191512       0.51703500      -1.04319014
H        1.71926173      -1.16006653      -0.87418606
H        2.14765844      -0.34837125       1.64876085
15
Frame=1 idx=000983 GeodesicLength=0.043698490540267934 rxn_smarts="[C:1]([N:2]([C:3]([H:10])([H:11])[H:12])[C:4]([C:5](=[O:6])[H:15])([H:13])[H:14])([H:7])([H:8])[H:9]>>[C:1]([N:2]([C:3]([H:10])([H:11])[H:12])/[C:4](=[C:5](/[O:6][H:14])[H:15])[H:13])([H:7])([H:8])[H:9]"
C       -1.36019421      -0.85048747       0.20460511
N       -0.38659178       0.22186747       0.30016151
C       -0.91173079       1.48319870      -0.17796050
C        0.88624373      -0.11280419      -0.23281994
C        1.97045507      -0.49870381       0.58568066
O        2.74791214      -1.27554987      -0.05735628
H       -1.66261547      -1.05645920      -0.83502202
H       -2.25353256      -0.58802813       0.77601978
H       -0.94641401      -1.76654434       0.62500686
H       -1.83360820       1.72594151       0.35393521
H       -0.19173476       2.28016447       0.01051471
H       -1.13948695       1.46764498      -1.25754674
H        1.23588774       0.47853990      -1.08647274
H        1.72023003      -1.19059791      -0.85935507
H        2.12518003      -0.31818212       1.65060946
15
Frame=2 idx=000983 GeodesicLength=0.08742677653639268 rxn_smarts="[C:1]([N:2]([C:3]([H:10])([H:11])[H:12])[C:4]([C:5](=[O:6])[H:15])([H:13])[H:14])([H:7])([H:8])[H:9]>>[C:1]([N:2]([C:3]([H:10])([H:11])[H:12])/[C:4](=[C:5](/[O:6][H:14])[H:15])[H:13])([H:7])([H:8])[H:9]"
C       -1.36392119      -0.85268345       0.19506598
N       -0.38440435       0.21281206       0.30013346
C       -0.90265730       1.48236049      -0.16360622
C        0.88332050      -0.12474359      -0.24467832
C        1.98176931      -0.45910693       0.57890086
O        2.76090479      -1.25725954      -0.03712926
H       -1.66785354      -1.04731948      -0.84640758
H       -2.25597606      -0.58960206       0.76817174
H       -0.95610635      -1.77463140       0.60852306
H       -1.81951140       1.72711861       0.37593519
H       -0.17467002       2.27163885       0.02677020
H       -1.13760035       1.47794690      -1.24179479
H        1.21005881       0.43968603      -1.12553069
H        1.72132282      -1.21988552      -0.84372238
H        2.10532433      -0.28633096       1.64936874
15
Frame=3 idx=000983 GeodesicLength=0.13126012613984328 rxn_smarts="[C:1]([N:2]([C:3]([H:10])([H:11])[H:12])[C:4]([C:5](=[O:6])[H:15])([H:13])[H:14])([H:7])([H:8])[H:9]>>[C:1]([N:2]([C:3]([H:10])([H:11])[H:12])/[C:4](=[C:5](/[O:6][H:14])[H:15])[H:13])([H:7])([H:8])[H:9]"
C       -1.36826719      -0.85479700       0.18546952
N       -0.38259544       0.20342713       0.30065315
C       -0.89325409       1.48101737      -0.14934305
C        0.88023235      -0.13712415      -0.25515742
C        1.99170428      -0.42124715       0.57134949
O        2.77368234      -1.23773272      -0.01834694
H       -1.67300858      -1.03805697      -0.85793144
H       -2.25932268      -0.59081379       0.75967593
H       -0.96698229      -1.78264781       0.59219888
H       -1.80550132       1.72789581       0.39693064
H       -0.15752105       2.26256669       0.04338932
H       -1.13418032       1.48767763      -1.22623543
H        1.18442893       0.40049262      -1.16083360
H        1.72251802      -1.24813819      -0.82733803
H        2.08806705      -0.25251948       1.64551898
15
Frame=4 idx=000983 GeodesicLength=0.17528683333900444 rxn_smarts="[C:1]([N:2]([C:3]([H:10])([H:11])[H:12])[C:4]([C:5](=[O:6])[H:15])([H:13])[H:14])([H:7])([H:8])[H:9]>>[C:1]([N:2]([C:3]([H:10])([H:11])[H:12])/[C:4](=[C:5](/[O:6][H:14])[H:15])[H:13])([H:7])([H:8])[H:9]"
C       -1.37314626      -0.85683103       0.17577461
N       -0.38112185       0.19371883       0.30165769
C       -0.88357587       1.47920982      -0.13511397
C        0.87701548      -0.14990784      -0.26443451
C        2.00041207      -0.38488819       0.56303537
O        2.78617358      -1.21727257      -0.00086909
H       -1.67808002      -1.02860616      -0.86962765
H       -2.26344734      -0.59171381       0.75059686
H       -0.97889322      -1.79062894       0.57587714
H       -1.79159481       1.72829058       0.41711457
H       -0.14034733       2.25299708       0.06041181
H       -1.12938343       1.49693262      -1.21081798
H        1.15899296       0.36095319      -1.19283579
H        1.72384390      -1.27554084      -0.81023482
H        2.07315215      -0.21671275       1.63946575
15
Frame=5 idx=000983 GeodesicLength=0.2193931756071757 rxn_smarts="[C:1]([N:2]([C:3]([H:10])([H:11])[H:12])[C:4]([C:5](=[O:6])[H:15])([H:13])[H:14])([H:7])([H:8])[H:9]>>[C:1]([N:2]([C:3]([H:10])([H:11])[H:12])/[C:4](=[C:5](/[O:6][H:14])[H:15])[H:13])([H:7])([H:8])[H:9]"
C       -1.37833281      -0.85873461       0.16614936
N       -0.37988841       0.18386125       0.30308193
C       -0.87373421       1.47700054      -0.12106108
C        0.87376220      -0.16283440      -0.27264117
C        2.00800862      -0.34989579       0.55396877
O        2.79827358      -1.19604399       0.01524144
H       -1.68288525      -1.01910414      -0.88127372
H       -2.26809642      -0.59228445       0.74114473
H       -0.99147249      -1.79840384       0.55982785
H       -1.77790390       1.72832236       0.43637597
H       -0.12333841       2.24309095       0.07760242
H       -1.12339971       1.50562284      -1.19567677
H        1.13388800       0.32144872      -1.22176603
H        1.72530921      -1.30190526      -0.79267698
H        2.05980999      -0.18014017       1.63170330
15
Frame=6 idx=000983 GeodesicLength=0.2636665126054401 rxn_smarts="[C:1]([N:2]([C:3]([H:10])([H:11])[H:12])[C:4]([C:5](=[O:6])[H:15])([H:13])[H:14])([H:7])([H:8])[H:9]>>[C:1]([N:2]([C:3]([H:10])([H:11])[H:12])/[C:4](=[C:5](/[O:6][H:14])[H:15])[H:13])([H:7])([H:8])[H:9]"
C       -1.38375270      -0.86050164       0.15656964
N       -0.37885106       0.17387523       0.30488105
C       -0.86376889       1.47442375      -0.10714223
C        0.87051307      -0.17585564      -0.27990101
C        2.01466762      -0.31601640       0.54413240
O        2.80996266      -1.17421305       0.03012305
H       -1.68742761      -1.00951049      -0.89288642
H       -2.27316863      -0.59255608       0.73136574
H       -1.00458965      -1.80597839       0.54394390
H       -1.76443992       1.72800738       0.45485313
H       -0.10652986       2.23289474       0.09498695
H       -1.11635854       1.51380305      -1.18077144
H        1.10909546       0.28194576      -1.24797215
H        1.72689119      -1.32739752      -0.77461807
H        2.04775686      -0.14292070       1.62243547
15
Frame=7 idx=000983 GeodesicLength=0.30817401881884104 rxn_smarts="[C:1]([N:2]([C:3]([H:10])([H:11])[H:12])[C:4]([C:5](=[O:6])[H:15])([H:13])[H:14])([H:7])([H:8])[H:9]>>[C:1]([N:2]([C:3]([H:10])([H:11])[H:12])/[C:4](=[C:5](/[O:6][H:14])[H:15])[H:13])([H:7])([H:8])[H:9]"
C       -1.38935975      -0.86213114       0.14701466
N       -0.37797773       0.16376267       0.30701271
C       -0.85368802       1.47150240      -0.09331910
C        0.86728906      -0.18895471      -0.28631522
C        2.02048553      -0.28305350       0.53351652
O        2.82126908      -1.15179406       0.04386277
H       -1.69172072      -0.99978221      -0.90447332
H       -2.27858516      -0.59255219       0.72129947
H       -1.01817373      -1.81336992       0.52812450
H       -1.75116786       1.72736163       0.47267610
H       -0.08992266       2.22243497       0.11258656
H       -1.10833405       1.52152690      -1.16605605
H        1.08456566       0.24235028      -1.27175050
H        1.72859926      -1.35214750      -0.75597921
H        2.03672110      -0.10515362       1.61180010
15
Frame=8 idx=000983 GeodesicLength=0.35298361914103965 rxn_smarts="[C:1]([N:2]([C:3]([H:10])([H:11])[H:12])[C:4]([C:5](=[O:6])[H:15])([H:13])[H:14])([H:7])([H:8])[H:9]>>[C:1]([N:2]([C:3]([H:10])([H:11])[H:12])/[C:4](=[C:5](/[O:6][H:14])[H:15])[H:13])([H:7])([H:8])[H:9]"
C       -1.39511273      -0.86361767       0.13745687
N       -0.37723912       0.15352237       0.30944495
C       -0.84349886       1.46824736      -0.07955107
C        0.86410791      -0.20211818      -0.29196312
C        2.02554839      -0.25084789       0.52209458
O        2.83219013      -1.12883488       0.05655156
H       -1.69578076      -0.98986684      -0.91605016
H       -2.28427344      -0.59229683       0.71097290
H       -1.03216077      -1.82058853       0.51225715
H       -1.73806421       1.72638436       0.48995002
H       -0.07352186       2.21172470       0.13044084
H       -1.09938306       1.52883327      -1.15148441
H        1.06026443       0.20258414      -1.29331958
H        1.73041544      -1.37626956      -0.73666568
H        2.02650850      -0.06685583       1.59986514
15
Frame=9 idx=000983 GeodesicLength=0.3981637756633786 rxn_smarts="[C:1]([N:2]([C:3]([H:10])([H:11])[H:12])[C:4]([C:5](=[O:6])[H:15])([H:13])[H:14])([H:7])([H:8])[H:9]>>[C:1]([N:2]([C:3]([H:10])([H:11])[H:12])/[C:4](=[C:5](/[O:6][H:14])[H:15])[H:13])([H:7])([H:8])[H:9]"
C       -1.40098197      -0.86495894       0.12787162
N       -0.37661543       0.14315305       0.31215540
C       -0.83321500       1.46467507      -0.06579895
C        0.86098985      -0.21533564      -0.29690886
C        2.02992223      -0.21928782       0.50984083
O        2.84273858      -1.10537714       0.06824993
H       -1.69961174      -0.97972127      -0.92763442
H       -2.29018861      -0.59180875       0.70040254
H       -1.04650618      -1.82764970       0.49624486
H       -1.72512259       1.72508324       0.50677272
H       -0.05734312       2.20079197       0.14858888
H       -1.08955120       1.53576263      -1.13701413
H        1.03618147       0.16257052      -1.31285823
H        1.73233350      -1.39987258      -0.71657441
H        2.01697021      -0.02802464       1.58666222
15
Frame=10 idx=000983 GeodesicLength=0.4436159464626549 rxn_smarts="[C:1]([N:2]([C:3]([H:10])([H:11])[H:12])[C:4]([C:5](=[O:6])[H:15])([H:13])[H:14])([H:7])([H:8])[H:9]>>[C:1]([N:2]([C:3]([H:10])([H:11])[H:12])/[C:4](=[C:5](/[O:6][H:14])[H:15])[H:13])([H:7])([H:8])[H:9]"
C       -1.40684920      -0.86613708       0.11834482
N       -0.37606450       0.13274882       0.31511303
C       -0.82291133       1.46082931      -0.05214071
C        0.85797555      -0.22846652      -0.30121510
C        2.03362151      -0.18845023       0.49680955
O        2.85281067      -1.08161947       0.07897835
H       -1.70311040      -0.96943034      -0.93911939
H       -2.29620374      -0.59109348       0.68968564
H       -1.06100322      -1.83446818       0.48024504
H       -1.71242966       1.72347540       0.52306189
H       -0.04149901       2.18973510       0.16691233
H       -1.07895667       1.54227457      -1.12272277
H        1.01246079       0.12260799      -1.33041151
H        1.73430882      -1.42284048      -0.69588179
H        2.00785039       0.01083460       1.57234061
15
Frame=11 idx=000983 GeodesicLength=0.48940726261112777 rxn_smarts="[C:1]([N:2]([C:3]([H:10])([H:11])[H:12])[C:4]([C:5](=[O:6])[H:15])([H:13])[H:14])([H:7])([H:8])[H:9]>>[C:1]([N:2]([C:3]([H:10])([H:11])[H:12])/[C:4](=[C:5](/[O:6][H:14])[H:15])[H:13])([H:7])([H:8])[H:9]"
C       -1.41270539      -0.86714626       0.10885197
N       -0.37557340       0.12229855       0.31828549
C       -0.81258600       1.45672105      -0.03854783
C        0.85506865      -0.24152896      -0.30494098
C        2.03667916      -0.15825339       0.48300208
O        2.86247270      -1.05748555       0.08875543
H       -1.70631291      -0.95894559      -0.95051776
H       -2.30228298      -0.59015554       0.67883990
H       -1.07563728      -1.84105630       0.46416905
H       -1.69994850       1.72157506       0.53890006
H       -0.02597989       2.17855688       0.18543184
H       -1.06763795       1.54840851      -1.10856942
H        0.98905775       0.08258572      -1.34612929
H        1.73636357      -1.44525445      -0.67447589
H        1.99902247       0.04968026       1.55694537
15
Frame=12 idx=000983 GeodesicLength=0.5354663586297168 rxn_smarts="[C:1]([N:2]([C:3]([H:10])([H:11])[H:12])[C:4]([C:5](=[O:6])[H:15])([H:13])[H:14])([H:7])([H:8])[H:9]>>[C:1]([N:2]([C:3]([H:10])([H:11])[H:12])/[C:4](=[C:5](/[O:6][H:14])[H:15])[H:13])([H:7])([H:8])[H:9]"
C       -1.41847387      -0.86797824       0.09945972
N       -0.37511625       0.11188066       0.32164663
C       -0.80230335       1.45239752      -0.02507826
C        0.85230186      -0.25442191      -0.30814588
C        2.03911095      -0.12877223       0.46849180
O        2.87167732      -1.03312269       0.09757881
H       -1.70914899      -0.94835653      -0.96175320
H       -2.30835402      -0.58899417       0.66793896
H       -1.09026289      -1.84735283       0.44815116
H       -1.68776154       1.71941915       0.55422856
H       -0.01086514       2.16734746       0.20405995
H       -1.05569840       1.55413545      -1.09461451
H        0.96610479       0.04273933      -1.36007144
H        1.73847423      -1.46704170      -0.65251244
H        1.99031532       0.08812072       1.54062013
15
Frame=13 idx=000983 GeodesicLength=0.5817367564036366 rxn_smarts="[C:1]([N:2]([C:3]([H:10])([H:11])[H:12])[C:4]([C:5](=[O:6])[H:15])([H:13])[H:14])([H:7])([H:8])[H:9]>>[C:1]([N:2]([C:3]([H:10])([H:11])[H:12])/[C:4](=[C:5](/[O:6][H:14])[H:15])[H:13])([H:7])([H:8])[H:9]"
C       -1.42409752      -0.86863036       0.09021620
N       -0.37467108       0.10155004       0.32516473
C       -0.79210523       1.44789889      -0.01178000
C        0.84969203      -0.26707378      -0.31089019
C        2.04092871      -0.10005508       0.45336378
O        2.88040728      -1.00860144       0.10544969
H       -1.71158080      -0.93772455      -0.97276993
H       -2.31435157      -0.58761594       0.65704328
H       -1.10476987      -1.85332022       0.43229009
H       -1.67590594       1.71703954       0.56901401
H        0.00380232       2.15616919       0.22271317
H       -1.04323497       1.55945100      -1.08090312
H        0.94367425       0.00323981      -1.37232812
H        1.74061844      -1.48815355      -0.63010011
H        1.98159397       0.12582645       1.52351653
15
Frame=14 idx=000983 GeodesicLength=0.6281537671971744 rxn_smarts="[C:1]([N:2]([C:3]([H:10])([H:11])[H:12])[C:4]([C:5](=[O:6])[H:15])([H:13])[H:14])([H:7])([H:8])[H:9]>>[C:1]([N:2]([C:3]([H:10])([H:11])[H:12])/[C:4](=[C:5](/[O:6][H:14])[H:15])[H:13])([H:7])([H:8])[H:9]"
C       -1.42952767      -0.86909800       0.08116554
N       -0.37422110       0.09135892       0.32880748
C       -0.78203140       1.44326524       0.00129942
C        0.84724980      -0.27942739      -0.31322923
C        2.04213964      -0.07214480       0.43771844
O        2.88866583      -0.98396158       0.11234826
H       -1.71357864      -0.92711023      -0.98351439
H       -2.32021890      -0.58601727       0.64620545
H       -1.11905971      -1.85892093       0.41668331
H       -1.66441612       1.71447689       0.58321841
H        0.01798634       2.14507528       0.24130622
H       -1.03034433       1.56434950      -1.06747484
H        0.92182457      -0.03576525      -1.38298734
H        1.74278714      -1.50854767      -0.60735093
H        1.97274454       0.16246727       1.50580420
15
Frame=15 idx=000983 GeodesicLength=0.6746665267562557 rxn_smarts="[C:1]([N:2]([C:3]([H:10])([H:11])[H:12])[C:4]([C:5](=[O:6])[H:15])([H:13])[H:14])([H:7])([H:8])[H:9]>>[C:1]([N:2]([C:3]([H:10])([H:11])[H:12])/[C:4](=[C:5](/[O:6][H:14])[H:15])[H:13])([H:7])([H:8])[H:9]"
C       -1.43472721      -0.86938713       0.07233977
N       -0.37375283       0.08134871       0.33254309
C       -0.77211319       1.43853694       0.01412417
C        0.84498228      -0.29143700      -0.31522178
C        2.04275575      -0.04507232       0.42165707
O        2.89644426      -0.95926894       0.11829116
H       -1.71512460      -0.91657292      -0.99395263
H       -2.32591137      -0.58420684       0.63547046
H       -1.13305208      -1.86413825       0.40141091
H       -1.65331072       1.71177204       0.59683057
H        0.03166936       2.13411542       0.25976104
H       -1.01712482       1.56883801      -1.05435935
H        0.90060668      -0.07414295      -1.39215437
H        1.74496658      -1.52819932      -0.58438451
H        1.96369191       0.19781453       1.48764438
15
Frame=16 idx=000983 GeodesicLength=0.7212270535078447 rxn_smarts="[C:1]([N:2]([C:3]([H:10])([H:11])[H:12])[C:4]([C:5](=[O:6])[H:15])([H:13])[H:14])([H:7])([H:8])[H:9]>>[C:1]([N:2]([C:3]([H:10])([H:11])[H:12])/[C:4](=[C:5](/[O:6][H:14])[H:15])[H:13])([H:7])([H:8])[H:9]"
C       -1.43966721      -0.86950661       0.06376166
N       -0.37325490       0.07155246       0.33633861
C       -0.76237502       1.43374946       0.02666571
C        0.84289334      -0.30306657      -0.31692604
C        2.04279226      -0.01885928       0.40528117
O        2.90373068      -0.93459743       0.12332237
H       -1.71621138      -0.90616530      -1.00406041
H       -2.33139119      -0.58219689       0.62487513
H       -1.14667927      -1.86896343       0.38653737
H       -1.64259331       1.70896187       0.60985587
H        0.04484838       2.12332742       0.27800014
H       -1.00367769       1.57292749      -1.04157521
H        0.88005777      -0.11177699      -1.39993946
H        1.74714226      -1.54709251      -0.56132448
H        1.95438528       0.23170630       1.46918755
