12
Frame=0 idx=002525 GeodesicLength=0.0 rxn_smarts="[C:1](/[C:2](=[N:3]\[H:10])[N:4]([C:5](=[O:6])[H:12])[H:11])([H:7])([H:8])[H:9]>>[C:1]([N+:3](=[C-:2][N:4]([C:5](=[O:6])[H:12])[H:11])[H:10])([H:7])([H:8])[H:9]"
C       -1.36796213       0.60942360       0.82661729
C        0.23407163       0.68649499      -0.00251516
N       -0.66453383       1.36225331      -0.69793688
N        0.78400010      -0.43463206      -0.59054466
C        1.80303028      -1.14855827      -0.00399938
O        2.30403273      -2.12329401      -0.49703808
H       -2.32501914       0.48696792       0.31345510
H       -1.37747744       1.43461736       1.52237325
H       -1.12091976      -0.33832167       1.30630493
H       -0.86132497       0.94839510      -1.63352044
H        0.48986978      -0.76151992      -1.50948295
H        2.10223279      -0.72182638       0.96628695
12
Frame=1 idx=002525 GeodesicLength=0.045302041727422 rxn_smarts="[C:1](/[C:2](=[N:3]\[H:10])[N:4]([C:5](=[O:6])[H:12])[H:11])([H:7])([H:8])[H:9]>>[C:1]([N+:3](=[C-:2][N:4]([C:5](=[O:6])[H:12])[H:11])[H:10])([H:7])([H:8])[H:9]"
C       -1.36570772       0.61724744       0.82550788
C        0.23178909       0.67998063      -0.01751814
N       -0.66771570       1.34483647      -0.71562481
N        0.79525493      -0.43721268      -0.59832108
C        1.80542027      -1.15034613       0.00426081
O        2.34416530      -2.09880966      -0.50025531
H       -2.34363187       0.55085575       0.34261077
H       -1.32987486       1.42411134       1.54263125
H       -1.15641422      -0.35033427       1.28327059
H       -0.91084960       0.91302491      -1.62955025
H        0.52999942      -0.75036747      -1.53040099
H        2.06756497      -0.74298634       0.99338928
12
Frame=2 idx=002525 GeodesicLength=0.08970864454298601 rxn_smarts="[C:1](/[C:2](=[N:3]\[H:10])[N:4]([C:5](=[O:6])[H:12])[H:11])([H:7])([H:8])[H:9]>>[C:1]([N+:3](=[C-:2][N:4]([C:5](=[O:6])[H:12])[H:11])[H:10])([H:7])([H:8])[H:9]"
C       -1.36249031       0.62420073       0.82424383
C        0.22978971       0.67502211      -0.03361050
N       -0.67266355       1.32641339      -0.73412966
N        0.80761506      -0.43752153      -0.60737521
C        1.80597984      -1.15220198       0.01264046
O        2.38119778      -2.07465116      -0.49986330
H       -2.35741546       0.61308804       0.37301714
H       -1.28259064       1.41047620       1.56140188
H       -1.19061445      -0.36072668       1.26031245
H       -0.96024994       0.87758703      -1.62420914
H        0.57079137      -0.73709841      -1.55115435
H        2.03065060      -0.76458774       1.01872639
12
Frame=3 idx=002525 GeodesicLength=0.13355349685985557 rxn_smarts="[C:1](/[C:2](=[N:3]\[H:10])[N:4]([C:5](=[O:6])[H:12])[H:11])([H:7])([H:8])[H:9]>>[C:1]([N+:3](=[C-:2][N:4]([C:5](=[O:6])[H:12])[H:11])[H:10])([H:7])([H:8])[H:9]"
C       -1.36014743       0.63133263       0.82259866
C        0.22748159       0.66920967      -0.04889987
N       -0.67746797       1.30703244      -0.75244259
N        0.81873536      -0.43914967      -0.61538277
C        1.80768543      -1.15355233       0.01978063
O        2.42010863      -2.04805358      -0.49938559
H       -2.36766175       0.67720603       0.40291615
H       -1.23650582       1.39427309       1.57900082
H       -1.22825099      -0.36908164       1.23711058
H       -1.00745023       0.84306497      -1.61726987
H        0.60857095      -0.72583608      -1.56913030
H        1.99490221      -0.78644553       1.04110415
12
Frame=4 idx=002525 GeodesicLength=0.17672278965000554 rxn_smarts="[C:1](/[C:2](=[N:3]\[H:10])[N:4]([C:5](=[O:6])[H:12])[H:11])([H:7])([H:8])[H:9]>>[C:1]([N+:3](=[C-:2][N:4]([C:5](=[O:6])[H:12])[H:11])[H:10])([H:7])([H:8])[H:9]"
C       -1.35789561       0.63818583       0.82065306
C        0.22525292       0.66361246      -0.06403968
N       -0.68256599       1.28704864      -0.77069369
N        0.82969523      -0.44049458      -0.62329191
C        1.80916285      -1.15486055       0.02632857
O        2.45905053      -2.01969640      -0.49762307
H       -2.37362819       0.74089588       0.43237315
H       -1.19193265       1.37544509       1.59519783
H       -1.26704408      -0.37533762       1.21418640
H       -1.05300924       0.80976776      -1.60901479
H        0.64363681      -0.71592691      -1.58503411
H        1.95927742      -0.80863961       1.06095824
12
Frame=5 idx=002525 GeodesicLength=0.21910142641963334 rxn_smarts="[C:1](/[C:2](=[N:3]\[H:10])[N:4]([C:5](=[O:6])[H:12])[H:11])([H:7])([H:8])[H:9]>>[C:1]([N+:3](=[C-:2][N:4]([C:5](=[O:6])[H:12])[H:11])[H:10])([H:7])([H:8])[H:9]"
C       -1.35487252       0.64386074       0.81853789
C        0.22346550       0.66000672      -0.07986170
N       -0.68901645       1.26682422      -0.78912975
N        0.84239850      -0.43876777      -0.63236431
C        1.80874558      -1.15636598       0.03306971
O        2.49246464      -1.99415187      -0.49171964
H       -2.37507669       0.80108337       0.46180935
H       -1.14910828       1.35360492       1.61005973
H       -1.30402912      -0.38036109       1.19168909
H       -1.09786976       0.77741106      -1.59964082
H        0.67848961      -0.70441825      -1.60055647
H        1.92440900      -0.82872607       1.07810693
12
Frame=6 idx=002525 GeodesicLength=0.2613495192119207 rxn_smarts="[C:1](/[C:2](=[N:3]\[H:10])[N:4]([C:5](=[O:6])[H:12])[H:11])([H:7])([H:8])[H:9]>>[C:1]([N+:3](=[C-:2][N:4]([C:5](=[O:6])[H:12])[H:11])[H:10])([H:7])([H:8])[H:9]"
C       -1.35284373       0.65004660       0.81594718
C        0.22134025       0.65463335      -0.09453272
N       -0.69452907       1.24567363      -0.80677579
N        0.85299588      -0.43954049      -0.63977437
C        1.81042472      -1.15690405       0.03833998
O        2.53018375      -1.96340197      -0.48718597
H       -2.37293377       0.86349821       0.48983211
H       -1.10760218       1.32934521       1.62358698
H       -1.34524596      -0.38246619       1.16916649
H       -1.14040566       0.74679028      -1.58880639
H        0.70848339      -0.69707422      -1.61284413
H        1.89013240      -0.85060037       1.09304664
12
Frame=7 idx=002525 GeodesicLength=0.3029241237207354 rxn_smarts="[C:1](/[C:2](=[N:3]\[H:10])[N:4]([C:5](=[O:6])[H:12])[H:11])([H:7])([H:8])[H:9]>>[C:1]([N+:3](=[C-:2][N:4]([C:5](=[O:6])[H:12])[H:11])[H:10])([H:7])([H:8])[H:9]"
C       -1.35086632       0.65506203       0.81316516
C        0.21936649       0.65046803      -0.10906510
N       -0.70069821       1.22460666      -0.82402408
N        0.86475589      -0.43822505      -0.64752883
C        1.81208082      -1.15663141       0.04335549
O        2.56193497      -1.93707369      -0.47948958
H       -2.36711606       0.92298371       0.51700904
H       -1.06885699       1.30201755       1.63611492
H       -1.38618975      -0.38348739       1.14691535
H       -1.18158596       0.71809203      -1.57717928
H        0.73739801      -0.68926782      -1.62433802
H        1.85977711      -0.86854465       1.10506493
12
Frame=8 idx=002525 GeodesicLength=0.34415449648909996 rxn_smarts="[C:1](/[C:2](=[N:3]\[H:10])[N:4]([C:5](=[O:6])[H:12])[H:11])([H:7])([H:8])[H:9]>>[C:1]([N+:3](=[C-:2][N:4]([C:5](=[O:6])[H:12])[H:11])[H:10])([H:7])([H:8])[H:9]"
C       -1.34920627       0.65955302       0.81021620
C        0.21735416       0.64647271      -0.12322470
N       -0.70703357       1.20321907      -0.84079447
N        0.87654687      -0.43645013      -0.65499749
C        1.81405780      -1.15586160       0.04794621
O        2.59147445      -1.91188043      -0.47062033
H       -2.35790053       0.98092320       0.54320681
H       -1.03240934       1.27229622       1.64748448
H       -1.42809641      -0.38262225       1.12525974
H       -1.22141958       0.69110008      -1.56470297
H        0.76471378      -0.68208242      -1.63475139
H        1.83191864      -0.88466748       1.11497792
12
Frame=9 idx=002525 GeodesicLength=0.3853586399612377 rxn_smarts="[C:1](/[C:2](=[N:3]\[H:10])[N:4]([C:5](=[O:6])[H:12])[H:11])([H:7])([H:8])[H:9]>>[C:1]([N+:3](=[C-:2][N:4]([C:5](=[O:6])[H:12])[H:11])[H:10])([H:7])([H:8])[H:9]"
C       -1.34731679       0.66382851       0.80732676
C        0.21526470       0.64280026      -0.13778413
N       -0.71416224       1.18083870      -0.85760836
N        0.88843164      -0.43410582      -0.66265713
C        1.81570531      -1.15480512       0.05224020
O        2.62037671      -1.88591204      -0.46052624
H       -2.34503709       1.03754738       0.56923204
H       -0.99713672       1.24081202       1.65747227
H       -1.47015986      -0.37940174       1.10490550
H       -1.26080280       0.66441065      -1.55129767
H        0.79193288      -0.67448992      -1.64500771
H        1.80290427      -0.90152288       1.12370448
12
Frame=10 idx=002525 GeodesicLength=0.4263449774905518 rxn_smarts="[C:1](/[C:2](=[N:3]\[H:10])[N:4]([C:5](=[O:6])[H:12])[H:11])([H:7])([H:8])[H:9]>>[C:1]([N+:3](=[C-:2][N:4]([C:5](=[O:6])[H:12])[H:11])[H:10])([H:7])([H:8])[H:9]"
C       -1.34519375       0.66754286       0.80447764
C        0.21313679       0.63977971      -0.15258078
N       -0.72212665       1.15759086      -0.87428515
N        0.90086178      -0.43047039      -0.67052942
C        1.81680319      -1.15345538       0.05635879
O        2.64652536      -1.86151829      -0.44885822
H       -2.32883572       1.09182840       0.59472842
H       -0.96354887       1.20775646       1.66604049
H       -1.51183703      -0.37426670       1.08591844
H       -1.29969868       0.63815274      -1.53699845
H        0.81961109      -0.66553255      -1.65520185
H        1.77430249      -0.91740772       1.13093009
12
Frame=11 idx=002525 GeodesicLength=0.4674848453110169 rxn_smarts="[C:1](/[C:2](=[N:3]\[H:10])[N:4]([C:5](=[O:6])[H:12])[H:11])([H:7])([H:8])[H:9]>>[C:1]([N+:3](=[C-:2][N:4]([C:5](=[O:6])[H:12])[H:11])[H:10])([H:7])([H:8])[H:9]"
C       -1.34289307       0.67124894       0.80180535
C        0.21076452       0.63670997      -0.16779233
N       -0.73094540       1.13290569      -0.89099527
N        0.91313034      -0.42671017      -0.67854390
C        1.81745425      -1.15218267       0.06012343
O        2.67304843      -1.83536994      -0.43619681
H       -2.30912252       1.14522268       0.61991581
H       -0.93097420       1.17354527       1.67317202
H       -1.55393016      -0.36649988       1.06880346
H       -1.33843598       0.61169886      -1.52169121
H        0.84803357      -0.65557734      -1.66554224
H        1.74387022      -0.93499140       1.13694169
12
Frame=12 idx=002525 GeodesicLength=0.5086253972816854 rxn_smarts="[C:1](/[C:2](=[N:3]\[H:10])[N:4]([C:5](=[O:6])[H:12])[H:11])([H:7])([H:8])[H:9]>>[C:1]([N+:3](=[C-:2][N:4]([C:5](=[O:6])[H:12])[H:11])[H:10])([H:7])([H:8])[H:9]"
C       -1.34081871       0.67456228       0.79912629
C        0.20817006       0.63356402      -0.18289154
N       -0.74018947       1.10723362      -0.90729468
N        0.92541622      -0.42259337      -0.68639064
C        1.81824008      -1.15054907       0.06353317
O        2.69807246      -1.80983580      -0.42272017
H       -2.28631047       1.19720248       0.64417921
H       -0.90031266       1.13767503       1.67902091
H       -1.59682394      -0.35652309       1.05304464
H       -1.37646866       0.58605973      -1.50554443
H        0.87638847      -0.64502246      -1.67545009
H        1.71463663      -0.95177338       1.14138733
12
Frame=13 idx=002525 GeodesicLength=0.5498758858063888 rxn_smarts="[C:1](/[C:2](=[N:3]\[H:10])[N:4]([C:5](=[O:6])[H:12])[H:11])([H:7])([H:8])[H:9]>>[C:1]([N+:3](=[C-:2][N:4]([C:5](=[O:6])[H:12])[H:11])[H:10])([H:7])([H:8])[H:9]"
C       -1.33851862       0.67769700       0.79662062
C        0.20532067       0.63063944      -0.19843578
N       -0.75039787       1.07998333      -0.92351644
N        0.93799014      -0.41769739      -0.69450302
C        1.81856089      -1.14878913       0.06660993
O        2.72241558      -1.78369273      -0.40802477
H       -2.26021419       1.24760568       0.66786880
H       -0.87086015       1.10102611       1.68335592
H       -1.63956949      -0.34404291       1.03948760
H       -1.41434109       0.56000396      -1.48838291
H        0.90589147      -0.63279656      -1.68556189
H        1.68372266      -0.96993681       1.14448193
12
Frame=14 idx=002525 GeodesicLength=0.5913061639926072 rxn_smarts="[C:1](/[C:2](=[N:3]\[H:10])[N:4]([C:5](=[O:6])[H:12])[H:11])([H:7])([H:8])[H:9]>>[C:1]([N+:3](=[C-:2][N:4]([C:5](=[O:6])[H:12])[H:11])[H:10])([H:7])([H:8])[H:9]"
C       -1.33604652       0.68078318       0.79433504
C        0.20218005       0.62763274      -0.21436595
N       -0.76153358       1.05084389      -0.93958991
N        0.95073351      -0.41230099      -0.70282135
C        1.81831378      -1.14730965       0.06923401
O        2.74680685      -1.75604423      -0.39209084
H       -2.23089062       1.29663173       0.69075745
H       -0.84261008       1.06407395       1.68614104
H       -1.68240176      -0.32878110       1.02845588
H       -1.45220405       0.53340293      -1.47009904
H        0.93679763      -0.61864443      -1.69584036
H        1.65085480      -0.99028804       1.14588402
12
Frame=15 idx=002525 GeodesicLength=0.6328182184662993 rxn_smarts="[C:1](/[C:2](=[N:3]\[H:10])[N:4]([C:5](=[O:6])[H:12])[H:11])([H:7])([H:8])[H:9]>>[C:1]([N+:3](=[C-:2][N:4]([C:5](=[O:6])[H:12])[H:11])[H:10])([H:7])([H:8])[H:9]"
C       -1.33441879       0.68347404       0.79187188
C        0.19857435       0.62364898      -0.22955546
N       -0.77248288       1.02064372      -0.95475566
N        0.96283562      -0.40757921      -0.71043431
C        1.81901756      -1.14533994       0.07141967
O        2.77031712      -1.72854358      -0.37623444
H       -2.19837911       1.34504474       0.71212422
H       -0.81700385       1.02469179       1.68798596
H       -1.72749395      -0.31086896       1.01811298
H       -1.48907613       0.50859975      -1.45120066
H        0.96663450      -0.60487750      -1.70503415
H        1.62147557      -1.00889383       1.14569998
12
Frame=16 idx=002525 GeodesicLength=0.6743558754822692 rxn_smarts="[C:1](/[C:2](=[N:3]\[H:10])[N:4]([C:5](=[O:6])[H:12])[H:11])([H:7])([H:8])[H:9]>>[C:1]([N+:3](=[C-:2][N:4]([C:5](=[O:6])[H:12])[H:11])[H:10])([H:7])([H:8])[H:9]"
C       -1.33289837       0.68600243       0.78954420
C        0.19461000       0.61944502      -0.24482543
N       -0.78411387       0.98858039      -0.96946608
N        0.97518730      -0.40228173      -0.71809026
C        1.81974255      -1.14321020       0.07314698
O        2.79325742      -1.70049779      -0.35955528
H       -2.16296219       1.39164039       0.73228045
H       -0.79322671       0.98513302       1.68837849
H       -1.77272819      -0.29004776       1.01021071
H       -1.52562759       0.48370954      -1.43138228
H        0.99743094      -0.58938150      -1.71408380
H        1.59132872      -1.02909182       1.14384230
