15
Frame=0 idx=010472 GeodesicLength=0.0 rxn_smarts="[C:1]([C@@:2]([O:3][H:11])([C:4]([O:5][H:14])([H:12])[H:13])[C:6]#[C:7][H:15])([H:8])([H:9])[H:10]>>[C:1](=[C:2]([C:4]([O:5][H:14])([H:12])[H:13])[C:6]#[C:7][H:15])([H:8])[H:9].[O:3]([H:10])[H:11]"
C       -0.50034771      -1.40582038       0.85115522
C       -0.08571910      -0.19510944       0.22793574
O       -0.78585486      -0.75202649      -1.43576063
C       -0.88035840       1.07453780       0.42559651
O       -0.61337527       2.09817211      -0.48662869
C        1.30669607       0.00099701      -0.08074100
C        2.46529078       0.20761383      -0.30611932
H       -1.39470841      -1.35756691       1.46300150
H        0.26951473      -2.09333089       1.17700262
H       -0.82134056      -1.57674935      -0.50722547
H       -0.16520191      -0.88919235      -2.16166101
H       -0.68178140       1.38999512       1.46073372
H       -1.93905393       0.83170156       0.34227091
H        0.32712463       2.29363704      -0.46855826
H        3.49911540       0.37314138      -0.50100180
15
Frame=1 idx=010472 GeodesicLength=0.06821522559409171 rxn_smarts="[C:1]([C@@:2]([O:3][H:11])([C:4]([O:5][H:14])([H:12])[H:13])[C:6]#[C:7][H:15])([H:8])([H:9])[H:10]>>[C:1](=[C:2]([C:4]([O:5][H:14])([H:12])[H:13])[C:6]#[C:7][H:15])([H:8])[H:9].[O:3]([H:10])[H:11]"
C       -0.50192427      -1.40922764       0.84814934
C       -0.08592804      -0.19552739       0.23091529
O       -0.78490516      -0.74368122      -1.44441656
C       -0.87815690       1.07441181       0.43764245
O       -0.63988251       2.09162934      -0.48927856
C        1.30957821       0.00116424      -0.06736886
C        2.47165922       0.19874330      -0.28301168
H       -1.39965899      -1.36408556       1.45570198
H        0.26961054      -2.08496346       1.19485359
H       -0.81952906      -1.59315346      -0.52447499
H       -0.14980809      -0.82549871      -2.16574589
H       -0.65880742       1.40111509       1.46459612
H       -1.93847340       0.82851370       0.38145008
H        0.30339382       2.26522101      -0.54071158
H        3.50283205       0.35533895      -0.49830072
15
Frame=2 idx=010472 GeodesicLength=0.1361080094870314 rxn_smarts="[C:1]([C@@:2]([O:3][H:11])([C:4]([O:5][H:14])([H:12])[H:13])[C:6]#[C:7][H:15])([H:8])([H:9])[H:10]>>[C:1](=[C:2]([C:4]([O:5][H:14])([H:12])[H:13])[C:6]#[C:7][H:15])([H:8])[H:9].[O:3]([H:10])[H:11]"
C       -0.50374446      -1.41247229       0.84519999
C       -0.08580641      -0.19590682       0.23426647
O       -0.78217342      -0.73560231      -1.45325650
C       -0.87546094       1.07447458       0.44937957
O       -0.66325486       2.08549385      -0.49029112
C        1.31283814       0.00112204      -0.05303678
C        2.47735940       0.19091363      -0.26264744
H       -1.40539365      -1.37017966       1.44754913
H        0.26844872      -2.07636329       1.21341309
H       -0.81740974      -1.60950646      -0.54203104
H       -0.13483088      -0.76287433      -2.16737855
H       -0.63721244       1.41176840       1.46820039
H       -1.93673658       0.82612444       0.41828699
H        0.27778942       2.23423496      -0.61022377
H        3.50558771       0.33877328      -0.49743046
15
Frame=3 idx=010472 GeodesicLength=0.20381943043061373 rxn_smarts="[C:1]([C@@:2]([O:3][H:11])([C:4]([O:5][H:14])([H:12])[H:13])[C:6]#[C:7][H:15])([H:8])([H:9])[H:10]>>[C:1](=[C:2]([C:4]([O:5][H:14])([H:12])[H:13])[C:6]#[C:7][H:15])([H:8])[H:9].[O:3]([H:10])[H:11]"
C       -0.50569909      -1.41555832       0.84229835
C       -0.08537940      -0.19627334       0.23779239
O       -0.77808873      -0.72786041      -1.46229424
C       -0.87227813       1.07472063       0.46075376
O       -0.68345954       2.07976222      -0.49006208
C        1.31638948       0.00083125      -0.03834412
C        2.48250063       0.18393133      -0.24526604
H       -1.41168174      -1.37581535       1.43872467
H        0.26620661      -2.06750954       1.23253234
H       -0.81521962      -1.62588851      -0.55983346
H       -0.12072661      -0.70177788      -2.16685391
H       -0.61676602       1.42192632       1.47157326
H       -1.93402429       0.82453903       0.45288129
H        0.25041288       2.20123094      -0.67664273
H        3.50781358       0.32374163      -0.49725947
15
Frame=4 idx=010472 GeodesicLength=0.2715374727181438 rxn_smarts="[C:1]([C@@:2]([O:3][H:11])([C:4]([O:5][H:14])([H:12])[H:13])[C:6]#[C:7][H:15])([H:8])([H:9])[H:10]>>[C:1](=[C:2]([C:4]([O:5][H:14])([H:12])[H:13])[C:6]#[C:7][H:15])([H:8])[H:9].[O:3]([H:10])[H:11]"
C       -0.50775028      -1.41849764       0.83947072
C       -0.08468563      -0.19658719       0.24148326
O       -0.77262198      -0.72051120      -1.47153363
C       -0.86877662       1.07516353       0.47173871
O       -0.70063750       2.07448442      -0.48887168
C        1.32021175       0.00044235      -0.02329792
C        2.48722449       0.17782134      -0.23045846
H       -1.41851449      -1.38105651       1.42922306
H        0.26295111      -2.05835471       1.25225321
H       -0.81289681      -1.64239285      -0.57785525
H       -0.10725102      -0.64236874      -2.16426870
H       -0.59761077       1.43163439       1.47477408
H       -1.93063382       0.82366446       0.48519325
H        0.22137877       2.16685684      -0.73944423
H        3.50961280       0.30970151      -0.49840643
15
Frame=5 idx=010472 GeodesicLength=0.3390528396472785 rxn_smarts="[C:1]([C@@:2]([O:3][H:11])([C:4]([O:5][H:14])([H:12])[H:13])[C:6]#[C:7][H:15])([H:8])([H:9])[H:10]>>[C:1](=[C:2]([C:4]([O:5][H:14])([H:12])[H:13])[C:6]#[C:7][H:15])([H:8])[H:9].[O:3]([H:10])[H:11]"
C       -0.50974049      -1.42116539       0.83664787
C       -0.08373809      -0.19683269       0.24515089
O       -0.76611132      -0.71358409      -1.48099183
C       -0.86492358       1.07571692       0.48228840
O       -0.71494491       2.06938486      -0.48711559
C        1.32412859      -0.00003879      -0.00842945
C        2.49143641       0.17244572      -0.21816104
H       -1.42552908      -1.38575366       1.41915842
H        0.25887009      -2.04867159       1.27232895
H       -0.81063253      -1.65897452      -0.59609368
H       -0.09475054      -0.58530389      -2.15997873
H       -0.57947740       1.44086141       1.47776993
H       -1.92656419       0.82338052       0.51537094
H        0.19095774       2.13183552      -0.79799483
H        3.51101929       0.29669967      -0.49995024
15
Frame=6 idx=010472 GeodesicLength=0.4066452036788239 rxn_smarts="[C:1]([C@@:2]([O:3][H:11])([C:4]([O:5][H:14])([H:12])[H:13])[C:6]#[C:7][H:15])([H:8])([H:9])[H:10]>>[C:1](=[C:2]([C:4]([O:5][H:14])([H:12])[H:13])[C:6]#[C:7][H:15])([H:8])[H:9].[O:3]([H:10])[H:11]"
C       -0.51169697      -1.42365446       0.83387383
C       -0.08258124      -0.19700661       0.24880864
O       -0.75856808      -0.70714320      -1.49065447
C       -0.86086120       1.07643273       0.49239900
O       -0.72670128       2.06457660      -0.48500610
C        1.32818980      -0.00056331       0.00632552
C        2.49532162       0.16767441      -0.20794900
H       -1.43277689      -1.39002740       1.40860009
H        0.25396507      -2.03862277       1.29271762
H       -0.80843979      -1.67577467      -0.61450499
H       -0.08297396      -0.53049250      -2.15405849
H       -0.56238897       1.44974142       1.48056236
H       -1.92208540       0.82364063       0.54354583
H        0.15939258       2.09663044      -0.85228923
H        3.51220470       0.28458869      -0.50237063
15
Frame=7 idx=010472 GeodesicLength=0.47427501279426054 rxn_smarts="[C:1]([C@@:2]([O:3][H:11])([C:4]([O:5][H:14])([H:12])[H:13])[C:6]#[C:7][H:15])([H:8])([H:9])[H:10]>>[C:1](=[C:2]([C:4]([O:5][H:14])([H:12])[H:13])[C:6]#[C:7][H:15])([H:8])[H:9].[O:3]([H:10])[H:11]"
C       -0.51355383      -1.42592501       0.83111927
C       -0.08123229      -0.19707891       0.25240945
O       -0.75008135      -0.70116690      -1.50052672
C       -0.85664023       1.07727627       0.50208319
O       -0.73625677       2.05992681      -0.48276673
C        1.33233678      -0.00107091       0.02085381
C        2.49890285       0.16343335      -0.19944755
H       -1.44012879      -1.39387271       1.39756408
H        0.24831571      -2.02810683       1.31332890
H       -0.80634090      -1.69278804      -0.63311436
H       -0.07186806      -0.47816925      -2.14673792
H       -0.54623144       1.45832615       1.48314830
H       -1.91727675       0.82432325       0.56992185
H        0.12694950       2.06174561      -0.90218110
H        3.51310559       0.27314711      -0.50565446
15
Frame=8 idx=010472 GeodesicLength=0.5420021841773116 rxn_smarts="[C:1]([C@@:2]([O:3][H:11])([C:4]([O:5][H:14])([H:12])[H:13])[C:6]#[C:7][H:15])([H:8])([H:9])[H:10]>>[C:1](=[C:2]([C:4]([O:5][H:14])([H:12])[H:13])[C:6]#[C:7][H:15])([H:8])[H:9].[O:3]([H:10])[H:11]"
C       -0.51525230      -1.42798817       0.82837565
C       -0.07970904      -0.19702720       0.25590992
O       -0.74077234      -0.69563728      -1.51060873
C       -0.85232482       1.07824630       0.51136442
O       -0.74404019       2.05538545      -0.48057467
C        1.33655800      -0.00150732       0.03504030
C        2.50225806       0.15967859      -0.19236159
H       -1.44748073      -1.39734003       1.38611675
H        0.24202444      -2.01712880       1.33405691
H       -0.80436624      -1.71004797      -0.65193107
H       -0.06142697      -0.42833801      -2.13823938
H       -0.53086930       1.46670833       1.48550314
H       -1.91224039       0.82533830       0.59477610
H        0.09379510       2.02756084      -0.94782963
H        3.51384671       0.26209697      -0.50959813
15
Frame=9 idx=010472 GeodesicLength=0.6097268343034454 rxn_smarts="[C:1]([C@@:2]([O:3][H:11])([C:4]([O:5][H:14])([H:12])[H:13])[C:6]#[C:7][H:15])([H:8])([H:9])[H:10]>>[C:1](=[C:2]([C:4]([O:5][H:14])([H:12])[H:13])[C:6]#[C:7][H:15])([H:8])[H:9].[O:3]([H:10])[H:11]"
C       -0.51671221      -1.42982106       0.82558243
C       -0.07801953      -0.19683816       0.25922223
O       -0.73088407      -0.69052687      -1.52088501
C       -0.84789614       1.07931666       0.52026814
O       -0.75046102       2.05081597      -0.47857840
C        1.34079582      -0.00186248       0.04864732
C        2.50541418       0.15637439      -0.18640226
H       -1.45465554      -1.40042748       1.37429369
H        0.23521221      -2.00561420       1.35473937
H       -0.80261203      -1.72755499      -0.67099499
H       -0.05181520      -0.38112603      -2.12884115
H       -0.51603057       1.47496454       1.48756353
H       -1.90694455       0.82659621       0.61843794
H        0.06009613       1.99437652      -0.98941241
H        3.51451252       0.25132697      -0.51364044
15
Frame=10 idx=010472 GeodesicLength=0.6775332676592567 rxn_smarts="[C:1]([C@@:2]([O:3][H:11])([C:4]([O:5][H:14])([H:12])[H:13])[C:6]#[C:7][H:15])([H:8])([H:9])[H:10]>>[C:1](=[C:2]([C:4]([O:5][H:14])([H:12])[H:13])[C:6]#[C:7][H:15])([H:8])[H:9].[O:3]([H:10])[H:11]"
C       -0.51796161      -1.43145363       0.82276326
C       -0.07618511      -0.19650273       0.26238505
O       -0.72040236      -0.68579685      -1.53134635
C       -0.84340246       1.08050859       0.52883728
O       -0.75582922       2.04623272      -0.47682532
C        1.34507395      -0.00212451       0.06178522
C        2.50842515       0.15339080      -0.18138744
H       -1.46166532      -1.40317950       1.36216571
H        0.22786564      -1.99369698       1.37526408
H       -0.80111562      -1.74532099      -0.69030780
H       -0.04281216      -0.33641689      -2.11862467
H       -0.50165725       1.48318934       1.48932939
H       -1.90145971       0.82806674       0.64112463
H        0.02597775       1.96226452      -1.02727098
H        3.51514833       0.24083938      -0.51789208
15
Frame=11 idx=010472 GeodesicLength=0.7453913186154105 rxn_smarts="[C:1]([C@@:2]([O:3][H:11])([C:4]([O:5][H:14])([H:12])[H:13])[C:6]#[C:7][H:15])([H:8])([H:9])[H:10]>>[C:1](=[C:2]([C:4]([O:5][H:14])([H:12])[H:13])[C:6]#[C:7][H:15])([H:8])[H:9].[O:3]([H:10])[H:11]"
C       -0.51897596      -1.43288287       0.81990129
C       -0.07421161      -0.19600092       0.26540351
O       -0.70938108      -0.68139185      -1.54197349
C       -0.83886256       1.08181622       0.53711643
O       -0.76046176       2.04158089      -0.47535406
C        1.34938431      -0.00225621       0.07446758
C        2.51132467       0.15070061      -0.17711387
H       -1.46846479      -1.40562721       1.34972751
H        0.22002419      -1.98136287       1.39557391
H       -0.79988226      -1.76333629      -0.70990904
H       -0.03433638      -0.29416475      -2.10774045
H       -0.48764530       1.49145011       1.49078942
H       -1.89579224       0.82968685       0.66306471
H       -0.00847002       1.93131454      -1.06167624
H        3.51575078       0.23047375      -0.52227722
15
Frame=12 idx=010472 GeodesicLength=0.8133064107915386 rxn_smarts="[C:1]([C@@:2]([O:3][H:11])([C:4]([O:5][H:14])([H:12])[H:13])[C:6]#[C:7][H:15])([H:8])([H:9])[H:10]>>[C:1](=[C:2]([C:4]([O:5][H:14])([H:12])[H:13])[C:6]#[C:7][H:15])([H:8])[H:9].[O:3]([H:10])[H:11]"
C       -0.51974457      -1.43411513       0.81699433
C       -0.07210516      -0.19532146       0.26828534
O       -0.69787273      -0.67726846      -1.55275172
C       -0.83428813       1.08324392       0.54514672
O       -0.76462257       2.03683671      -0.47418100
C        1.35373064      -0.00224047       0.08670635
C        2.51415045       0.14826457      -0.17344291
H       -1.47502210      -1.40779624       1.33700809
H        0.21172310      -1.96864929       1.41559489
H       -0.79893525      -1.78159924      -0.72982712
H       -0.02633099      -0.25425220      -2.09631594
H       -0.47389703       1.49981060       1.49193121
H       -1.88994471       0.83142289       0.68446789
H       -0.04321645       1.90152391      -1.09295733
H        3.51637551       0.22013989      -0.52665880
15
Frame=13 idx=010472 GeodesicLength=0.8812389147956473 rxn_smarts="[C:1]([C@@:2]([O:3][H:11])([C:4]([O:5][H:14])([H:12])[H:13])[C:6]#[C:7][H:15])([H:8])([H:9])[H:10]>>[C:1](=[C:2]([C:4]([O:5][H:14])([H:12])[H:13])[C:6]#[C:7][H:15])([H:8])[H:9].[O:3]([H:10])[H:11]"
C       -0.52024900      -1.43514993       0.81402482
C       -0.06986679      -0.19445473       0.27102911
O       -0.68594555      -0.67339043      -1.56365388
C       -0.82966963       1.08479061       0.55296463
O       -0.76852729       2.03196393      -0.47330119
C        1.35810401      -0.00206268       0.09848890
C        2.51692313       0.14607067      -0.17023552
H       -1.48129613      -1.40970466       1.32400132
H        0.20299601      -1.95555063       1.43526988
H       -0.79829058      -1.80011054      -0.75009807
H       -0.01878874      -0.21657432      -2.08446956
H       -0.46030518       1.50832274       1.49273349
H       -1.88388357       0.83324256       0.70551789
H       -0.07825287       1.87285424      -1.12140494
H        3.51705216       0.20975316      -0.53086688
15
Frame=14 idx=010472 GeodesicLength=0.9492133900490739 rxn_smarts="[C:1]([C@@:2]([O:3][H:11])([C:4]([O:5][H:14])([H:12])[H:13])[C:6]#[C:7][H:15])([H:8])([H:9])[H:10]>>[C:1](=[C:2]([C:4]([O:5][H:14])([H:12])[H:13])[C:6]#[C:7][H:15])([H:8])[H:9].[O:3]([H:10])[H:11]"
C       -0.52052260      -1.43599719       0.81101214
C       -0.06750258      -0.19340233       0.27367583
O       -0.67358898      -0.66972009      -1.57466765
C       -0.82500909       1.08646594       0.56060437
O       -0.77231008       2.02695770      -0.47270640
C        1.36252252      -0.00173832       0.10991054
C        2.51966688       0.14402621      -0.16742554
H       -1.48730935      -1.41135632       1.31074967
H        0.19382602      -1.94216260       1.45453546
H       -0.79799331      -1.81885806      -0.77074322
H       -0.01157396      -0.18100559      -2.07225227
H       -0.44682367       1.51703303       1.49319852
H       -1.87760699       0.83514753       0.72634058
H       -0.11355900       1.84519258      -1.14729961
H        3.51778418       0.19941752      -0.53493241
15
Frame=15 idx=010472 GeodesicLength=1.0172145646498616 rxn_smarts="[C:1]([C@@:2]([O:3][H:11])([C:4]([O:5][H:14])([H:12])[H:13])[C:6]#[C:7][H:15])([H:8])([H:9])[H:10]>>[C:1](=[C:2]([C:4]([O:5][H:14])([H:12])[H:13])[C:6]#[C:7][H:15])([H:8])[H:9].[O:3]([H:10])[H:11]"
C       -0.52057078      -1.43665992       0.80795781
C       -0.06501068      -0.19215985       0.27625241
O       -0.66080221      -0.66622552      -1.58576923
C       -0.82030221       1.08827250       0.56809749
O       -0.77609022       2.02180069      -0.47237481
C        1.36699254      -0.00126145       0.12102807
C        2.52239770       0.14210578      -0.16492542
H       -1.49306572      -1.41276298       1.29724067
H        0.18421171      -1.92850281       1.47337659
H       -0.79804655      -1.83783761      -0.79179684
H       -0.00461965      -0.14741385      -2.05972257
H       -0.43340826       1.52597707       1.49332342
H       -1.87109418       0.83712479       0.74704330
H       -0.14914821       1.81843468      -1.17087445
H        3.51855672       0.18910848      -0.53885643
15
Frame=16 idx=010472 GeodesicLength=1.0852388139582874 rxn_smarts="[C:1]([C@@:2]([O:3][H:11])([C:4]([O:5][H:14])([H:12])[H:13])[C:6]#[C:7][H:15])([H:8])([H:9])[H:10]>>[C:1](=[C:2]([C:4]([O:5][H:14])([H:12])[H:13])[C:6]#[C:7][H:15])([H:8])[H:9].[O:3]([H:10])[H:11]"
C       -0.52040982      -1.43714316       0.80486921
C       -0.06238918      -0.19073070       0.27878462
O       -0.64758438      -0.66288493      -1.59694010
C       -0.81553538       1.09021458       0.57546954
O       -0.77994338       2.01647957      -0.47228739
C        1.37152382      -0.00064641       0.13189010
C        2.52513129       0.14026584      -0.16267533
H       -1.49857593      -1.41392465       1.28347952
H        0.17414578      -1.91461107       1.49177005
H       -0.79847809      -1.85704544      -0.81328992
H        0.00211959      -0.11566094      -2.04692668
H       -0.42001032       1.53518384       1.49310273
H       -1.86431867       0.83917705       0.76771400
H       -0.18505059       1.79244596      -1.19234762
H        3.51937526       0.17888045      -0.54261272
