12
Frame=0 idx=000785 GeodesicLength=0.0 rxn_smarts="[N:1]([C:2](=[O:3])[C@@:4]1([H:9])[C:5]([H:10])([H:11])[N:6]1[H:12])([H:7])[H:8]>>[C:2](=[O:3])=[C:4]1[C:5]([H:10])([H:11])[N:6]1[H:12].[N:1]([H:7])([H:8])[H:9]"
N        1.64009033      -0.03071651       0.85250207
C        0.75335819       0.79285442      -0.13495492
O        1.15056398       1.78796639      -0.64798072
C       -0.50017380       0.13771325       0.15956895
C       -1.65554416       0.07038943      -0.73170253
N       -0.79110361      -1.11011823      -0.59819282
H        2.24467353       0.54760792       1.42273995
H        2.16397302      -0.76462065       0.38940812
H        0.48587977      -0.24149102       1.24406142
H       -1.61550067       0.54634997      -1.70605557
H       -2.64320504       0.03237828      -0.28381421
H       -1.23301151      -1.76831325       0.03442031
12
Frame=1 idx=000785 GeodesicLength=0.08642553660481675 rxn_smarts="[N:1]([C:2](=[O:3])[C@@:4]1([H:9])[C:5]([H:10])([H:11])[N:6]1[H:12])([H:7])[H:8]>>[C:2](=[O:3])=[C:4]1[C:5]([H:10])([H:11])[N:6]1[H:12].[N:1]([H:7])([H:8])[H:9]"
N        1.64512544      -0.03578946       0.84833871
C        0.74324253       0.81365733      -0.13091701
O        1.13337120       1.82518945      -0.61621844
C       -0.50414458       0.14868397       0.15927681
C       -1.65078764       0.06334190      -0.74274962
N       -0.78275007      -1.11025900      -0.58089020
H        2.28200666       0.52388795       1.40092447
H        2.12982755      -0.78540364       0.36816560
H        0.47768796      -0.23220686       1.26854778
H       -1.60154283       0.52017918      -1.72577871
H       -2.64251033       0.03074036      -0.30363611
H       -1.22952588      -1.76202119       0.05493671
12
Frame=2 idx=000785 GeodesicLength=0.1728633109075724 rxn_smarts="[N:1]([C:2](=[O:3])[C@@:4]1([H:9])[C:5]([H:10])([H:11])[N:6]1[H:12])([H:7])[H:8]>>[C:2](=[O:3])=[C:4]1[C:5]([H:10])([H:11])[N:6]1[H:12].[N:1]([H:7])([H:8])[H:9]"
N        1.65040572      -0.04076333       0.84391284
C        0.73337661       0.83377620      -0.12781025
O        1.11601537       1.86166097      -0.58354095
C       -0.50782399       0.15931999       0.15871882
C       -1.64573155       0.05639118      -0.75356101
N       -0.77489183      -1.11021277      -0.56367756
H        2.31796121       0.50038870       1.37759332
H        2.09601515      -0.80455700       0.34854672
H        0.46989570      -0.22400846       1.29260650
H       -1.58708835       0.49402275      -1.74476012
H       -2.64141013       0.02941543      -0.32324797
H       -1.22672391      -1.75543367       0.07521966
12
Frame=3 idx=000785 GeodesicLength=0.2593174564840005 rxn_smarts="[N:1]([C:2](=[O:3])[C@@:4]1([H:9])[C:5]([H:10])([H:11])[N:6]1[H:12])([H:7])[H:8]>>[C:2](=[O:3])=[C:4]1[C:5]([H:10])([H:11])[N:6]1[H:12].[N:1]([H:7])([H:8])[H:9]"
N        1.65593680      -0.04564140       0.83922753
C        0.72371529       0.85334404      -0.12557820
O        1.09849864       1.89731524      -0.54994909
C       -0.51123649       0.16967391       0.15789977
C       -1.64039958       0.04952488      -0.76416469
N       -0.76748220      -1.10996202      -0.54656063
H        2.35266066       0.47710570       1.35275745
H        2.06254759      -0.82224792       0.33049342
H        0.46241248      -0.21678029       1.31634481
H       -1.57218464       0.46786721      -1.76303293
H       -2.63993393       0.02834767      -0.34269969
H       -1.22453463      -1.74854702       0.09526227
12
Frame=4 idx=000785 GeodesicLength=0.34580366433027193 rxn_smarts="[N:1]([C:2](=[O:3])[C@@:4]1([H:9])[C:5]([H:10])([H:11])[N:6]1[H:12])([H:7])[H:8]>>[C:2](=[O:3])=[C:4]1[C:5]([H:10])([H:11])[N:6]1[H:12].[N:1]([H:7])([H:8])[H:9]"
N        1.66172320      -0.05042714       0.83428919
C        0.71420977       0.87249179      -0.12415100
O        1.08083789       1.93207074      -0.51548339
C       -0.51440707       0.17979277       0.15683236
C       -1.63481356       0.04273520      -0.77458314
N       -0.76047719      -1.10948696      -0.52954120
H        2.38619601       0.45402167       1.32644163
H        2.02944765      -0.83859551       0.31393695
H        0.45515822      -0.21043781       1.33986184
H       -1.55686858       0.44170627      -1.78062430
H       -2.63811217       0.02748621      -0.36203785
H       -1.22289416      -1.74135723       0.11505890
12
Frame=5 idx=000785 GeodesicLength=0.4323203422724473 rxn_smarts="[N:1]([C:2](=[O:3])[C@@:4]1([H:9])[C:5]([H:10])([H:11])[N:6]1[H:12])([H:7])[H:8]>>[C:2](=[O:3])=[C:4]1[C:5]([H:10])([H:11])[N:6]1[H:12].[N:1]([H:7])([H:8])[H:9]"
N        1.66776546      -0.05511564       0.82910925
C        0.70481098       0.89134033      -0.12345528
O        1.06307713       1.96581943      -0.48023195
C       -0.51735646       0.18972092       0.15552871
C       -1.62899792       0.03601763      -0.78482782
N       -0.75383340      -1.10876779      -0.51263872
H        2.41862470       0.43112928       1.29868884
H        1.99674054      -0.85369952       0.29882734
H        0.44805812      -0.20491167       1.36324517
H       -1.54118865       0.41555448      -1.79753823
H       -2.63597025       0.02678046      -0.38128492
H       -1.22173026      -1.73386792       0.13457762
12
Frame=6 idx=000785 GeodesicLength=0.5190483863755183 rxn_smarts="[N:1]([C:2](=[O:3])[C@@:4]1([H:9])[C:5]([H:10])([H:11])[N:6]1[H:12])([H:7])[H:8]>>[C:2](=[O:3])=[C:4]1[C:5]([H:10])([H:11])[N:6]1[H:12].[N:1]([H:7])([H:8])[H:9]"
N        1.67415396      -0.05970008       0.82373081
C        0.69550831       0.91004440      -0.12340775
O        1.04530481       1.99857573      -0.44423678
C       -0.52012771       0.19951673       0.15399436
C       -1.62305390       0.02935913      -0.79494955
N       -0.74755845      -1.10785532      -0.49586736
H        2.45014218       0.40844103       1.26955943
H        1.96453000      -0.86769892       0.28515143
H        0.44107649      -0.20012726       1.38659187
H       -1.52525785       0.38940134      -1.81382615
H       -2.63366129       0.02620160      -0.40053045
H       -1.22105655      -1.72615837       0.15379015
12
Frame=7 idx=000785 GeodesicLength=0.6055900276544993 rxn_smarts="[N:1]([C:2](=[O:3])[C@@:4]1([H:9])[C:5]([H:10])([H:11])[N:6]1[H:12])([H:7])[H:8]>>[C:2](=[O:3])=[C:4]1[C:5]([H:10])([H:11])[N:6]1[H:12].[N:1]([H:7])([H:8])[H:9]"
N        1.68070634      -0.06425977       0.81795008
C        0.68620058       0.92855227      -0.12410600
O        1.02720702       2.03025008      -0.40724282
C       -0.52264373       0.20915419       0.15224208
C       -1.61672226       0.02275954      -0.80492277
N       -0.74157080      -1.10662976      -0.47905571
H        2.48033725       0.38590711       1.23890845
H        1.93269036      -0.88057167       0.27266275
H        0.43415932      -0.19614771       1.40989050
H       -1.50876579       0.36310125      -1.82952753
H       -2.63080793       0.02586522      -0.41974583
H       -1.22079036      -1.71798073       0.17294679
12
Frame=8 idx=000785 GeodesicLength=0.6919723979301836 rxn_smarts="[N:1]([C:2](=[O:3])[C@@:4]1([H:9])[C:5]([H:10])([H:11])[N:6]1[H:12])([H:7])[H:8]>>[C:2](=[O:3])=[C:4]1[C:5]([H:10])([H:11])[N:6]1[H:12].[N:1]([H:7])([H:8])[H:9]"
N        1.68735498      -0.06866381       0.81199162
C        0.67681271       0.94707824      -0.12521200
O        1.00929789       2.06047959      -0.37009719
C       -0.52500483       0.21867135       0.15035177
C       -1.61011050       0.01623481      -0.81463884
N       -0.73573280      -1.10498831      -0.46242826
H        2.50939851       0.36343482       1.20684343
H        1.90111705      -0.89221179       0.26145247
H        0.42703045      -0.19292225       1.43328848
H       -1.49185808       0.33702403      -1.84437558
H       -2.62758771       0.02535703      -0.43883746
H       -1.22071768      -1.70949372       0.19166158
12
Frame=9 idx=000785 GeodesicLength=0.7785611797619899 rxn_smarts="[N:1]([C:2](=[O:3])[C@@:4]1([H:9])[C:5]([H:10])([H:11])[N:6]1[H:12])([H:7])[H:8]>>[C:2](=[O:3])=[C:4]1[C:5]([H:10])([H:11])[N:6]1[H:12].[N:1]([H:7])([H:8])[H:9]"
N        1.69435358      -0.07298329       0.80584465
C        0.66738783       0.96570516      -0.12677485
O        0.99144049       2.08953011      -0.33253377
C       -0.52721532       0.22813326       0.14829872
C       -1.60337951       0.00978500      -0.82424188
N       -0.73017332      -1.10310463      -0.44593424
H        2.53753237       0.34115326       1.17351980
H        1.87012666      -0.90290871       0.25150354
H        0.41986342      -0.19042325       1.45687428
H       -1.47473506       0.31098316      -1.85861870
H       -2.62420389       0.02491129      -0.45798801
H       -1.22099727      -1.70078136       0.21005045
12
Frame=10 idx=000785 GeodesicLength=0.8651915997298638 rxn_smarts="[N:1]([C:2](=[O:3])[C@@:4]1([H:9])[C:5]([H:10])([H:11])[N:6]1[H:12])([H:7])[H:8]>>[C:2](=[O:3])=[C:4]1[C:5]([H:10])([H:11])[N:6]1[H:12].[N:1]([H:7])([H:8])[H:9]"
N        1.70161103      -0.07721669       0.79946705
C        0.65784914       0.98445694      -0.12874057
O        0.97363229       2.11728179      -0.29466712
C       -0.52927090       0.23753801       0.14611848
C       -1.59643804       0.00340540      -0.83369481
N       -0.72481343      -1.10089446      -0.42954959
H        2.56459560       0.31901158       1.13889623
H        1.83963564      -0.91262981       0.24271517
H        0.41254974      -0.18867031       1.48069821
H       -1.45728144       0.28500013      -1.87220795
H       -2.62053248       0.02447562      -0.47716352
H       -1.22153716      -1.69175819       0.22812841
12
Frame=11 idx=000785 GeodesicLength=0.9518174913166819 rxn_smarts="[N:1]([C:2](=[O:3])[C@@:4]1([H:9])[C:5]([H:10])([H:11])[N:6]1[H:12])([H:7])[H:8]>>[C:2](=[O:3])=[C:4]1[C:5]([H:10])([H:11])[N:6]1[H:12].[N:1]([H:7])([H:8])[H:9]"
N        1.70909174      -0.08134441       0.79289687
C        0.64817753       1.00336682      -0.13109923
O        0.95605368       2.14361954      -0.25688007
C       -0.53116761       0.24689265       0.14380104
C       -1.58931707      -0.00288451      -0.84294136
N       -0.71958569      -1.09831962      -0.41336943
H        2.59047060       0.29701497       1.10319129
H        1.80970438      -0.92136222       0.23509796
H        0.40495740      -0.18770267       1.50480163
H       -1.43960533       0.25925623      -1.88505921
H       -2.61657875       0.02395913      -0.49621414
H       -1.22220088      -1.68249591       0.24577466
12
Frame=12 idx=000785 GeodesicLength=1.0384617908669116 rxn_smarts="[N:1]([C:2](=[O:3])[C@@:4]1([H:9])[C:5]([H:10])([H:11])[N:6]1[H:12])([H:7])[H:8]>>[C:2](=[O:3])=[C:4]1[C:5]([H:10])([H:11])[N:6]1[H:12].[N:1]([H:7])([H:8])[H:9]"
N        1.71682834      -0.08537090       0.78613759
C        0.63835944       1.02247622      -0.13382799
O        0.93870527       2.16859883      -0.21922210
C       -0.53290353       0.25621441       0.14135641
C       -1.58202932      -0.00908571      -0.85199196
N       -0.71447721      -1.09539315      -0.39739247
H        2.61519780       0.27516293       1.06642266
H        1.78034138      -0.92918201       0.22864275
H        0.39704187      -0.18751834       1.52924625
H       -1.42172718       0.23374712      -1.89719454
H       -2.61236159       0.02336227      -0.51516401
H       -1.22297526      -1.67301167       0.26298742
12
Frame=13 idx=000785 GeodesicLength=1.1251106460630476 rxn_smarts="[N:1]([C:2](=[O:3])[C@@:4]1([H:9])[C:5]([H:10])([H:11])[N:6]1[H:12])([H:7])[H:8]>>[C:2](=[O:3])=[C:4]1[C:5]([H:10])([H:11])[N:6]1[H:12].[N:1]([H:7])([H:8])[H:9]"
N        1.72481906      -0.08929575       0.77918364
C        0.62836389       1.04181833      -0.13690562
O        0.92162792       2.19222690      -0.18182539
C       -0.53447819       0.26551587       0.13879640
C       -1.57457435      -0.01519545      -0.86083638
N       -0.70945351      -1.09210394      -0.38162823
H        2.63875321       0.25343186       1.02866117
H        1.75156252      -0.93611131       0.22331018
H        0.38872468      -0.18813794       1.55408798
H       -1.40366111       0.20850781      -1.90861114
H       -2.60787549       0.02266103      -0.53398730
H       -1.22380865      -1.66331740       0.27975470
12
Frame=14 idx=000785 GeodesicLength=1.2117631804069549 rxn_smarts="[N:1]([C:2](=[O:3])[C@@:4]1([H:9])[C:5]([H:10])([H:11])[N:6]1[H:12])([H:7])[H:8]>>[C:2](=[O:3])=[C:4]1[C:5]([H:10])([H:11])[N:6]1[H:12].[N:1]([H:7])([H:8])[H:9]"
N        1.73307378      -0.09311905       0.77202312
C        0.61816381       1.06142745      -0.14031786
O        0.90484897       2.21453946      -0.14478627
C       -0.53588984       0.27481027       0.13613115
C       -1.56695251      -0.02121225      -0.86947055
N       -0.70448820      -1.08845034      -0.36607597
H        2.66113208       0.23179642       0.98996220
H        1.72338226      -0.94217810       0.21906598
H        0.37993219      -0.18958455       1.57937984
H       -1.38541581       0.18355644      -1.91931609
H       -2.60312086       0.02184125      -0.55267300
H       -1.22466585      -1.65342700       0.29607745
12
Frame=15 idx=000785 GeodesicLength=1.298416891935365 rxn_smarts="[N:1]([C:2](=[O:3])[C@@:4]1([H:9])[C:5]([H:10])([H:11])[N:6]1[H:12])([H:7])[H:8]>>[C:2](=[O:3])=[C:4]1[C:5]([H:10])([H:11])[N:6]1[H:12].[N:1]([H:7])([H:8])[H:9]"
N        1.74160470      -0.09683986       0.76464354
C        0.60773594       1.08133186      -0.14406069
O        0.88839485       2.23557642      -0.10820000
C       -0.53713242       0.28410956       0.13336633
C       -1.55916574      -0.02713342      -0.87788807
N       -0.69955264      -1.08443053      -0.35074148
H        2.68233088       0.21023213       0.95038260
H        1.69581303      -0.94741152       0.21589033
H        0.37058350      -0.19188295       1.60517232
H       -1.36700858       0.15891590      -1.92931503
H       -2.59809775       0.02088956      -0.57120008
H       -1.22550577      -1.64335715       0.31195023
12
Frame=16 idx=000785 GeodesicLength=1.3850689189755279 rxn_smarts="[N:1]([C:2](=[O:3])[C@@:4]1([H:9])[C:5]([H:10])([H:11])[N:6]1[H:12])([H:7])[H:8]>>[C:2](=[O:3])=[C:4]1[C:5]([H:10])([H:11])[N:6]1[H:12].[N:1]([H:7])([H:8])[H:9]"
N        1.75042548      -0.10045610       0.75702850
C        0.59705652       1.10155732      -0.14813630
O        0.87230239       2.25538136      -0.07217824
C       -0.53819865       0.29342492       0.13050586
C       -1.55122067      -0.03295562      -0.88607938
N       -0.69461641      -1.08004222      -0.33563594
H        2.70234547       0.18870907       0.91000692
H        1.66887328      -0.95183151       0.21375871
H        0.36059043      -0.19506386       1.63151456
H       -1.34846774       0.13461758      -1.93861219
H       -2.59280965       0.01978877      -0.58953554
H       -1.22628045      -1.63312971       0.32736304
