10
Frame=0 idx=009366 GeodesicLength=0.0 rxn_smarts="[C:1](#[C:2][c:3]1[c:4]([H:9])[o:5][n:6][c:7]1[H:10])[H:8]>>[C:1](#[C:2][C:4](=[C:3]=[C:7]([N:6]=[O:5])[H:10])[H:9])[H:8]"
C        2.00396138       0.46528496       0.72441202
C        0.96563864       0.54745931       0.12460829
C       -0.06633916      -0.36319520      -1.11719622
C       -0.41733255       0.84816293      -0.41639219
O       -1.44358018       0.62218070       0.52320912
N       -1.67089481      -0.70990822       0.53394061
C       -0.88782028      -1.27839666      -0.32300159
H        2.93536198       0.37921173       1.23468008
H       -0.47360613       1.84069219      -0.84904828
H       -0.94538889      -2.35149173      -0.43521184
10
Frame=1 idx=009366 GeodesicLength=0.11607963260953118 rxn_smarts="[C:1](#[C:2][c:3]1[c:4]([H:9])[o:5][n:6][c:7]1[H:10])[H:8]>>[C:1](#[C:2][C:4](=[C:3]=[C:7]([N:6]=[O:5])[H:10])[H:9])[H:8]"
C        2.02407506       0.46612169       0.72902545
C        0.98289451       0.54123253       0.13340045
C       -0.06569068      -0.36281962      -1.09371099
C       -0.41429266       0.85224153      -0.41377400
O       -1.47740700       0.61337967       0.52093979
N       -1.70459907      -0.71476104       0.52072318
C       -0.89958789      -1.27962970      -0.32639587
H        2.96575474       0.39553283       1.22249774
H       -0.46583203       1.84177123      -0.85319053
H       -0.94531498      -2.35306913      -0.43951523
10
Frame=2 idx=009366 GeodesicLength=0.2319670559431492 rxn_smarts="[C:1](#[C:2][c:3]1[c:4]([H:9])[o:5][n:6][c:7]1[H:10])[H:8]>>[C:1](#[C:2][C:4](=[C:3]=[C:7]([N:6]=[O:5])[H:10])[H:9])[H:8]"
C        2.04565263       0.46781724       0.73125040
C        1.00104824       0.53543598       0.14092563
C       -0.06571259      -0.36197388      -1.06968140
C       -0.41140246       0.85670640      -0.41067905
O       -1.51226101       0.60440335       0.51833516
N       -1.73803730      -0.71991257       0.50732909
C       -0.91077530      -1.28070137      -0.32932214
H        2.99450179       0.40970210       1.21235719
H       -0.45864489       1.84290783      -0.85736282
H       -0.94436910      -2.35438508      -0.44315206
10
Frame=3 idx=009366 GeodesicLength=0.347849054945333 rxn_smarts="[C:1](#[C:2][c:3]1[c:4]([H:9])[o:5][n:6][c:7]1[H:10])[H:8]>>[C:1](#[C:2][C:4](=[C:3]=[C:7]([N:6]=[O:5])[H:10])[H:9])[H:8]"
C        2.06820928       0.46989892       0.73257529
C        1.01995706       0.52974649       0.14808042
C       -0.06607795      -0.36079426      -1.04466199
C       -0.40854395       0.86146143      -0.40686354
O       -1.54871516       0.59522241       0.51487046
N       -1.77192826      -0.72536916       0.49313276
C       -0.92162903      -1.28168009      -0.33183091
H        3.02325314       0.42300163       1.20243758
H       -0.45153675       1.84399678      -0.86140608
H       -0.94298837      -2.35548415      -0.44633401
10
Frame=4 idx=009366 GeodesicLength=0.46372373926886123 rxn_smarts="[C:1](#[C:2][c:3]1[c:4]([H:9])[o:5][n:6][c:7]1[H:10])[H:8]>>[C:1](#[C:2][C:4](=[C:3]=[C:7]([N:6]=[O:5])[H:10])[H:9])[H:8]"
C        2.09140870       0.47183030       0.73410208
C        1.03952602       0.52380491       0.15558019
C       -0.06659541      -0.35939870      -1.01825933
C       -0.40558607       0.86641138      -0.40204619
O       -1.58718063       0.58584389       0.51006344
N       -1.80677962      -0.73109620       0.47757820
C       -0.93235147      -1.28259789      -0.33397201
H        3.05308693       0.43666189       1.19122663
H       -0.44403429       1.84492100      -0.86506884
H       -0.94149415      -2.35638059      -0.44920416
10
Frame=5 idx=009366 GeodesicLength=0.5795595242158146 rxn_smarts="[C:1](#[C:2][c:3]1[c:4]([H:9])[o:5][n:6][c:7]1[H:10])[H:8]>>[C:1](#[C:2][C:4](=[C:3]=[C:7]([N:6]=[O:5])[H:10])[H:9])[H:8]"
C        2.11576799       0.47420684       0.73434548
C        1.06000307       0.51802830       0.16244112
C       -0.06755719      -0.35758199      -0.99066144
C       -0.40269702       0.87172219      -0.39630957
O       -1.62744077       0.57622459       0.50409859
N       -1.84201687      -0.73720153       0.46115984
C       -0.94268056      -1.28339653      -0.33552610
H        3.08285347       0.44923880       1.18054464
H       -0.43671152       1.84577231      -0.86851450
H       -0.93952060      -2.35701298      -0.45157807
10
Frame=6 idx=009366 GeodesicLength=0.6953790530071139 rxn_smarts="[C:1](#[C:2][c:3]1[c:4]([H:9])[o:5][n:6][c:7]1[H:10])[H:8]>>[C:1](#[C:2][C:4](=[C:3]=[C:7]([N:6]=[O:5])[H:10])[H:9])[H:8]"
C        2.14096216       0.47644708       0.73443987
C        1.08131168       0.51203697       0.16937960
C       -0.06879220      -0.35546364      -0.96142007
C       -0.39974400       0.87729943      -0.38932065
O       -1.66992551       0.56637444       0.49640240
N       -1.87814513      -0.74365468       0.44329210
C       -0.95283312      -1.28410857      -0.33652121
H        3.11366480       0.46204224       1.16880674
H       -0.42908514       1.84642434      -0.87145045
H       -0.93741356      -2.35739761      -0.45360833
10
Frame=7 idx=009366 GeodesicLength=0.8111927621193258 rxn_smarts="[C:1](#[C:2][c:3]1[c:4]([H:9])[o:5][n:6][c:7]1[H:10])[H:8]>>[C:1](#[C:2][C:4](=[C:3]=[C:7]([N:6]=[O:5])[H:10])[H:9])[H:8]"
C        2.16686043       0.47823616       0.73494088
C        1.10345346       0.50562979       0.17672040
C       -0.07026927      -0.35308959      -0.93018665
C       -0.39667322       0.88310939      -0.38080106
O       -1.71491286       0.55629957       0.48648416
N       -1.91538601      -0.75045235       0.42361928
C       -0.96291302      -1.28474254      -0.33690501
H        3.14612080       0.47575137       1.15515841
H       -0.42092471       1.84678976      -0.87365853
H       -0.93535559      -2.35753156      -0.45537188
10
Frame=8 idx=009366 GeodesicLength=0.9269640343946471 rxn_smarts="[C:1](#[C:2][c:3]1[c:4]([H:9])[o:5][n:6][c:7]1[H:10])[H:8]>>[C:1](#[C:2][C:4](=[C:3]=[C:7]([N:6]=[O:5])[H:10])[H:9])[H:8]"
C        2.19418120       0.47957541       0.73438494
C        1.12679665       0.49882865       0.18363114
C       -0.07223120      -0.35035228      -0.89699516
C       -0.39346823       0.88922488      -0.37060350
O       -1.76212895       0.54598181       0.47443269
N       -1.95335645      -0.75762604       0.40243710
C       -0.97281312      -1.28525364      -0.33647726
H        3.17873250       0.49008695       1.14104138
H       -0.41244317       1.84688853      -0.87500879
H       -0.93326922      -2.35735427      -0.45684253
10
Frame=9 idx=009366 GeodesicLength=1.042593134993943 rxn_smarts="[C:1](#[C:2][c:3]1[c:4]([H:9])[o:5][n:6][c:7]1[H:10])[H:8]>>[C:1](#[C:2][C:4](=[C:3]=[C:7]([N:6]=[O:5])[H:10])[H:9])[H:8]"
C        2.22309721       0.48196747       0.73102374
C        1.15153235       0.49271291       0.18845959
C       -0.07499281      -0.34683664      -0.86204194
C       -0.39060101       0.89601669      -0.35899017
O       -1.81146039       0.53524986       0.46026313
N       -1.99122359      -0.76544647       0.38060448
C       -0.98208177      -1.28552583      -0.33484799
H        3.21092419       0.50168762       1.12917538
H       -0.40487987       1.84690669      -0.87601999
H       -0.93031430      -2.35673231      -0.45762622
10
Frame=10 idx=009366 GeodesicLength=1.1582153731613372 rxn_smarts="[C:1](#[C:2][c:3]1[c:4]([H:9])[o:5][n:6][c:7]1[H:10])[H:8]>>[C:1](#[C:2][C:4](=[C:3]=[C:7]([N:6]=[O:5])[H:10])[H:9])[H:8]"
C        2.25359035       0.48417290       0.72572288
C        1.17773739       0.48646832       0.19184782
C       -0.07843801      -0.34278189      -0.82468752
C       -0.38777243       0.90328587      -0.34535654
O       -1.86325754       0.52418980       0.44328949
N       -2.02960898      -0.77379489       0.35737285
C       -0.99110612      -1.28561111      -0.33201812
H        3.24348155       0.51313053       1.11794542
H       -0.39746558       1.84662234      -0.87605036
H       -0.92716064      -2.35568186      -0.45806591
10
Frame=11 idx=009366 GeodesicLength=1.2737626433735436 rxn_smarts="[C:1](#[C:2][c:3]1[c:4]([H:9])[o:5][n:6][c:7]1[H:10])[H:8]>>[C:1](#[C:2][C:4](=[C:3]=[C:7]([N:6]=[O:5])[H:10])[H:9])[H:8]"
C        2.28577352       0.48626854       0.71801241
C        1.20557707       0.48015313       0.19327783
C       -0.08263494      -0.33812899      -0.78453095
C       -0.38500957       0.91110630      -0.32940620
O       -1.91754835       0.51273738       0.42298319
N       -2.06839385      -0.78273287       0.33281029
C       -0.99987171      -1.28547603      -0.32771888
H        3.27628383       0.52421379       1.10776172
H       -0.39035160       1.84598256      -0.87494105
H       -0.92382440      -2.35412381      -0.45824834
10
Frame=12 idx=009366 GeodesicLength=1.3894309195286514 rxn_smarts="[C:1](#[C:2][c:3]1[c:4]([H:9])[o:5][n:6][c:7]1[H:10])[H:8]>>[C:1](#[C:2][C:4](=[C:3]=[C:7]([N:6]=[O:5])[H:10])[H:9])[H:8]"
C        2.32004908       0.48819561       0.70696868
C        1.23526624       0.47367418       0.19216138
C       -0.08764065      -0.33286687      -0.74104554
C       -0.38230825       0.91950787      -0.31072596
O       -1.97443967       0.50091993       0.39887327
N       -2.10762368      -0.79224727       0.30674867
C       -1.00836960      -1.28510679      -0.32159338
H        3.30905555       0.53502261       1.09928654
H       -0.38368028       1.84487482      -0.87239360
H       -0.92030874      -2.35197408      -0.45828007
10
Frame=13 idx=009366 GeodesicLength=1.5051364678451764 rxn_smarts="[C:1](#[C:2][c:3]1[c:4]([H:9])[o:5][n:6][c:7]1[H:10])[H:8]>>[C:1](#[C:2][C:4](=[C:3]=[C:7]([N:6]=[O:5])[H:10])[H:9])[H:8]"
C        2.35663456       0.49008552       0.69149217
C        1.26706000       0.46711911       0.18735917
C       -0.09352722      -0.32695399      -0.69365358
C       -0.37969328       0.92861402      -0.28896770
O       -2.03374388       0.48872191       0.37038242
N       -2.14696277      -0.80238251       0.27964263
C       -1.01657364      -1.28446989      -0.31328016
H        3.34120554       0.54515107       1.09375238
H       -0.37780057       1.84323557      -0.86828003
H       -0.91659875      -2.34912080      -0.45844730
10
Frame=14 idx=009366 GeodesicLength=1.620053951913565 rxn_smarts="[C:1](#[C:2][c:3]1[c:4]([H:9])[o:5][n:6][c:7]1[H:10])[H:8]>>[C:1](#[C:2][C:4](=[C:3]=[C:7]([N:6]=[O:5])[H:10])[H:9])[H:8]"
C        2.39600674       0.49575948       0.66767548
C        1.30098805       0.46256926       0.17644772
C       -0.10022903      -0.31966711      -0.64141580
C       -0.37755822       0.93906424      -0.26411979
O       -2.09470577       0.47536857       0.33698616
N       -2.18529826      -0.81367036       0.25226776
C       -1.02340990      -1.28336485      -0.30120660
H        3.36998422       0.54782926       1.09503931
H       -0.37429670       1.84109519      -0.86321205
H       -0.91148113      -2.34498369      -0.45846221
10
Frame=15 idx=009366 GeodesicLength=1.7350856467953646 rxn_smarts="[C:1](#[C:2][c:3]1[c:4]([H:9])[o:5][n:6][c:7]1[H:10])[H:8]>>[C:1](#[C:2][C:4](=[C:3]=[C:7]([N:6]=[O:5])[H:10])[H:9])[H:8]"
C        2.43684848       0.49837205       0.64278305
C        1.33635599       0.45551269       0.16491926
C       -0.10735005      -0.31265729      -0.58111140
C       -0.37470537       0.94959873      -0.23373151
O       -2.15850249       0.46199688       0.29531216
N       -2.22512360      -0.82502497       0.22110237
C       -1.03128762      -1.28207608      -0.28684696
H        3.40059274       0.55689583       1.09177205
H       -0.36911278       1.83724758      -0.85437820
H       -0.90771531      -2.33986542      -0.45982081
10
Frame=16 idx=009366 GeodesicLength=1.8501090807332512 rxn_smarts="[C:1](#[C:2][c:3]1[c:4]([H:9])[o:5][n:6][c:7]1[H:10])[H:8]>>[C:1](#[C:2][C:4](=[C:3]=[C:7]([N:6]=[O:5])[H:10])[H:9])[H:8]"
C        2.47889170       0.50046885       0.61577975
C        1.37256832       0.44709941       0.15266347
C       -0.11498789      -0.30562316      -0.50985810
C       -0.37175752       0.96072031      -0.19706180
O       -2.22455117       0.44823592       0.24337827
N       -2.26612261      -0.83654767       0.18538756
C       -1.03970061      -1.28050993      -0.26903425
H        3.43307934       0.56811283       1.08348321
H       -0.36332657       1.83123904      -0.84213519
H       -0.90409300      -2.33319560      -0.46260292
