10
Frame=0 idx=005475 GeodesicLength=0.0 rxn_smarts="[C:1]([c:2]1[n:3][o:4][c:5]([H:10])[n:6]1)([H:7])([H:8])[H:9]>>[C:1]([C:2]#[N+:3][O-:4])([H:7])([H:8])[H:9].[C:5](#[N:6])[H:10]"
C       -1.72660693       0.00365625      -0.10694745
C       -0.30416138      -0.19404229      -0.36646190
N        0.57524620      -0.60588908      -1.05274478
O        1.81637219      -0.64251426      -1.03715105
C        1.97226297       0.35651835       0.77387510
N        0.88481716       0.59117415       1.12822514
H       -2.30341810      -0.37820189      -0.94931709
H       -2.02004707      -0.52312940       0.80041212
H       -1.93535222       1.06491260       0.02235458
H        3.04088719       0.32751557       0.78775534
10
Frame=1 idx=005475 GeodesicLength=0.05337104066237581 rxn_smarts="[C:1]([c:2]1[n:3][o:4][c:5]([H:10])[n:6]1)([H:7])([H:8])[H:9]>>[C:1]([C:2]#[N+:3][O-:4])([H:7])([H:8])[H:9].[C:5](#[N:6])[H:10]"
C       -1.73299742       0.00089690      -0.11142174
C       -0.30509541      -0.20124908      -0.34204230
N        0.56937259      -0.59882926      -1.04657148
O        1.81378939      -0.63159771      -1.02490879
C        1.98565859       0.32727854       0.79244390
N        0.90565648       0.60788340       1.14598722
H       -2.29875514      -0.37886499      -0.96225814
H       -2.04699191      -0.52525443       0.78940777
H       -1.94483525       1.06228848       0.01192546
H        3.05419807       0.33744816       0.74743808
10
Frame=2 idx=005475 GeodesicLength=0.10671853019196706 rxn_smarts="[C:1]([c:2]1[n:3][o:4][c:5]([H:10])[n:6]1)([H:7])([H:8])[H:9]>>[C:1]([C:2]#[N+:3][O-:4])([H:7])([H:8])[H:9].[C:5](#[N:6])[H:10]"
C       -1.73888264      -0.00217870      -0.11564825
C       -0.30602866      -0.20896744      -0.31728655
N        0.56332473      -0.58994267      -1.04095184
O        1.81059764      -0.62990964      -1.00798979
C        1.99951651       0.30871950       0.80485734
N        0.92745059       0.62377607       1.16376266
H       -2.29319234      -0.37410706      -0.97748168
H       -2.07463729      -0.53260943       0.77480346
H       -1.95264136       1.05889039       0.00786414
H        3.06449281       0.34632900       0.70807050
10
Frame=3 idx=005475 GeodesicLength=0.16023118568288924 rxn_smarts="[C:1]([c:2]1[n:3][o:4][c:5]([H:10])[n:6]1)([H:7])([H:8])[H:9]>>[C:1]([C:2]#[N+:3][O-:4])([H:7])([H:8])[H:9].[C:5](#[N:6])[H:10]"
C       -1.74435814      -0.00484727      -0.12015098
C       -0.30711905      -0.21789306      -0.29177959
N        0.55687311      -0.58295447      -1.03366539
O        1.80680860      -0.63154908      -0.98951602
C        2.01406175       0.29539759       0.81417975
N        0.94967120       0.63416243       1.18471999
H       -2.28677703      -0.36606549      -0.99407999
H       -2.10319868      -0.54088761       0.75781426
H       -1.95876092       1.05588797       0.00572695
H        3.07279917       0.35874899       0.66675101
10
Frame=4 idx=005475 GeodesicLength=0.21284222916974138 rxn_smarts="[C:1]([c:2]1[n:3][o:4][c:5]([H:10])[n:6]1)([H:7])([H:8])[H:9]>>[C:1]([C:2]#[N+:3][O-:4])([H:7])([H:8])[H:9].[C:5](#[N:6])[H:10]"
C       -1.74948134      -0.00638269      -0.12527146
C       -0.30823415      -0.22196439      -0.26877044
N        0.55020808      -0.57418520      -1.02683866
O        1.80266872      -0.63108064      -0.97269107
C        2.02936737       0.28205082       0.82243320
N        0.97223147       0.63270341       1.21210652
H       -2.28066916      -0.36530956      -1.00700108
H       -2.12713771      -0.54250789       0.74469372
H       -1.96786132       1.05413382      -0.00465202
H        3.07890804       0.37254233       0.62599128
10
Frame=5 idx=005475 GeodesicLength=0.265696247245759 rxn_smarts="[C:1]([c:2]1[n:3][o:4][c:5]([H:10])[n:6]1)([H:7])([H:8])[H:9]>>[C:1]([C:2]#[N+:3][O-:4])([H:7])([H:8])[H:9].[C:5](#[N:6])[H:10]"
C       -1.75411753      -0.00697245      -0.13083044
C       -0.30938511      -0.22617521      -0.24571340
N        0.54347491      -0.56851278      -1.01818585
O        1.79856042      -0.63142955      -0.95577788
C        2.04547069       0.27038294       0.82912313
N        0.99532887       0.62278850       1.24440120
H       -2.27411840      -0.36380746      -1.02007099
H       -2.15105893      -0.54221330       0.73105618
H       -1.97557234       1.05363259      -0.01633628
H        3.08141742       0.39230672       0.58233434
10
Frame=6 idx=005475 GeodesicLength=0.3185081597233744 rxn_smarts="[C:1]([c:2]1[n:3][o:4][c:5]([H:10])[n:6]1)([H:7])([H:8])[H:9]>>[C:1]([C:2]#[N+:3][O-:4])([H:7])([H:8])[H:9].[C:5](#[N:6])[H:10]"
C       -1.75874469      -0.00762068      -0.13632438
C       -0.31056914      -0.22657255      -0.22451217
N        0.53665878      -0.56055827      -1.01057647
O        1.79437258      -0.62978974      -0.94048661
C        2.06191098       0.25833766       0.83538402
N        1.01949247       0.61290272       1.27625208
H       -2.26811036      -0.36683149      -1.03084015
H       -2.17179014      -0.54020475       0.71968136
H       -1.98589634       1.05284007      -0.03119586
H        3.08267586       0.40749703       0.54261819
10
Frame=7 idx=005475 GeodesicLength=0.3714906373712815 rxn_smarts="[C:1]([c:2]1[n:3][o:4][c:5]([H:10])[n:6]1)([H:7])([H:8])[H:9]>>[C:1]([C:2]#[N+:3][O-:4])([H:7])([H:8])[H:9].[C:5](#[N:6])[H:10]"
C       -1.76330952      -0.00857401      -0.14171620
C       -0.31178782      -0.22453497      -0.20429515
N        0.52965797      -0.55090543      -1.00327438
O        1.78975139      -0.62783911      -0.92527959
C        2.07846251       0.24678829       0.84098363
N        1.04465404       0.60566484       1.30657611
H       -2.26213365      -0.37120368      -1.04078415
H       -2.19067358      -0.53898260       0.70852330
H       -1.99779225       1.05121802      -0.04624285
H        3.08317090       0.41836865       0.50550929
10
Frame=8 idx=005475 GeodesicLength=0.4247015415341421 rxn_smarts="[C:1]([c:2]1[n:3][o:4][c:5]([H:10])[n:6]1)([H:7])([H:8])[H:9]>>[C:1]([C:2]#[N+:3][O-:4])([H:7])([H:8])[H:9].[C:5](#[N:6])[H:10]"
C       -1.76786964      -0.00934950      -0.14718517
C       -0.31305331      -0.21985673      -0.18503976
N        0.52259968      -0.54024434      -0.99617165
O        1.78500215      -0.62584955      -0.91051917
C        2.09542465       0.23514021       0.84605008
N        1.07085037       0.59692841       1.33754872
H       -2.25629400      -0.37768472      -1.04970449
H       -2.20798884      -0.53694192       0.69831575
H       -2.01108862       1.04951647      -0.06308390
H        3.08241757       0.42834168       0.46978959
10
Frame=9 idx=005475 GeodesicLength=0.477664652474554 rxn_smarts="[C:1]([c:2]1[n:3][o:4][c:5]([H:10])[n:6]1)([H:7])([H:8])[H:9]>>[C:1]([C:2]#[N+:3][O-:4])([H:7])([H:8])[H:9].[C:5](#[N:6])[H:10]"
C       -1.77224923      -0.00965792      -0.15284308
C       -0.31429024      -0.21274479      -0.16652787
N        0.51544039      -0.52921409      -0.98886833
O        1.78004022      -0.62383112      -0.89600396
C        2.11289294       0.22316046       0.85052086
N        1.09823480       0.58398933       1.37006998
H       -2.25046300      -0.38630514      -1.05744097
H       -2.22380254      -0.53308764       0.68918161
H       -2.02525553       1.04796273      -0.08260168
H        3.07945219       0.43972816       0.43451344
10
Frame=10 idx=005475 GeodesicLength=0.5309485044885481 rxn_smarts="[C:1]([c:2]1[n:3][o:4][c:5]([H:10])[n:6]1)([H:7])([H:8])[H:9]>>[C:1]([C:2]#[N+:3][O-:4])([H:7])([H:8])[H:9].[C:5](#[N:6])[H:10]"
C       -1.77650857      -0.00921411      -0.15877151
C       -0.31537722      -0.20197083      -0.14919596
N        0.50836553      -0.51730855      -0.98186939
O        1.77509605      -0.62135967      -0.88235321
C        2.13105774       0.21006433       0.85466001
N        1.12697877       0.56413039       1.40552874
H       -2.24478728      -0.39914080      -1.06309694
H       -2.23772281      -0.52567172       0.68248110
H       -2.04090306       1.04685536      -0.10701890
H        3.07380085       0.45361559       0.39963606
10
Frame=11 idx=005475 GeodesicLength=0.5843085178209437 rxn_smarts="[C:1]([c:2]1[n:3][o:4][c:5]([H:10])[n:6]1)([H:7])([H:8])[H:9]>>[C:1]([C:2]#[N+:3][O-:4])([H:7])([H:8])[H:9].[C:5](#[N:6])[H:10]"
C       -1.78078903      -0.00903676      -0.16466542
C       -0.31646260      -0.18769632      -0.13283484
N        0.50100817      -0.50292838      -0.97507859
O        1.76945761      -0.61892486      -0.86838294
C        2.14921385       0.19673717       0.85839717
N        1.15686472       0.54707720       1.43908112
H       -2.23890769      -0.41311124      -1.06795975
H       -2.24980865      -0.51947858       0.67577229
H       -2.05864233       1.04427512      -0.13154536
H        3.06806596       0.46308666       0.36721632
10
Frame=12 idx=005475 GeodesicLength=0.6378321322124394 rxn_smarts="[C:1]([c:2]1[n:3][o:4][c:5]([H:10])[n:6]1)([H:7])([H:8])[H:9]>>[C:1]([C:2]#[N+:3][O-:4])([H:7])([H:8])[H:9].[C:5](#[N:6])[H:10]"
C       -1.78502450      -0.00854527      -0.17061229
C       -0.31749603      -0.17005901      -0.11750317
N        0.49367408      -0.48762050      -0.96862029
O        1.76369620      -0.61624356      -0.85504157
C        2.16757288       0.18275746       0.86177385
N        1.18779290       0.52774324       1.47300062
H       -2.23288696      -0.42950859      -1.07141728
H       -2.26050098      -0.51203770       0.67041972
H       -2.07777041       1.04126724      -0.15838071
H        3.06094282       0.47224670       0.33638111
10
Frame=13 idx=005475 GeodesicLength=0.691241369547511 rxn_smarts="[C:1]([c:2]1[n:3][o:4][c:5]([H:10])[n:6]1)([H:7])([H:8])[H:9]>>[C:1]([C:2]#[N+:3][O-:4])([H:7])([H:8])[H:9].[C:5](#[N:6])[H:10]"
C       -1.78907192      -0.00770453      -0.17662868
C       -0.31841708      -0.14866295      -0.10335931
N        0.48626293      -0.47115171      -0.96242564
O        1.75764569      -0.61307846      -0.84217065
C        2.18597046       0.16791690       0.86473758
N        1.21964230       0.50567363       1.50702902
H       -2.22658051      -0.44854566      -1.07307953
H       -2.26940106      -0.50298194       0.66652079
H       -2.09831177       1.03744880      -0.18788192
H        3.05226097       0.48108593       0.30725833
10
Frame=14 idx=005475 GeodesicLength=0.7445233832657031 rxn_smarts="[C:1]([c:2]1[n:3][o:4][c:5]([H:10])[n:6]1)([H:7])([H:8])[H:9]>>[C:1]([C:2]#[N+:3][O-:4])([H:7])([H:8])[H:9].[C:5](#[N:6])[H:10]"
C       -1.79276583      -0.00611484      -0.18279172
C       -0.31893369      -0.12109743      -0.09148457
N        0.47883131      -0.45272943      -0.95714129
O        1.75142017      -0.60799741      -0.83071639
C        2.20433312       0.15085265       0.86753925
N        1.25228061       0.47674942       1.54226800
H       -2.21995322      -0.47349793      -1.07080626
H       -2.27513328      -0.48927247       0.66618711
H       -2.12126318       1.03246091      -0.22359671
H        3.04118399       0.49064653       0.28054258
10
Frame=15 idx=005475 GeodesicLength=0.7976219902493332 rxn_smarts="[C:1]([c:2]1[n:3][o:4][c:5]([H:10])[n:6]1)([H:7])([H:8])[H:9]>>[C:1]([C:2]#[N+:3][O-:4])([H:7])([H:8])[H:9].[C:5](#[N:6])[H:10]"
C       -1.79620994      -0.00471778      -0.18873739
C       -0.31957536      -0.09165722      -0.08046746
N        0.47133307      -0.43310374      -0.95225567
O        1.74469627      -0.60349411      -0.81910598
C        2.22194546       0.13393488       0.86985207
N        1.28495244       0.45083992       1.57507827
H       -2.21257487      -0.49771888      -1.06806216
H       -2.28010115      -0.47712310       0.66540153
H       -2.14455800       1.02593620      -0.25781830
H        3.03009210       0.49710383       0.25611508
10
Frame=16 idx=005475 GeodesicLength=0.8504223826829869 rxn_smarts="[C:1]([c:2]1[n:3][o:4][c:5]([H:10])[n:6]1)([H:7])([H:8])[H:9]>>[C:1]([C:2]#[N+:3][O-:4])([H:7])([H:8])[H:9].[C:5](#[N:6])[H:10]"
C       -1.79923102      -0.00322555      -0.19451981
C       -0.32022860      -0.05999738      -0.07066257
N        0.46380170      -0.41256910      -0.94792241
O        1.73762036      -0.59874577      -0.80784431
C        2.23876412       0.11665099       0.87170698
N        1.31746197       0.42484656       1.60645337
H       -2.20449327      -0.52267317      -1.06381620
H       -2.28386327      -0.46450795       0.66525451
H       -2.16801593       1.01800666      -0.29251043
H        3.01818393       0.50221472       0.23386087
