15
Frame=0 idx=009070 GeodesicLength=0.0 rxn_smarts="[C:1]([n:2]1[c:3]([H:11])[c:4]([H:12])[c:5]([C:6]([H:13])([H:14])[H:15])[n:7]1)([H:8])([H:9])[H:10]>>[C-:1]([N+:2]1=[C:3]=[C:4]([H:12])[C:5]([C:6]([H:13])([H:14])[H:15])=[N:7]1)([H:8])[H:9].[H:10][H:11]"
C        2.22701491      -0.65597361      -0.20699080
N        0.99558582      -0.18816878      -0.13918158
C        0.70398382       1.17072625      -0.15752718
C       -0.64865799       1.20414971      -0.21454327
C       -1.10571584      -0.16796272      -0.05714775
C       -2.51021410      -0.63131625       0.10432790
N       -0.11016707      -1.00169545       0.05047043
H        2.94201057      -0.19750677      -0.86815080
H        2.37040826      -1.68480088       0.10400313
H        2.85172388       0.88991639       0.69409586
H        2.18206902       1.41709346       0.40897307
H       -1.28213998       2.07648269      -0.16678237
H       -3.10906502      -0.36239380      -0.76769935
H       -2.96822622      -0.15748716       0.97534939
H       -2.53861012      -1.71106313       0.24080331
15
Frame=1 idx=009070 GeodesicLength=0.06262626395475271 rxn_smarts="[C:1]([n:2]1[c:3]([H:11])[c:4]([H:12])[c:5]([C:6]([H:13])([H:14])[H:15])[n:7]1)([H:8])([H:9])[H:10]>>[C-:1]([N+:2]1=[C:3]=[C:4]([H:12])[C:5]([C:6]([H:13])([H:14])[H:15])=[N:7]1)([H:8])[H:9].[H:10][H:11]"
C        2.23097800      -0.65545394      -0.19698646
N        0.99490440      -0.19015056      -0.15290196
C        0.70472187       1.17132061      -0.16361809
C       -0.64882606       1.20325042      -0.21750557
C       -1.10559430      -0.16710913      -0.05573401
C       -2.50975336      -0.63118872       0.10683682
N       -0.10911512      -1.00061507       0.05178320
H        2.94284990      -0.19999083      -0.86463707
H        2.36620659      -1.69275303       0.08885983
H        2.85656277       0.88546578       0.69910543
H        2.17447506       1.43262276       0.42015622
H       -1.28197445       2.07589365      -0.17101204
H       -3.10856343      -0.36529055      -0.76617652
H       -2.96905168      -0.15537749       0.97605922
H       -2.53782019      -1.71062390       0.24577102
15
Frame=2 idx=009070 GeodesicLength=0.12514302005873762 rxn_smarts="[C:1]([n:2]1[c:3]([H:11])[c:4]([H:12])[c:5]([C:6]([H:13])([H:14])[H:15])[n:7]1)([H:8])([H:9])[H:10]>>[C-:1]([N+:2]1=[C:3]=[C:4]([H:12])[C:5]([C:6]([H:13])([H:14])[H:15])=[N:7]1)([H:8])[H:9].[H:10][H:11]"
C        2.23455101      -0.65505358      -0.18731011
N        0.99420401      -0.19224168      -0.16625420
C        0.70550448       1.17182224      -0.16918711
C       -0.64892389       1.20232067      -0.22040760
C       -1.10544847      -0.16625610      -0.05422893
C       -2.50929103      -0.63105282       0.10924231
N       -0.10803450      -0.99948527       0.05352979
H        2.94324192      -0.20259752      -0.86144797
H        2.36244046      -1.69998739       0.07372737
H        2.86173903       0.88061650       0.70396076
H        2.16672863       1.44824311       0.43135687
H       -1.28173557       2.07528347      -0.17536392
H       -3.10789296      -0.36830067      -0.76489717
H       -2.97004600      -0.15315782       0.97650902
H       -2.53703713      -1.71015314       0.25077088
15
Frame=3 idx=009070 GeodesicLength=0.18760763952316317 rxn_smarts="[C:1]([n:2]1[c:3]([H:11])[c:4]([H:12])[c:5]([C:6]([H:13])([H:14])[H:15])[n:7]1)([H:8])([H:9])[H:10]>>[C-:1]([N+:2]1=[C:3]=[C:4]([H:12])[C:5]([C:6]([H:13])([H:14])[H:15])=[N:7]1)([H:8])[H:9].[H:10][H:11]"
C        2.23774524      -0.65478229      -0.17796853
N        0.99349057      -0.19442900      -0.17913280
C        0.70632531       1.17223086      -0.17418787
C       -0.64895739       1.20135178      -0.22328337
C       -1.10529180      -0.16541820      -0.05274108
C       -2.50883253      -0.63090303       0.11156967
N       -0.10694939      -0.99835902       0.05540992
H        2.94318605      -0.20530638      -0.85858710
H        2.35913061      -1.70647345       0.05878752
H        2.86729988       0.87533723       0.70870096
H        2.15882315       1.46398458       0.44253642
H       -1.28143675       2.07463953      -0.17992534
H       -3.10716017      -0.37132954      -0.76373895
H       -2.97109674      -0.15088725       0.97682119
H       -2.53627604      -1.70965582       0.25573935
15
Frame=4 idx=009070 GeodesicLength=0.2500517044186312 rxn_smarts="[C:1]([n:2]1[c:3]([H:11])[c:4]([H:12])[c:5]([C:6]([H:13])([H:14])[H:15])[n:7]1)([H:8])([H:9])[H:10]>>[C-:1]([N+:2]1=[C:3]=[C:4]([H:12])[C:5]([C:6]([H:13])([H:14])[H:15])=[N:7]1)([H:8])[H:9].[H:10][H:11]"
C        2.24057989      -0.65465756      -0.16895108
N        0.99276595      -0.19669741      -0.19141287
C        0.70718132       1.17255147      -0.17861100
C       -0.64893546       1.20034765      -0.22602802
C       -1.10513401      -0.16459998      -0.05124304
C       -2.50839695      -0.63074826       0.11377241
N       -0.10587543      -0.99725706       0.05742298
H        2.94264942      -0.20815703      -0.85612334
H        2.35627090      -1.71222135       0.04420466
H        2.87335620       0.86966441       0.71323609
H        2.15079576       1.47991777       0.45350517
H       -1.28108532       2.07396362      -0.18454850
H       -3.10635294      -0.37434762      -0.76275935
H       -2.97225577      -0.14861299       0.97695399
H       -2.53556355      -1.70914567       0.26058189
15
Frame=5 idx=009070 GeodesicLength=0.3125644683156563 rxn_smarts="[C:1]([n:2]1[c:3]([H:11])[c:4]([H:12])[c:5]([C:6]([H:13])([H:14])[H:15])[n:7]1)([H:8])([H:9])[H:10]>>[C-:1]([N+:2]1=[C:3]=[C:4]([H:12])[C:5]([C:6]([H:13])([H:14])[H:15])=[N:7]1)([H:8])[H:9].[H:10][H:11]"
C        2.24314252      -0.65461505      -0.16025831
N        0.99201057      -0.19904487      -0.20321021
C        0.70806090       1.17280191      -0.18258844
C       -0.64887384       1.19932530      -0.22865322
C       -1.10497772      -0.16378527      -0.04970060
C       -2.50797562      -0.63060149       0.11586639
N       -0.10480847      -0.99614510       0.05955982
H        2.94174708      -0.21109556      -0.85397884
H        2.35372503      -1.71742432       0.02997892
H        2.87979836       0.86347126       0.71763051
H        2.14269756       1.49621423       0.46421041
H       -1.28069070       2.07327114      -0.18914164
H       -3.10544969      -0.37739825      -0.76195575
H       -2.97353186      -0.14633878       0.97690237
H       -2.53487414      -1.70863517       0.26533858
15
Frame=6 idx=009070 GeodesicLength=0.37511208993111306 rxn_smarts="[C:1]([n:2]1[c:3]([H:11])[c:4]([H:12])[c:5]([C:6]([H:13])([H:14])[H:15])[n:7]1)([H:8])([H:9])[H:10]>>[C-:1]([N+:2]1=[C:3]=[C:4]([H:12])[C:5]([C:6]([H:13])([H:14])[H:15])=[N:7]1)([H:8])[H:9].[H:10][H:11]"
C        2.24542177      -0.65470512      -0.15190709
N        0.99123092      -0.20145223      -0.21441362
C        0.70896445       1.17298327      -0.18607870
C       -0.64877652       1.19828336      -0.23108537
C       -1.10483171      -0.16298453      -0.04811384
C       -2.50758621      -0.63046531       0.11782390
N       -0.10376484      -0.99505841       0.06177853
H        2.94043635      -0.21415013      -0.85222239
H        2.35153356      -1.72200138       0.01624846
H        2.88674081       0.85677609       0.72189410
H        2.13453617       1.51288944       0.47447647
H       -1.28025987       2.07255862      -0.19364494
H       -3.10446369      -0.38043674      -0.76134766
H       -2.97494358      -0.14410385       0.97666156
H       -2.53423761      -1.70813309       0.26993058
15
Frame=7 idx=009070 GeodesicLength=0.4377059735000745 rxn_smarts="[C:1]([n:2]1[c:3]([H:11])[c:4]([H:12])[c:5]([C:6]([H:13])([H:14])[H:15])[n:7]1)([H:8])([H:9])[H:10]>>[C-:1]([N+:2]1=[C:3]=[C:4]([H:12])[C:5]([C:6]([H:13])([H:14])[H:15])=[N:7]1)([H:8])[H:9].[H:10][H:11]"
C        2.24745128      -0.65491192      -0.14390976
N        0.99043718      -0.20390595      -0.22507653
C        0.70988720       1.17310319      -0.18908045
C       -0.64864553       1.19721310      -0.23341311
C       -1.10469537      -0.16220275      -0.04654901
C       -2.50721908      -0.63032878       0.11970649
N       -0.10274611      -0.99401769       0.06392618
H        2.93879278      -0.21722390      -0.85077062
H        2.34967266      -1.72602030       0.00290764
H        2.89413210       0.84946941       0.72623104
H        2.12624383       1.52997826       0.48434121
H       -1.27980677       2.07181274      -0.19825101
H       -3.10346035      -0.38344816      -0.76081897
H       -2.97639939      -0.14189192       0.97633172
H       -2.53364444      -1.70762533       0.27442518
15
Frame=8 idx=009070 GeodesicLength=0.5003862054479175 rxn_smarts="[C:1]([n:2]1[c:3]([H:11])[c:4]([H:12])[c:5]([C:6]([H:13])([H:14])[H:15])[n:7]1)([H:8])([H:9])[H:10]>>[C-:1]([N+:2]1=[C:3]=[C:4]([H:12])[C:5]([C:6]([H:13])([H:14])[H:15])=[N:7]1)([H:8])[H:9].[H:10][H:11]"
C        2.24928883      -0.65519864      -0.13628743
N        0.98963292      -0.20639678      -0.23540076
C        0.71082274       1.17317314      -0.19170624
C       -0.64848848       1.19610742      -0.23581259
C       -1.10456523      -0.16144213      -0.04510123
C       -2.50685081      -0.63017867       0.12162808
N       -0.10174667      -0.99303231       0.06576863
H        2.93698988      -0.22016763      -0.84944011
H        2.34807111      -1.72959626      -0.01023069
H        2.90177834       0.84134193       0.73101334
H        2.11776250       1.54756516       0.49391646
H       -1.27934827       2.07101976      -0.20321744
H       -3.10253904      -0.38642698      -0.76017486
H       -2.97774642      -0.13966999       0.97608597
H       -2.53306139      -1.70709803       0.27895887
15
Frame=9 idx=009070 GeodesicLength=0.5632087485112425 rxn_smarts="[C:1]([n:2]1[c:3]([H:11])[c:4]([H:12])[c:5]([C:6]([H:13])([H:14])[H:15])[n:7]1)([H:8])([H:9])[H:10]>>[C-:1]([N+:2]1=[C:3]=[C:4]([H:12])[C:5]([C:6]([H:13])([H:14])[H:15])=[N:7]1)([H:8])[H:9].[H:10][H:11]"
C        2.25090077      -0.65559936      -0.12907278
N        0.98883073      -0.20890582      -0.24524118
C        0.71176813       1.17319194      -0.19388994
C       -0.64830735       1.19496361      -0.23824513
C       -1.10444752      -0.16071224      -0.04378980
C       -2.50649121      -0.63001673       0.12356906
N       -0.10077919      -0.99212688       0.06726338
H        2.93496719      -0.22297249      -0.84828821
H        2.34679432      -1.73262569      -0.02306268
H        2.90978276       0.83228072       0.73627352
H        2.10907836       1.56571156       0.50303578
H       -1.27888985       2.07017269      -0.20853483
H       -3.10171742      -0.38933929      -0.75942127
H       -2.97898371      -0.13746476       0.97592812
H       -2.53250601      -1.70655728       0.28347597
15
Frame=10 idx=009070 GeodesicLength=0.6260606721496579 rxn_smarts="[C:1]([n:2]1[c:3]([H:11])[c:4]([H:12])[c:5]([C:6]([H:13])([H:14])[H:15])[n:7]1)([H:8])([H:9])[H:10]>>[C-:1]([N+:2]1=[C:3]=[C:4]([H:12])[C:5]([C:6]([H:13])([H:14])[H:15])=[N:7]1)([H:8])[H:9].[H:10][H:11]"
C        2.25235288      -0.65610042      -0.12224544
N        0.98804349      -0.21141964      -0.25482605
C        0.71272098       1.17316998      -0.19573231
C       -0.64810231       1.19377178      -0.24083422
C       -1.10432961      -0.16001491      -0.04265827
C       -2.50611654      -0.62982417       0.12562942
N       -0.09982789      -0.99130693       0.06834022
H        2.93290175      -0.22548955      -0.84712001
H        2.34576343      -1.73528147      -0.03594292
H        2.91795025       0.82216579       0.74243036
H        2.10009612       1.58447051       0.51172174
H       -1.27844460       2.06925281      -0.21444707
H       -3.10104748      -0.39220262      -0.75841767
H       -2.98001428      -0.13521658       0.97597512
H       -2.53194619      -1.70597458       0.28812711
15
Frame=11 idx=009070 GeodesicLength=0.6889349817110982 rxn_smarts="[C:1]([n:2]1[c:3]([H:11])[c:4]([H:12])[c:5]([C:6]([H:13])([H:14])[H:15])[n:7]1)([H:8])([H:9])[H:10]>>[C-:1]([N+:2]1=[C:3]=[C:4]([H:12])[C:5]([C:6]([H:13])([H:14])[H:15])=[N:7]1)([H:8])[H:9].[H:10][H:11]"
C        2.25365777      -0.65671178      -0.11580491
N        0.98727201      -0.21392855      -0.26414686
C        0.71367825       1.17311198      -0.19726391
C       -0.64787551       1.19253780      -0.24352680
C       -1.10420924      -0.15934572      -0.04165637
C       -2.50572825      -0.62960685       0.12779615
N       -0.09888778      -0.99056007       0.06908945
H        2.93081074      -0.22768787      -0.84592137
H        2.34495825      -1.73760143      -0.04893273
H        2.92628743       0.81088807       0.74959236
H        2.09080810       1.60395969       0.51977727
H       -1.27801452       2.06826135      -0.22089266
H       -3.10049311      -0.39503588      -0.75720551
H       -2.98088450      -0.13292823       0.97618859
H       -2.53137965      -1.70535251       0.29290732
15
Frame=12 idx=009070 GeodesicLength=0.7518208138263243 rxn_smarts="[C:1]([n:2]1[c:3]([H:11])[c:4]([H:12])[c:5]([C:6]([H:13])([H:14])[H:15])[n:7]1)([H:8])([H:9])[H:10]>>[C-:1]([N+:2]1=[C:3]=[C:4]([H:12])[C:5]([C:6]([H:13])([H:14])[H:15])=[N:7]1)([H:8])[H:9].[H:10][H:11]"
C        2.25485698      -0.65741452      -0.10974074
N        0.98649970      -0.21643118      -0.27328117
C        0.71463992       1.17303063      -0.19858632
C       -0.64763797       1.19127460      -0.24634836
C       -1.10408166      -0.15868893      -0.04071745
C       -2.50531741      -0.62937863       0.13008032
N       -0.09794408      -0.98984508       0.06961724
H        2.92876282      -0.22950560      -0.84461044
H        2.34428802      -1.73971165      -0.06220536
H        2.93468968       0.79827188       0.75792120
H        2.08126986       1.62438385       0.52708295
H       -1.27760379       2.06720886      -0.22780359
H       -3.10000074      -0.39791145      -0.75581940
H       -2.98163585      -0.13057848       0.97652916
H       -2.53078550      -1.70470430       0.29788198
15
Frame=13 idx=009070 GeodesicLength=0.8146883650066612 rxn_smarts="[C:1]([n:2]1[c:3]([H:11])[c:4]([H:12])[c:5]([C:6]([H:13])([H:14])[H:15])[n:7]1)([H:8])([H:9])[H:10]>>[C-:1]([N+:2]1=[C:3]=[C:4]([H:12])[C:5]([C:6]([H:13])([H:14])[H:15])=[N:7]1)([H:8])[H:9].[H:10][H:11]"
C        2.25593769      -0.65824262      -0.10406062
N        0.98573632      -0.21891892      -0.28219710
C        0.71560336       1.17292381      -0.19967418
C       -0.64738751       1.18997986      -0.24923141
C       -1.10394522      -0.15804903      -0.03981434
C       -2.50488869      -0.62913774       0.13247441
N       -0.09699608      -0.98917079       0.06998714
H        2.92675502      -0.23090266      -0.84317720
H        2.34378536      -1.74158251      -0.07582398
H        2.94319097       0.78419265       0.76756551
H        2.07144824       1.64584102       0.53340549
H       -1.27721528       2.06608473      -0.23519304
H       -3.09956148      -0.40080987      -0.75427402
H       -2.98229292      -0.12818010       0.97699158
H       -2.53016976      -1.70402782       0.30302174
15
Frame=14 idx=009070 GeodesicLength=0.8774991799113007 rxn_smarts="[C:1]([n:2]1[c:3]([H:11])[c:4]([H:12])[c:5]([C:6]([H:13])([H:14])[H:15])[n:7]1)([H:8])([H:9])[H:10]>>[C-:1]([N+:2]1=[C:3]=[C:4]([H:12])[C:5]([C:6]([H:13])([H:14])[H:15])=[N:7]1)([H:8])[H:9].[H:10][H:11]"
C        2.25691410      -0.65921432      -0.09874951
N        0.98498993      -0.22138606      -0.29095399
C        0.71656581       1.17278905      -0.20057251
C       -0.64712362       1.18864453      -0.25224806
C       -1.10379622      -0.15743199      -0.03899720
C       -2.50442966      -0.62887615       0.13503126
N       -0.09604122      -0.98855001       0.07010070
H        2.92486381      -0.23178511      -0.84149875
H        2.34343767      -1.74324435      -0.08996264
H        2.95169886       0.76847152       0.77883148
H        2.06129256       1.66846169       0.53861150
H       -1.27685123       2.06487334      -0.24316209
H       -3.09922565      -0.40371345      -0.75246984
H       -2.98277695      -0.12572543       0.97766403
H       -2.52951819      -1.70331327       0.30837562
15
Frame=15 idx=009070 GeodesicLength=0.9402701207273616 rxn_smarts="[C:1]([n:2]1[c:3]([H:11])[c:4]([H:12])[c:5]([C:6]([H:13])([H:14])[H:15])[n:7]1)([H:8])([H:9])[H:10]>>[C-:1]([N+:2]1=[C:3]=[C:4]([H:12])[C:5]([C:6]([H:13])([H:14])[H:15])=[N:7]1)([H:8])[H:9].[H:10][H:11]"
C        2.25779390      -0.66034330      -0.09380254
N        0.98426569      -0.22382700      -0.29959875
C        0.71752569       1.17262882      -0.20130386
C       -0.64684813       1.18726536      -0.25543218
C       -1.10363031      -0.15683975      -0.03827578
C       -2.50393047      -0.62859133       0.13779109
N       -0.09507368      -0.98798367       0.06993319
H        2.92314859      -0.23205888      -0.83946892
H        2.34323553      -1.74472386      -0.10480371
H        2.96013833       0.75087845       0.79198089
H        2.05077280       1.69242240       0.54255677
H       -1.27651865       2.06355899      -0.25181924
H       -3.09901667      -0.40661418      -0.75034542
H       -2.98304578      -0.12321113       0.97860799
H       -2.52881685      -1.70256093       0.31398046
15
Frame=16 idx=009070 GeodesicLength=1.0029741779795611 rxn_smarts="[C:1]([n:2]1[c:3]([H:11])[c:4]([H:12])[c:5]([C:6]([H:13])([H:14])[H:15])[n:7]1)([H:8])([H:9])[H:10]>>[C-:1]([N+:2]1=[C:3]=[C:4]([H:12])[C:5]([C:6]([H:13])([H:14])[H:15])=[N:7]1)([H:8])[H:9].[H:10][H:11]"
C        2.25857692      -0.66165621      -0.08920713
N        0.98356909      -0.22623770      -0.30815659
C        0.71848037       1.17244041      -0.20188855
C       -0.64656178       1.18583780      -0.25880450
C       -1.10344530      -0.15627668      -0.03766687
C       -2.50338241      -0.62828133       0.14078171
N       -0.09409227      -0.98747820       0.06944593
H        2.92165310      -0.23165409      -0.83698983
H        2.34318126      -1.74601991      -0.12047741
H        2.96844998       0.73120414       0.80724870
H        2.03986031       1.71790434       0.54504597
H       -1.27621880       2.06212721      -0.26120787
H       -3.09895913      -0.40948888      -0.74784572
H       -2.98305653      -0.12064816       0.97987930
H       -2.52805480      -1.70177275       0.31984285
