12
Frame=0 idx=004417 GeodesicLength=0.0 rxn_smarts="[C:1]([C@@:2]([C:3](=[O:4])[H:11])([C:5]#[C:6][H:12])[H:10])([H:7])([H:8])[H:9]>>[C:1]([C:2]([C:3](=[O:4])[H:11])=[C:5]=[C:6]([H:10])[H:12])([H:7])([H:8])[H:9]"
C        0.01683942       1.13752403       1.02981301
C       -0.19625330       0.14521493      -0.06225275
C       -1.50622445      -0.02541881      -0.68327949
O       -2.46259968       0.67432109      -0.44756877
C        0.84007964      -0.68847493      -0.51054721
C        1.97950621      -1.09541233      -0.88887160
H        0.28842378       0.65127748       1.96885363
H        0.83781049       1.80951071       0.76310809
H       -0.89760842       1.70851619       1.18385939
H        0.07989402      -1.50908913      -0.20202349
H       -1.56145952      -0.83701902      -1.43858986
H        2.58159181      -1.97095026      -0.71250095
12
Frame=1 idx=004417 GeodesicLength=0.10100912507132814 rxn_smarts="[C:1]([C@@:2]([C:3](=[O:4])[H:11])([C:5]#[C:6][H:12])[H:10])([H:7])([H:8])[H:9]>>[C:1]([C:2]([C:3](=[O:4])[H:11])=[C:5]=[C:6]([H:10])[H:12])([H:7])([H:8])[H:9]"
C        0.01507309       1.13185793       1.03321569
C       -0.20436196       0.13180755      -0.05099652
C       -1.51220657      -0.02098617      -0.68592529
O       -2.45243057       0.70738434      -0.47592738
C        0.83872163      -0.66143114      -0.54704359
C        1.97254983      -1.12137499      -0.86633684
H        0.36115249       0.65515875       1.95223745
H        0.78387691       1.84676806       0.72651241
H       -0.91504366       1.65765104       1.24355827
H        0.09457126      -1.51869769      -0.19464744
H       -1.56945173      -0.82316664      -1.45093851
H        2.58754927      -1.98497104      -0.68370825
12
Frame=2 idx=004417 GeodesicLength=0.2019396691374023 rxn_smarts="[C:1]([C@@:2]([C:3](=[O:4])[H:11])([C:5]#[C:6][H:12])[H:10])([H:7])([H:8])[H:9]>>[C:1]([C:2]([C:3](=[O:4])[H:11])=[C:5]=[C:6]([H:10])[H:12])([H:7])([H:8])[H:9]"
C        0.01212344       1.12766525       1.03671430
C       -0.21029014       0.11827977      -0.03913931
C       -1.51478668      -0.01549890      -0.69046603
O       -2.43987291       0.73709590      -0.50253159
C        0.83886930      -0.63731340      -0.57465916
C        1.96212486      -1.14656817      -0.84190505
H        0.42580096       0.66526347       1.93464492
H        0.72759804       1.88098483       0.69561692
H       -0.92935586       1.60870596       1.29745148
H        0.10869780      -1.52913637      -0.17979940
H       -1.57268693      -0.80898534      -1.46431316
H        2.59177812      -2.00049300      -0.67161390
12
Frame=3 idx=004417 GeodesicLength=0.3028856333116089 rxn_smarts="[C:1]([C@@:2]([C:3](=[O:4])[H:11])([C:5]#[C:6][H:12])[H:10])([H:7])([H:8])[H:9]>>[C:1]([C:2]([C:3](=[O:4])[H:11])=[C:5]=[C:6]([H:10])[H:12])([H:7])([H:8])[H:9]"
C        0.00866357       1.12424025       1.03985855
C       -0.21471372       0.10496766      -0.02775130
C       -1.51502256      -0.00862869      -0.69679992
O       -2.42648443       0.76363923      -0.52588197
C        0.83977630      -0.61612694      -0.59601533
C        1.94819862      -1.17248610      -0.81681993
H        0.48403361       0.67956420       1.91570171
H        0.67030761       1.91163934       0.66906518
H       -0.94029654       1.56156265       1.34648096
H        0.12116761      -1.54037838      -0.15904854
H       -1.57282121      -0.79339761      -1.47936250
H        2.59719115      -2.01459562      -0.66942690
12
Frame=4 idx=004417 GeodesicLength=0.40375749347355977 rxn_smarts="[C:1]([C@@:2]([C:3](=[O:4])[H:11])([C:5]#[C:6][H:12])[H:10])([H:7])([H:8])[H:9]>>[C:1]([C:2]([C:3](=[O:4])[H:11])=[C:5]=[C:6]([H:10])[H:12])([H:7])([H:8])[H:9]"
C        0.00503751       1.12123450       1.04243364
C       -0.21798550       0.09217308      -0.01745873
C       -1.51350048      -0.00047528      -0.70471911
O       -2.41321161       0.78720337      -0.54564956
C        0.84123068      -0.59755428      -0.61291600
C        1.93126988      -1.19953157      -0.79080829
H        0.53628346       0.69649950       1.89552654
H        0.61339862       1.93841304       0.64633808
H       -0.94789677       1.51668209       1.39086528
H        0.13165631      -1.55220054      -0.13329711
H       -1.57087143      -0.77648498      -1.49585679
H        2.60458935      -2.02595893      -0.67445793
12
Frame=5 idx=004417 GeodesicLength=0.5044641531333005 rxn_smarts="[C:1]([C@@:2]([C:3](=[O:4])[H:11])([C:5]#[C:6][H:12])[H:10])([H:7])([H:8])[H:9]>>[C:1]([C:2]([C:3](=[O:4])[H:11])=[C:5]=[C:6]([H:10])[H:12])([H:7])([H:8])[H:9]"
C        0.00074860       1.11920862       1.04479499
C       -0.22000285       0.08026099      -0.00779241
C       -1.50976182       0.00829683      -0.71410064
O       -2.40000686       0.80751097      -0.56326532
C        0.84414483      -0.58091327      -0.62489660
C        1.91291090      -1.22709509      -0.76105395
H        0.58190467       0.71626707       1.87536639
H        0.55713642       1.96212936       0.62740351
H       -0.95350900       1.47495047       1.43054810
H        0.14096893      -1.56407066      -0.10153065
H       -1.56583153      -0.75932455      -1.51331386
H        2.61129772      -2.03722074      -0.69215956
12
Frame=6 idx=004417 GeodesicLength=0.6049106810683387 rxn_smarts="[C:1]([C@@:2]([C:3](=[O:4])[H:11])([C:5]#[C:6][H:12])[H:10])([H:7])([H:8])[H:9]>>[C:1]([C:2]([C:3](=[O:4])[H:11])=[C:5]=[C:6]([H:10])[H:12])([H:7])([H:8])[H:9]"
C       -0.00431966       1.11830780       1.04715031
C       -0.22062820       0.06934010       0.00149958
C       -1.50344959       0.01723764      -0.72491314
O       -2.38667873       0.82448442      -0.57980580
C        0.84914938      -0.56583436      -0.63196171
C        1.89381735      -1.25518024      -0.72639560
H        0.62098132       0.73862421       1.85606708
H        0.50187033       1.98328211       0.61192515
H       -0.95799154       1.43663424       1.46578820
H        0.14946214      -1.57562914      -0.06331148
H       -1.55711006      -0.74272426      -1.53140011
H        2.61489726      -2.04854253      -0.72464247
12
Frame=7 idx=004417 GeodesicLength=0.7050668993266573 rxn_smarts="[C:1]([C@@:2]([C:3](=[O:4])[H:11])([C:5]#[C:6][H:12])[H:10])([H:7])([H:8])[H:9]>>[C:1]([C:2]([C:3](=[O:4])[H:11])=[C:5]=[C:6]([H:10])[H:12])([H:7])([H:8])[H:9]"
C       -0.01003667       1.11842191       1.04961264
C       -0.21970939       0.05923003       0.01066574
C       -1.49423689       0.02595122      -0.73709750
O       -2.37262164       0.83847609      -0.59650964
C        0.85669991      -0.55230373      -0.63416474
C        1.87391645      -1.28433666      -0.68737110
H        0.65391033       0.76305912       1.83825908
H        0.44804823       2.00211362       0.59949523
H       -0.96183140       1.40158855       1.49695184
H        0.15723047      -1.58678073      -0.01829732
H       -1.54434673      -0.72752064      -1.54968756
H        2.61297733      -2.05789878      -0.77185668
12
Frame=8 idx=004417 GeodesicLength=0.8054664166455119 rxn_smarts="[C:1]([C@@:2]([C:3](=[O:4])[H:11])([C:5]#[C:6][H:12])[H:10])([H:7])([H:8])[H:9]>>[C:1]([C:2]([C:3](=[O:4])[H:11])=[C:5]=[C:6]([H:10])[H:12])([H:7])([H:8])[H:9]"
C       -0.01344837       1.11632498       1.05067162
C       -0.21902892       0.04783523       0.01803803
C       -1.48557136       0.03554219      -0.74958219
O       -2.35827857       0.85381547      -0.61161816
C        0.86258871      -0.54336700      -0.63678459
C        1.84628152      -1.32061541      -0.65418106
H        0.68485656       0.78394414       1.81912935
H        0.39993500       2.01506727       0.58777827
H       -0.96100144       1.36870477       1.52480666
H        0.15946821      -1.59994432       0.02913106
H       -1.53400463      -0.71149779      -1.56799751
H        2.61820329      -2.04580953      -0.80939148
12
Frame=9 idx=004417 GeodesicLength=0.9053904692444661 rxn_smarts="[C:1]([C@@:2]([C:3](=[O:4])[H:11])([C:5]#[C:6][H:12])[H:10])([H:7])([H:8])[H:9]>>[C:1]([C:2]([C:3](=[O:4])[H:11])=[C:5]=[C:6]([H:10])[H:12])([H:7])([H:8])[H:9]"
C       -0.01904273       1.11658701       1.05317392
C       -0.21507765       0.03821181       0.02643777
C       -1.47171948       0.04262308      -0.76310526
O       -2.34259329       0.86255668      -0.62823803
C        0.87513252      -0.53074166      -0.63395934
C        1.82336723      -1.35096170      -0.61786673
H        0.71035505       0.80996700       1.80294608
H        0.34889920       2.02924581       0.57977101
H       -0.96270435       1.33699825       1.55060107
H        0.16734372      -1.60993987       0.08326995
H       -1.51421178      -0.69813667      -1.58734283
H        2.60025156      -2.04640974      -0.86568761
12
Frame=10 idx=004417 GeodesicLength=1.0058209958332391 rxn_smarts="[C:1]([C@@:2]([C:3](=[O:4])[H:11])([C:5]#[C:6][H:12])[H:10])([H:7])([H:8])[H:9]>>[C:1]([C:2]([C:3](=[O:4])[H:11])=[C:5]=[C:6]([H:10])[H:12])([H:7])([H:8])[H:9]"
C       -0.02184362       1.11414627       1.05401140
C       -0.21180454       0.02688464       0.03282995
C       -1.45969338       0.05019260      -0.77589134
O       -2.32702407       0.87335050      -0.64273838
C        0.88544737      -0.52102348      -0.63422566
C        1.79150850      -1.38685187      -0.59345812
H        0.73575687       0.83132842       1.78464908
H        0.30363196       2.03794660       0.57167875
H       -0.95943265       1.30655668       1.57419077
H        0.17076743      -1.62160349       0.13736028
H       -1.49856847      -0.68391113      -1.60605629
H        2.59125460      -2.02701573      -0.90235044
12
Frame=11 idx=004417 GeodesicLength=1.1060122762544409 rxn_smarts="[C:1]([C@@:2]([C:3](=[O:4])[H:11])([C:5]#[C:6][H:12])[H:10])([H:7])([H:8])[H:9]>>[C:1]([C:2]([C:3](=[O:4])[H:11])=[C:5]=[C:6]([H:10])[H:12])([H:7])([H:8])[H:9]"
C       -0.02591627       1.11266984       1.05573509
C       -0.20589144       0.01710162       0.03879867
C       -1.44465783       0.05591336      -0.78892892
O       -2.31143384       0.87900569      -0.65681536
C        0.90072910      -0.50582405      -0.63377031
C        1.76279896      -1.41508613      -0.57265463
H        0.75757605       0.85512436       1.76788491
H        0.25618817       2.04700969       0.56688834
H       -0.95731623       1.27565412       1.59681796
H        0.18019004      -1.62980308       0.19375718
H       -1.47724188      -0.67115610      -1.62533607
H        2.56497519      -2.02060931      -0.94237685
12
Frame=12 idx=004417 GeodesicLength=1.2063005373517965 rxn_smarts="[C:1]([C@@:2]([C:3](=[O:4])[H:11])([C:5]#[C:6][H:12])[H:10])([H:7])([H:8])[H:9]>>[C:1]([C:2]([C:3](=[O:4])[H:11])=[C:5]=[C:6]([H:10])[H:12])([H:7])([H:8])[H:9]"
C       -0.02903356       1.11009513       1.05679200
C       -0.19935996       0.00720385       0.04311177
C       -1.43008162       0.06132126      -0.80140556
O       -2.29666733       0.88371354      -0.66879604
C        0.91657108      -0.48902873      -0.63580540
C        1.72939845      -1.44255695      -0.56111217
H        0.77900096       0.87782852       1.74966364
H        0.20975716       2.05376020       0.56325210
H       -0.95273510       1.24404421       1.61878365
H        0.19017217      -1.63702913       0.25046507
H       -1.45638393      -0.65750165      -1.64494943
H        2.53936167      -2.01185026      -0.96999964
12
Frame=13 idx=004417 GeodesicLength=1.3067103401208462 rxn_smarts="[C:1]([C@@:2]([C:3](=[O:4])[H:11])([C:5]#[C:6][H:12])[H:10])([H:7])([H:8])[H:9]>>[C:1]([C:2]([C:3](=[O:4])[H:11])=[C:5]=[C:6]([H:10])[H:12])([H:7])([H:8])[H:9]"
C       -0.03239112       1.10740689       1.05794971
C       -0.19127009      -0.00214522       0.04650838
C       -1.41439543       0.06579691      -0.81373488
O       -2.28221657       0.88584819      -0.67986796
C        0.93497523      -0.46900061      -0.63840397
C        1.69370019      -1.46670258      -0.55514255
H        0.79858548       0.90151164       1.73146537
H        0.16247317       2.05940767       0.56156954
H       -0.94747610       1.21159859       1.64012025
H        0.20322379      -1.64208114       0.30915861
H       -1.43287185      -0.64356978      -1.66527780
H        2.50766328      -2.00807056      -0.99434470
12
Frame=14 idx=004417 GeodesicLength=1.4071522359721702 rxn_smarts="[C:1]([C@@:2]([C:3](=[O:4])[H:11])([C:5]#[C:6][H:12])[H:10])([H:7])([H:8])[H:9]>>[C:1]([C:2]([C:3](=[O:4])[H:11])=[C:5]=[C:6]([H:10])[H:12])([H:7])([H:8])[H:9]"
C       -0.03538108       1.10404183       1.05872623
C       -0.18216382      -0.01142119       0.04860033
C       -1.39856629       0.06982699      -0.82577173
O       -2.26833008       0.88659729      -0.68966872
C        0.95468709      -0.44685117      -0.64253349
C        1.65363873      -1.48860019      -0.55523898
H        0.81677078       0.92477949       1.71283476
H        0.11581494       2.06312689       0.56120053
H       -0.94067887       1.17866267       1.66053414
H        0.21818747      -1.64565274       0.36904014
H       -1.40877207      -0.62917404      -1.68581231
H        2.47479320      -2.00533583      -1.01191092
12
Frame=15 idx=004417 GeodesicLength=1.5077462434109645 rxn_smarts="[C:1]([C@@:2]([C:3](=[O:4])[H:11])([C:5]#[C:6][H:12])[H:10])([H:7])([H:8])[H:9]>>[C:1]([C:2]([C:3](=[O:4])[H:11])=[C:5]=[C:6]([H:10])[H:12])([H:7])([H:8])[H:9]"
C       -0.03781746       1.09977572       1.05893119
C       -0.17223192      -0.02083427       0.04923045
C       -1.38298984       0.07357556      -0.83749828
O       -2.25527001       0.88619347      -0.69789456
C        0.97520224      -0.42312740      -0.64857724
C        1.60877816      -1.50791101      -0.56061823
H        0.83410409       0.94747442       1.69323964
H        0.06980510       2.06471513       0.56183202
H       -0.93193086       1.14491811       1.68019124
H        0.23515060      -1.64805101       0.42950445
H       -1.38458265      -0.61366129      -1.70686767
H        2.44178255      -2.00306743      -1.02147300
12
Frame=16 idx=004417 GeodesicLength=1.6087515776670696 rxn_smarts="[C:1]([C@@:2]([C:3](=[O:4])[H:11])([C:5]#[C:6][H:12])[H:10])([H:7])([H:8])[H:9]>>[C:1]([C:2]([C:3](=[O:4])[H:11])=[C:5]=[C:6]([H:10])[H:12])([H:7])([H:8])[H:9]"
C       -0.04106858       1.09568154       1.05950273
C       -0.16035413      -0.02988007       0.04967562
C       -1.36542506       0.07610279      -0.84943273
O       -2.24187881       0.88273576      -0.70646441
C        0.99880949      -0.39670523      -0.65357511
C        1.56371784      -1.52136200      -0.56529336
H        0.84863230       0.97191624       1.67477439
H        0.02266367       2.06511895       0.56403950
H       -0.92339316       1.11066394       1.69891045
H        0.25692638      -1.64835501       0.49221866
H       -1.35612075      -0.59799564      -1.72883576
H        2.39749081      -2.00792128      -1.03551998
