17
Frame=0 idx=000432 GeodesicLength=0.0 rxn_smarts="[C:1]([C:2]([N:3]1[C:4]([H:12])([H:13])[C@:5]1([C:6]([H:15])([H:16])[H:17])[H:14])([H:10])[H:11])([H:7])([H:8])[H:9]>>[C:1]([C:2]([N+:3]1([H:13])[C-:4]([H:12])[C@:5]1([C:6]([H:15])([H:16])[H:17])[H:14])([H:10])[H:11])([H:7])([H:8])[H:9]"
C       -1.94418540       1.03245964      -0.36679708
C       -1.40727372      -0.34907432      -0.03260979
N       -0.02516467      -0.47969175      -0.47518405
C        0.90316468      -1.68324852       0.35880077
C        1.04857267      -0.21311127       0.47382729
C        2.25952678       0.49320807      -0.07303452
H       -2.98816711       1.11961515      -0.06039681
H       -1.37367808       1.80660468       0.14978122
H       -1.88068232       1.22256592      -1.43877699
H       -1.48343836      -0.54214541       1.04473272
H       -1.99507973      -1.11789065      -0.53977186
H        0.19493774      -2.05203235       1.11022302
H        0.33605127      -1.46898836      -0.90188142
H        0.64348673       0.24003584       1.37817982
H        3.08229393       0.42577934       0.64132049
H        2.05052096       1.54761136      -0.26756518
H        2.57911465       0.01830259      -1.00084768
17
Frame=1 idx=000432 GeodesicLength=0.05625621968181342 rxn_smarts="[C:1]([C:2]([N:3]1[C:4]([H:12])([H:13])[C@:5]1([C:6]([H:15])([H:16])[H:17])[H:14])([H:10])[H:11])([H:7])([H:8])[H:9]>>[C:1]([C:2]([N+:3]1([H:13])[C-:4]([H:12])[C@:5]1([C:6]([H:15])([H:16])[H:17])[H:14])([H:10])[H:11])([H:7])([H:8])[H:9]"
C       -1.94077754       1.03220777      -0.36783758
C       -1.40910409      -0.34992991      -0.02820719
N       -0.02688178      -0.48617203      -0.46664027
C        0.89467923      -1.68000866       0.35391981
C        1.04761957      -0.21150497       0.47872626
C        2.25635214       0.49462512      -0.07285118
H       -2.98521753       1.12372833      -0.06431653
H       -1.36950039       1.80634627       0.14794637
H       -1.87440718       1.21889787      -1.44031026
H       -1.48594328      -0.53906418       1.04978259
H       -1.99896373      -1.11868729      -0.53309584
H        0.19529166      -2.05717245       1.10887304
H        0.35042969      -1.47098648      -0.92020975
H        0.64431637       0.24093177       1.38430637
H        3.08151451       0.42823186       0.63886453
H        2.04676338       1.54893364      -0.26756315
H        2.57382895       0.01962334      -1.00138720
17
Frame=2 idx=000432 GeodesicLength=0.1125133247363139 rxn_smarts="[C:1]([C:2]([N:3]1[C:4]([H:12])([H:13])[C@:5]1([C:6]([H:15])([H:16])[H:17])[H:14])([H:10])[H:11])([H:7])([H:8])[H:9]>>[C:1]([C:2]([N+:3]1([H:13])[C-:4]([H:12])[C@:5]1([C:6]([H:15])([H:16])[H:17])[H:14])([H:10])[H:11])([H:7])([H:8])[H:9]"
C       -1.93728505       1.03198657      -0.36889564
C       -1.41092898      -0.35073764      -0.02382021
N       -0.02864678      -0.49274540      -0.45826621
C        0.88627258      -1.67685856       0.34904588
C        1.04658260      -0.21002156       0.48353039
C        2.25304208       0.49605266      -0.07267374
H       -2.98212817       1.12794866      -0.06817985
H       -1.36512691       1.80608721       0.14601325
H       -1.86813376       1.21520137      -1.44185664
H       -1.48840520      -0.53595540       1.05479861
H       -2.00293044      -1.11939908      -0.52637045
H        0.19581395      -2.06242708       1.10740218
H        0.36493891      -1.47280462      -0.93805098
H        0.64509701       0.24165935       1.39037002
H        3.08056461       0.43076978       0.63643064
H        2.04277725       1.55024709      -0.26756046
H        2.56849630       0.02099665      -1.00191679
17
Frame=3 idx=000432 GeodesicLength=0.16877965786892896 rxn_smarts="[C:1]([C:2]([N:3]1[C:4]([H:12])([H:13])[C@:5]1([C:6]([H:15])([H:16])[H:17])[H:14])([H:10])[H:11])([H:7])([H:8])[H:9]>>[C:1]([C:2]([N+:3]1([H:13])[C-:4]([H:12])[C@:5]1([C:6]([H:15])([H:16])[H:17])[H:14])([H:10])[H:11])([H:7])([H:8])[H:9]"
C       -1.93371944       1.03179339      -0.36997743
C       -1.41274456      -0.35149222      -0.01944379
N       -0.03045655      -0.49938424      -0.45005498
C        0.87794413      -1.67379606       0.34418192
C        1.04546762      -0.20865861       0.48824446
C        2.24960531       0.49748961      -0.07249809
H       -2.97890948       1.13226730      -0.07198921
H       -1.36057238       1.80583521       0.14396244
H       -1.86188431       1.21146144      -1.44342570
H       -1.49081483      -0.53280216       1.05978863
H       -2.00697133      -1.12002744      -0.51958300
H        0.19648781      -2.06779752       1.10579352
H        0.37957789      -1.47447121      -0.95541613
H        0.64584146       0.24221888       1.39638013
H        3.07946048       0.43336571       0.63401180
H        2.03858260       1.55155882      -0.26752523
H        2.56310558       0.02243908      -1.00244931
17
Frame=4 idx=000432 GeodesicLength=0.225057369901736 rxn_smarts="[C:1]([C:2]([N:3]1[C:4]([H:12])([H:13])[C@:5]1([C:6]([H:15])([H:16])[H:17])[H:14])([H:10])[H:11])([H:7])([H:8])[H:9]>>[C:1]([C:2]([N+:3]1([H:13])[C-:4]([H:12])[C@:5]1([C:6]([H:15])([H:16])[H:17])[H:14])([H:10])[H:11])([H:7])([H:8])[H:9]"
C       -1.93009232       1.03162765      -0.37107479
C       -1.41455123      -0.35219514      -0.01508465
N       -0.03230748      -0.50606566      -0.44200820
C        0.86969049      -1.67081517       0.33933596
C        1.04427921      -0.20740665       0.49286747
C        2.24605722       0.49893361      -0.07232646
H       -2.97557562       1.13667129      -0.07573586
H       -1.35585739       1.80558983       0.14181577
H       -1.85567136       1.20769130      -1.44500955
H       -1.49317730      -0.52961462       1.06474722
H       -2.01107982      -1.12057335      -0.51275221
H        0.19729376      -2.07326995       1.10404600
H        0.39434481      -1.47602411      -0.97231302
H        0.64655318       0.24262720       1.40233434
H        3.07821077       0.43602689       0.63161635
H        2.03420430       1.55286592      -0.26747906
H        2.55767879       0.02393097      -1.00297931
17
Frame=5 idx=000432 GeodesicLength=0.2813415940403662 rxn_smarts="[C:1]([C:2]([N:3]1[C:4]([H:12])([H:13])[C@:5]1([C:6]([H:15])([H:16])[H:17])[H:14])([H:10])[H:11])([H:7])([H:8])[H:9]>>[C:1]([C:2]([N+:3]1([H:13])[C-:4]([H:12])[C@:5]1([C:6]([H:15])([H:16])[H:17])[H:14])([H:10])[H:11])([H:7])([H:8])[H:9]"
C       -1.92641147       1.03148844      -0.37217869
C       -1.41634525      -0.35284608      -0.01074972
N       -0.03419608      -0.51276646      -0.43412431
C        0.86150862      -1.66790694       0.33451362
C        1.04301971      -0.20625699       0.49739756
C        2.24240486       0.50038004      -0.07216043
H       -2.97213314       1.14114858      -0.07941110
H       -1.35100035       1.80534781       0.13959243
H       -1.84950594       1.20390332      -1.44659485
H       -1.49549175      -0.52640118       1.06966334
H       -2.01524239      -1.12103336      -0.50589535
H        0.19821688      -2.07882806       1.10215543
H        0.40924170      -1.47749808      -0.98874406
H        0.64723449       0.24289888       1.40822464
H        3.07681436       0.43875886       0.62925123
H        2.02965587       1.55416060      -0.26744462
H        2.55222990       0.02545059      -1.00349512
17
Frame=6 idx=000432 GeodesicLength=0.3376377867725285 rxn_smarts="[C:1]([C:2]([N:3]1[C:4]([H:12])([H:13])[C@:5]1([C:6]([H:15])([H:16])[H:17])[H:14])([H:10])[H:11])([H:7])([H:8])[H:9]>>[C:1]([C:2]([N+:3]1([H:13])[C-:4]([H:12])[C@:5]1([C:6]([H:15])([H:16])[H:17])[H:14])([H:10])[H:11])([H:7])([H:8])[H:9]"
C       -1.92268351       1.03137313      -0.37329714
C       -1.41812836      -0.35344209      -0.00643054
N       -0.03612222      -0.51946899      -0.42639543
C        0.85339639      -1.66507095       0.32971192
C        1.04169588      -0.20520958       0.50184110
C        2.23865441       0.50183255      -0.07199565
H       -2.96859196       1.14569753      -0.08302708
H       -1.34600835       1.80511541       0.13727568
H       -1.84339303       1.20008417      -1.44819374
H       -1.49775450      -0.52314480       1.07455055
H       -2.01946233      -1.12141244      -0.49899212
H        0.19924495      -2.08447537       1.10010706
H        0.42427002      -1.47892277      -1.00472566
H        0.64789841       0.24302673       1.41406556
H        3.07529058       0.44154300       0.62690545
H        2.02494852       1.55545237      -0.26738813
H        2.54674509       0.02702210      -1.00401182
17
Frame=7 idx=000432 GeodesicLength=0.39395391857010986 rxn_smarts="[C:1]([C:2]([N:3]1[C:4]([H:12])([H:13])[C@:5]1([C:6]([H:15])([H:16])[H:17])[H:14])([H:10])[H:11])([H:7])([H:8])[H:9]>>[C:1]([C:2]([N+:3]1([H:13])[C-:4]([H:12])[C@:5]1([C:6]([H:15])([H:16])[H:17])[H:14])([H:10])[H:11])([H:7])([H:8])[H:9]"
C       -1.91890958       1.03128089      -0.37443547
C       -1.41989819      -0.35397802      -0.00211872
N       -0.03808744      -0.52615882      -0.41880842
C        0.84535357      -1.66230653       0.32492843
C        1.04031174      -0.20426808       0.50620515
C        2.23480202       0.50329287      -0.07183230
H       -2.96495625       1.15031758      -0.08661005
H       -1.34089319       1.80489067       0.13486417
H       -1.83731881       1.19623191      -1.44980765
H       -1.49995610      -0.51982950       1.07941725
H       -2.02373686      -1.12170715      -0.49202062
H        0.20037055      -2.09021696       1.09788728
H        0.43943666      -1.48032594      -1.02027278
H        0.64855460       0.24300040       1.41986669
H        3.07364535       0.44437406       0.62456558
H        2.02007357       1.55674499      -0.26729132
H        2.54120835       0.02865766      -1.00453720
17
Frame=8 idx=000432 GeodesicLength=0.45027854774367404 rxn_smarts="[C:1]([C:2]([N:3]1[C:4]([H:12])([H:13])[C@:5]1([C:6]([H:15])([H:16])[H:17])[H:14])([H:10])[H:11])([H:7])([H:8])[H:9]>>[C:1]([C:2]([N+:3]1([H:13])[C-:4]([H:12])[C@:5]1([C:6]([H:15])([H:16])[H:17])[H:14])([H:10])[H:11])([H:7])([H:8])[H:9]"
C       -1.91511015       1.03120930      -0.37558459
C       -1.42165720      -0.35445592       0.00217544
N       -0.04008755      -0.53281122      -0.41136807
C        0.83737173      -1.65960142       0.32016753
C        1.03887280      -0.20341631       0.51048396
C        2.23086940       0.50475435      -0.07167162
H       -2.96124896       1.15498673      -0.09014447
H       -1.33568585       1.80467455       0.13237961
H       -1.83130584       1.19236203      -1.45142741
H       -1.50210200      -0.51646478       1.08425361
H       -2.02805766      -1.12192265      -0.48500447
H        0.20157866      -2.09602768       1.09550259
H        0.45474855      -1.48174210      -1.03538780
H        0.64920499       0.24284628       1.42561729
H        3.07189351       0.44723631       0.62223884
H        2.01507372       1.55803524      -0.26716352
H        2.53564185       0.03033730      -1.00506692
17
Frame=9 idx=000432 GeodesicLength=0.5066192274179552 rxn_smarts="[C:1]([C:2]([N:3]1[C:4]([H:12])([H:13])[C@:5]1([C:6]([H:15])([H:16])[H:17])[H:14])([H:10])[H:11])([H:7])([H:8])[H:9]>>[C:1]([C:2]([N+:3]1([H:13])[C-:4]([H:12])[C@:5]1([C:6]([H:15])([H:16])[H:17])[H:14])([H:10])[H:11])([H:7])([H:8])[H:9]"
C       -1.91128649       1.03115895      -0.37674643
C       -1.42340582      -0.35487296       0.00645822
N       -0.04212329      -0.53941480      -0.40406422
C        0.82944763      -1.65695450       0.31542728
C        1.03738363      -0.20265534       0.51468439
C        2.22685691       0.50621909      -0.07151378
H       -2.95747441       1.15970460      -0.09364403
H       -1.33039422       1.80446996       0.12982310
H       -1.82534995       1.18847114      -1.45305511
H       -1.50419107      -0.51304327       1.08906706
H       -2.03242332      -1.12205699      -0.47793548
H        0.20285788      -2.10191018       1.09294279
H        0.47021695      -1.48320185      -1.05008470
H        0.64985883       0.24255997       1.43132770
H        3.07004129       0.45012902       0.61991746
H        2.00994862       1.55932643      -0.26699576
H        2.53003682       0.03207073      -1.00560848
17
Frame=10 idx=000432 GeodesicLength=0.5629812984475887 rxn_smarts="[C:1]([C:2]([N:3]1[C:4]([H:12])([H:13])[C@:5]1([C:6]([H:15])([H:16])[H:17])[H:14])([H:10])[H:11])([H:7])([H:8])[H:9]>>[C:1]([C:2]([N+:3]1([H:13])[C-:4]([H:12])[C@:5]1([C:6]([H:15])([H:16])[H:17])[H:14])([H:10])[H:11])([H:7])([H:8])[H:9]"
C       -1.90743756       1.03112892      -0.37792673
C       -1.42514330      -0.35522655       0.01073707
N       -0.04419657      -0.54596086      -0.39688618
C        0.82157933      -1.65436571       0.31070554
C        1.03584622      -0.20198646       0.51881463
C        2.22276032       0.50769201      -0.07135540
H       -2.95362815       1.16448037      -0.09711218
H       -1.32501104       1.80427897       0.12717195
H       -1.81945900       1.18454369      -1.45469825
H       -1.50622003      -0.50955286       1.09386552
H       -2.03683189      -1.12210950      -0.47079879
H        0.20419742      -2.10787048       1.09019432
H        0.48585895      -1.48473167      -1.06437800
H        0.65052330       0.24213191       1.43700988
H        3.06809663       0.45304039       0.61758876
H        2.00469442       1.56062825      -0.26675939
H        2.52437097       0.03387959      -1.00617276
17
Frame=11 idx=000432 GeodesicLength=0.6193619006845842 rxn_smarts="[C:1]([C:2]([N:3]1[C:4]([H:12])([H:13])[C@:5]1([C:6]([H:15])([H:16])[H:17])[H:14])([H:10])[H:11])([H:7])([H:8])[H:9]>>[C:1]([C:2]([N+:3]1([H:13])[C-:4]([H:12])[C@:5]1([C:6]([H:15])([H:16])[H:17])[H:14])([H:10])[H:11])([H:7])([H:8])[H:9]"
C       -1.90357239       1.03111946      -0.37912258
C       -1.42687261      -0.35551534       0.01501154
N       -0.04630707      -0.55243550      -0.38983062
C        0.81376139      -1.65182912       0.30600053
C        1.03426574      -0.20140462       0.52287517
C        2.21858818       0.50917103      -0.07119768
H       -2.94972345       1.16930511      -0.10055331
H       -1.31955415       1.80410305       0.12443951
H       -1.81363728       1.18058628      -1.45635353
H       -1.50819112      -0.50599262       1.09864932
H       -2.04128203      -1.12208011      -0.46359866
H        0.20558800      -2.11389867       1.08725557
H        0.50168994      -1.48636292      -1.07827463
H        0.65120423       0.24156821       1.44266457
H        3.06606786       0.45596459       0.61525187
H        1.99932614       1.56193987      -0.26645493
H        2.51864861       0.03576130      -1.00676215
17
Frame=12 idx=000432 GeodesicLength=0.6757642330958704 rxn_smarts="[C:1]([C:2]([N:3]1[C:4]([H:12])([H:13])[C@:5]1([C:6]([H:15])([H:16])[H:17])[H:14])([H:10])[H:11])([H:7])([H:8])[H:9]>>[C:1]([C:2]([N+:3]1([H:13])[C-:4]([H:12])[C@:5]1([C:6]([H:15])([H:16])[H:17])[H:14])([H:10])[H:11])([H:7])([H:8])[H:9]"
C       -1.89969724       1.03113311      -0.38033212
C       -1.42859578      -0.35573849       0.01928244
N       -0.04845574      -0.55882921      -0.38289383
C        0.80598535      -1.64934186       0.30131047
C        1.03264507      -0.20090725       0.52686896
C        2.21434631       0.51065699      -0.07104305
H       -2.94576948       1.17417461      -0.10397160
H       -1.31403800       1.80394630       0.12163552
H       -1.80788713       1.17660680      -1.45801976
H       -1.51010588      -0.50236199       1.10342180
H       -2.04577141      -1.12196969      -0.45633694
H        0.20701764      -2.11999535       1.08412501
H        0.51773348      -1.48812831      -1.09178084
H        0.65190546       0.24087269       1.44829667
H        3.06396102       0.45889980       0.61290284
H        1.99385530       1.56326598      -0.26608262
H        2.51287102       0.03771590      -1.00738298
17
Frame=13 idx=000432 GeodesicLength=0.7321768890534208 rxn_smarts="[C:1]([C:2]([N:3]1[C:4]([H:12])([H:13])[C@:5]1([C:6]([H:15])([H:16])[H:17])[H:14])([H:10])[H:11])([H:7])([H:8])[H:9]>>[C:1]([C:2]([N+:3]1([H:13])[C-:4]([H:12])[C@:5]1([C:6]([H:15])([H:16])[H:17])[H:14])([H:10])[H:11])([H:7])([H:8])[H:9]"
C       -1.89580487       1.03116524      -0.38155938
C       -1.43031117      -0.35589075       0.02355680
N       -0.05064318      -0.56513254      -0.37606417
C        0.79825502      -1.64690229       0.29662805
C        1.03098918      -0.20049913       0.53079883
C        2.21002105       0.51215113      -0.07088578
H       -2.94175371       1.17909628      -0.10736655
H       -1.30844461       1.80380141       0.11873946
H       -1.80220553       1.17258886      -1.45969684
H       -1.51195611      -0.49864546       1.10818359
H       -2.05030160      -1.12177060      -0.44899555
H        0.20848453      -2.12614946       1.08078186
H        0.53399568      -1.49004788      -1.10491141
H        0.65263594       0.24002906       1.45390593
H        3.06176834       0.46184940       0.61054013
H        1.98825259       1.56459897      -0.26562763
H        2.50701846       0.03975777      -1.00802733
17
Frame=14 idx=000432 GeodesicLength=0.7886111565425888 rxn_smarts="[C:1]([C:2]([N:3]1[C:4]([H:12])([H:13])[C@:5]1([C:6]([H:15])([H:16])[H:17])[H:14])([H:10])[H:11])([H:7])([H:8])[H:9]>>[C:1]([C:2]([N+:3]1([H:13])[C-:4]([H:12])[C@:5]1([C:6]([H:15])([H:16])[H:17])[H:14])([H:10])[H:11])([H:7])([H:8])[H:9]"
C       -1.89191322       1.03122186      -0.38279514
C       -1.43202465      -0.35597554       0.02782717
N       -0.05287097      -0.57133746      -0.36934426
C        0.79055605      -1.64450477       0.29195698
C        1.02929871      -0.20017014       0.53466732
C        2.20563179       0.51365209      -0.07073345
H       -2.93769816       1.18406005      -0.11072811
H       -1.30280606       1.80367726       0.11577835
H       -1.79660767       1.16855802      -1.46137844
H       -1.51375350      -0.49485834       1.11293362
H       -2.05486699      -1.12148801      -0.44160024
H        0.20996879      -2.13236170       1.07723804
H        0.55051907      -1.49215958      -1.11766646
H        0.65339228       0.23906143       1.45949498
H        3.05950451       0.46481049       0.60816287
H        1.98255625       1.56594634      -0.26510926
H        2.50111378       0.04186799      -1.00870398
17
Frame=15 idx=000432 GeodesicLength=0.845059896812114 rxn_smarts="[C:1]([C:2]([N:3]1[C:4]([H:12])([H:13])[C@:5]1([C:6]([H:15])([H:16])[H:17])[H:14])([H:10])[H:11])([H:7])([H:8])[H:9]>>[C:1]([C:2]([N+:3]1([H:13])[C-:4]([H:12])[C@:5]1([C:6]([H:15])([H:16])[H:17])[H:14])([H:10])[H:11])([H:7])([H:8])[H:9]"
C       -1.88803922       1.03130180      -0.38402891
C       -1.43373880      -0.35599151       0.03208476
N       -0.05513816      -0.57742541      -0.36273348
C        0.78288311      -1.64213278       0.28729906
C        1.02757740      -0.19990599       0.53846919
C        2.20119230       0.51515024      -0.07058808
H       -2.93362282       1.18904607      -0.11404861
H       -1.29715306       1.80357001       0.11277891
H       -1.79110994       1.16453227      -1.46304929
H       -1.51550291      -0.49101135       1.11765852
H       -2.05945908      -1.12111691      -0.43417557
H        0.21146579      -2.13860317       1.07349825
H        0.56732502      -1.49449713      -1.13004267
H        0.65417554       0.23799258       1.46504911
H        3.05717878       0.46776691       0.60577392
H        1.97679569       1.56729713      -0.26453909
H        2.49517036       0.04402724      -1.00940602
17
Frame=16 idx=000432 GeodesicLength=0.9015167255852701 rxn_smarts="[C:1]([C:2]([N:3]1[C:4]([H:12])([H:13])[C@:5]1([C:6]([H:15])([H:16])[H:17])[H:14])([H:10])[H:11])([H:7])([H:8])[H:9]>>[C:1]([C:2]([N+:3]1([H:13])[C-:4]([H:12])[C@:5]1([C:6]([H:15])([H:16])[H:17])[H:14])([H:10])[H:11])([H:7])([H:8])[H:9]"
C       -1.88419858       1.03140631      -0.38525049
C       -1.43545730      -0.35593938       0.03632123
N       -0.05744454      -0.58338238      -0.35623231
C        0.77522989      -1.63977394       0.28265657
C        1.02582759      -0.19969339       0.54220095
C        2.19671660       0.51663893      -0.07045348
H       -2.92954688       1.19403867      -0.11731936
H       -1.29151439       1.80348004       0.10976802
H       -1.78572569       1.16053217      -1.46469687
H       -1.51721197      -0.48711764       1.12234842
H       -2.06407074      -1.12065629      -0.42674670
H        0.21296793      -2.14485272       1.06957014
H        0.58443958      -1.49709667      -1.14203712
H        0.65498439       0.23684551       1.47055802
H        3.05480115       0.47070598       0.60337451
H        1.97100076       1.56864637      -0.26392957
H        2.48920219       0.04621844      -1.01013196
