12
Frame=0 idx=002802 GeodesicLength=0.0 rxn_smarts="[C:1]([C:2](=[O:3])[C@@:4]1([H:10])[C:5]([H:11])([H:12])[O:6]1)([H:7])([H:8])[H:9]>>[C:1]([C:2](=[O:3])[H:9])([C@@:4]1([H:10])[C:5]([H:11])([H:12])[O:6]1)([H:7])[H:8]"
C       -1.22456509      -0.59251186      -0.75284259
C       -0.96517743      -0.51867491       0.62783337
O       -0.86494365      -1.44666662       1.47416287
C        0.48014904       0.39908950       0.62731568
C        1.49930810       0.43418264      -0.40762201
O        0.64833935       1.54992997      -0.09959475
H       -1.23749117       0.32601442      -1.32839687
H       -1.38812047      -1.53717861      -1.26335023
H       -1.50201658       0.43972325       0.93398593
H        0.70051683       0.40869217       1.68941807
H        1.31427334      -0.04078901      -1.36433121
H        2.53972777       0.57818905      -0.13657824
12
Frame=1 idx=002802 GeodesicLength=0.10052349392505512 rxn_smarts="[C:1]([C:2](=[O:3])[C@@:4]1([H:10])[C:5]([H:11])([H:12])[O:6]1)([H:7])([H:8])[H:9]>>[C:1]([C:2](=[O:3])[H:9])([C@@:4]1([H:10])[C:5]([H:11])([H:12])[O:6]1)([H:7])[H:8]"
C       -1.21279872      -0.58395620      -0.73615631
C       -0.97322006      -0.52676454       0.65132712
O       -0.90045007      -1.45192287       1.49591574
C        0.48421347       0.38244286       0.61988893
C        1.50097206       0.44176184      -0.41701696
O        0.64711011       1.54789247      -0.08977146
H       -1.22816594       0.32557777      -1.32525307
H       -1.36468532      -1.53294986      -1.24295993
H       -1.53913963       0.44962123       0.89392516
H        0.72683998       0.38224107       1.67791129
H        1.31755934      -0.01918002      -1.38097681
H        2.54176479       0.58523627      -0.14683371
12
Frame=2 idx=002802 GeodesicLength=0.2010822074032425 rxn_smarts="[C:1]([C:2](=[O:3])[C@@:4]1([H:10])[C:5]([H:11])([H:12])[O:6]1)([H:7])([H:8])[H:9]>>[C:1]([C:2](=[O:3])[H:9])([C@@:4]1([H:10])[C:5]([H:11])([H:12])[O:6]1)([H:7])[H:8]"
C       -1.20043550      -0.57592389      -0.71911682
C       -0.98214782      -0.53262275       0.67515804
O       -0.93680633      -1.45589480       1.51650824
C        0.48884275       0.36535282       0.61238258
C        1.50277796       0.45025077      -0.42628738
O        0.64604886       1.54594114      -0.07853676
H       -1.21748268       0.32336946      -1.32327433
H       -1.34363408      -1.52969073      -1.22053057
H       -1.57601993       0.45832848       0.85275764
H        0.75412884       0.35357754       1.66566494
H        1.32072682       0.00427511      -1.39761852
H        2.54400111       0.59303686      -0.15710706
12
Frame=3 idx=002802 GeodesicLength=0.30171150583512796 rxn_smarts="[C:1]([C:2](=[O:3])[C@@:4]1([H:10])[C:5]([H:11])([H:12])[O:6]1)([H:7])([H:8])[H:9]>>[C:1]([C:2](=[O:3])[H:9])([C@@:4]1([H:10])[C:5]([H:11])([H:12])[O:6]1)([H:7])[H:8]"
C       -1.18756136      -0.56841042      -0.70173451
C       -0.99183363      -0.53628722       0.69928701
O       -0.97392866      -1.45846413       1.53603013
C        0.49405428       0.34778124       0.60472080
C        1.50472245       0.45960597      -0.43542015
O        0.64517446       1.54396789      -0.06592505
H       -1.20554794       0.31940287      -1.32228069
H       -1.32479071      -1.52726169      -1.19620756
H       -1.61264610       0.46577836       0.81058160
H        0.78218390       0.32277069       1.65254207
H        1.32374281       0.02956126      -1.41420527
H        2.54643050       0.60155519      -0.16738837
12
Frame=4 idx=002802 GeodesicLength=0.4024194562407377 rxn_smarts="[C:1]([C:2](=[O:3])[C@@:4]1([H:10])[C:5]([H:11])([H:12])[O:6]1)([H:7])([H:8])[H:9]>>[C:1]([C:2](=[O:3])[H:9])([C@@:4]1([H:10])[C:5]([H:11])([H:12])[O:6]1)([H:7])[H:8]"
C       -1.17428406      -0.56139735      -0.68401860
C       -1.00215674      -0.53779906       0.72367138
O       -1.01171663      -1.45950118       1.55455734
C        0.49985367       0.32970628       0.59683347
C        1.50679512       0.46977543      -0.44439536
O        0.64450968       1.54186962      -0.05197101
H       -1.19248695       0.31369974      -1.32209723
H       -1.30795958      -1.52552724      -1.17014880
H       -1.64900180       0.47187816       0.76746487
H        0.81084088       0.28990642       1.63844085
H        1.32656246       0.05664754      -1.43067402
H        2.54904397       0.61074164      -0.17766289
12
Frame=5 idx=002802 GeodesicLength=0.5031403479919667 rxn_smarts="[C:1]([C:2](=[O:3])[C@@:4]1([H:10])[C:5]([H:11])([H:12])[O:6]1)([H:7])([H:8])[H:9]>>[C:1]([C:2](=[O:3])[H:9])([C@@:4]1([H:10])[C:5]([H:11])([H:12])[O:6]1)([H:7])[H:8]"
C       -1.16069538      -0.55485397      -0.66600354
C       -1.01294461      -0.53721781       0.74822826
O       -1.05003915      -1.45887473       1.57218403
C        0.50623812       0.31112079       0.58863739
C        1.50900153       0.48070328      -0.45318363
O        0.64409528       1.53954871      -0.03673602
H       -1.17843210       0.30633606      -1.32255599
H       -1.29302988      -1.52435792      -1.14248505
H       -1.68506489       0.47646000       0.72349813
H        0.83986763       0.25510697       1.62324927
H        1.32916448       0.08549072      -1.44694858
H        2.55183896       0.62053789      -0.18788427
12
Frame=6 idx=002802 GeodesicLength=0.6037551679235245 rxn_smarts="[C:1]([C:2](=[O:3])[C@@:4]1([H:10])[C:5]([H:11])([H:12])[O:6]1)([H:7])([H:8])[H:9]>>[C:1]([C:2](=[O:3])[H:9])([C@@:4]1([H:10])[C:5]([H:11])([H:12])[O:6]1)([H:7])[H:8]"
C       -1.14693928      -0.54869721      -0.64769517
C       -1.02408626      -0.53457009       0.77291530
O       -1.08869783      -1.45648254       1.58894317
C        0.51317676       0.29206283       0.58007367
C        1.51131755       0.49230297      -0.46174673
O        0.64397988       1.53691532      -0.02029839
H       -1.16352378       0.29739422      -1.32349136
H       -1.27978653      -1.52359889      -1.11339513
H       -1.72081105       0.47930290       0.67873988
H        0.86908491       0.21855209       1.60689539
H        1.33148910       0.11599137      -1.46292496
H        2.55479653       0.63082703      -0.19801566
12
Frame=7 idx=002802 GeodesicLength=0.7041945695602859 rxn_smarts="[C:1]([C:2](=[O:3])[C@@:4]1([H:10])[C:5]([H:11])([H:12])[O:6]1)([H:7])([H:8])[H:9]>>[C:1]([C:2](=[O:3])[H:9])([C@@:4]1([H:10])[C:5]([H:11])([H:12])[O:6]1)([H:7])[H:8]"
C       -1.13314111      -0.54283898      -0.62912489
C       -1.03545442      -0.52991202       0.79766979
O       -1.12747646      -1.45224309       1.60487638
C        0.52062354       0.27259238       0.57108106
C        1.51372243       0.50447339      -0.47004355
O        0.64422044       1.53388967      -0.00276264
H       -1.14792513       0.28700917      -1.32473542
H       -1.26803378      -1.52310235      -1.08307152
H       -1.75622327       0.48016925       0.63327405
H        0.89830050       0.18046835       1.58933981
H        1.33349108       0.14802610      -1.47849378
H        2.55789617       0.64146812      -0.20800929
12
Frame=8 idx=002802 GeodesicLength=0.8041730992533017 rxn_smarts="[C:1]([C:2](=[O:3])[C@@:4]1([H:10])[C:5]([H:11])([H:12])[O:6]1)([H:7])([H:8])[H:9]>>[C:1]([C:2](=[O:3])[H:9])([C@@:4]1([H:10])[C:5]([H:11])([H:12])[O:6]1)([H:7])[H:8]"
C       -1.11946224      -0.53711312      -0.61033912
C       -1.04687268      -0.52330328       0.82239524
O       -1.16605744      -1.44616716       1.62000648
C        0.52849491       0.25282846       0.56159037
C        1.51622078       0.51709439      -0.47800189
O        0.64489512       1.53041509       0.01566473
H       -1.13179970       0.27539315      -1.32615938
H       -1.25770225      -1.52266455      -1.05166053
H       -1.79121244       0.47865365       0.58727728
H        0.92717695       0.14119410       1.57045651
H        1.33519058       0.18137144      -1.49350344
H        2.56112840       0.65229783      -0.21772625
12
Frame=9 idx=002802 GeodesicLength=0.9047408289964993 rxn_smarts="[C:1]([C:2](=[O:3])[C@@:4]1([H:10])[C:5]([H:11])([H:12])[O:6]1)([H:7])([H:8])[H:9]>>[C:1]([C:2](=[O:3])[H:9])([C@@:4]1([H:10])[C:5]([H:11])([H:12])[O:6]1)([H:7])[H:8]"
C       -1.10613519      -0.53129175      -0.59123847
C       -1.05828548      -0.51494363       0.84716059
O       -1.20415588      -1.43851185       1.63440395
C        0.53665692       0.23293040       0.55167844
C        1.51869147       0.53001446      -0.48558775
O        0.64601849       1.52649876       0.03488412
H       -1.11530524       0.26277948      -1.32752988
H       -1.24828537      -1.52219574      -1.01939266
H       -1.82578868       0.47489301       0.54034951
H        0.95577143       0.10094522       1.55032973
H        1.33640251       0.21581583      -1.50784570
H        2.56441502       0.66306580      -0.22721189
12
Frame=10 idx=002802 GeodesicLength=1.005146111586026 rxn_smarts="[C:1]([C:2](=[O:3])[C@@:4]1([H:10])[C:5]([H:11])([H:12])[O:6]1)([H:7])([H:8])[H:9]>>[C:1]([C:2](=[O:3])[H:9])([C@@:4]1([H:10])[C:5]([H:11])([H:12])[O:6]1)([H:7])[H:8]"
C       -1.09315744      -0.52536105      -0.57202963
C       -1.06950062      -0.50494349       0.87177256
O       -1.24163902      -1.42910518       1.64806004
C        0.54504787       0.21298810       0.54124622
C        1.52119236       0.54310841      -0.49276480
O        0.64766881       1.52208391       0.05466467
H       -1.09863499       0.24932960      -1.32879620
H       -1.23982121      -1.52146930      -0.98654120
H       -1.85989470       0.46841981       0.49317121
H        0.98370055       0.06016170       1.52899447
H        1.33725615       0.25114149      -1.52141680
H        2.56778225       0.67364600      -0.23636056
12
Frame=11 idx=002802 GeodesicLength=1.1053796656033315 rxn_smarts="[C:1]([C:2](=[O:3])[C@@:4]1([H:10])[C:5]([H:11])([H:12])[O:6]1)([H:7])([H:8])[H:9]>>[C:1]([C:2](=[O:3])[H:9])([C@@:4]1([H:10])[C:5]([H:11])([H:12])[O:6]1)([H:7])[H:8]"
C       -1.08064044      -0.51916681      -0.55277687
C       -1.08040097      -0.49347556       0.89615506
O       -1.27830377      -1.41808238       1.66098723
C        0.55354314       0.19315966       0.53029294
C        1.52370694       0.55622831      -0.49949929
O        0.64989103       1.51718457       0.07477816
H       -1.08196561       0.23530268      -1.32984621
H       -1.23211273      -1.52032021      -0.95332080
H       -1.89346338       0.45903509       0.44593843
H        1.01076681       0.01921753       1.50652681
H        1.33776516       0.28707259      -1.53411827
H        2.57121382       0.68384451      -0.24511719
12
Frame=12 idx=002802 GeodesicLength=1.2055379291356128 rxn_smarts="[C:1]([C:2](=[O:3])[C@@:4]1([H:10])[C:5]([H:11])([H:12])[O:6]1)([H:7])([H:8])[H:9]>>[C:1]([C:2](=[O:3])[H:9])([C@@:4]1([H:10])[C:5]([H:11])([H:12])[O:6]1)([H:7])[H:8]"
C       -1.06867365      -0.51255997      -0.53353614
C       -1.09091686      -0.48071715       0.92026550
O       -1.31400760      -1.40556444       1.67321140
C        0.56203111       0.17358933       0.51885296
C        1.52621282       0.56923462      -0.50577820
O        0.65273061       1.51182984       0.09505267
H       -1.06546971       0.22094361      -1.33057618
H       -1.22490043      -1.51861549      -0.91994704
H       -1.92646583       0.44659097       0.39878484
H        1.03684176      -0.02156532       1.48303553
H        1.33792616       0.32337377      -1.54588448
H        2.57469161       0.69346023      -0.25348085
12
Frame=13 idx=002802 GeodesicLength=1.3060462520799925 rxn_smarts="[C:1]([C:2](=[O:3])[C@@:4]1([H:10])[C:5]([H:11])([H:12])[O:6]1)([H:7])([H:8])[H:9]>>[C:1]([C:2](=[O:3])[H:9])([C@@:4]1([H:10])[C:5]([H:11])([H:12])[O:6]1)([H:7])[H:8]"
C       -1.05741646      -0.50529879      -0.51427916
C       -1.10100934      -0.46684890       0.94413786
O       -1.34857281      -1.39185725       1.68476956
C        0.57037588       0.15444419       0.50700694
C        1.52867009       0.58198995      -0.51158486
O        0.65620627       1.50608816       0.11529925
H       -1.04929340       0.20654171      -1.33089118
H       -1.21791952      -1.51620130      -0.88655250
H       -1.95879302       0.43098214       0.35160750
H        1.06183652      -0.06188835       1.45858103
H        1.33772966       0.35975709      -1.55664818
H        2.57818611       0.70229136      -0.26144626
12
Frame=14 idx=002802 GeodesicLength=1.406453671116982 rxn_smarts="[C:1]([C:2](=[O:3])[C@@:4]1([H:10])[C:5]([H:11])([H:12])[O:6]1)([H:7])([H:8])[H:9]>>[C:1]([C:2](=[O:3])[H:9])([C@@:4]1([H:10])[C:5]([H:11])([H:12])[O:6]1)([H:7])[H:8]"
C       -1.04679737      -0.49739051      -0.49515723
C       -1.11066237      -0.45201916       0.96767774
O       -1.38204808      -1.37694620       1.69565467
C        0.57850850       0.13580021       0.49475676
C        1.53110160       0.59441208      -0.51694410
O        0.66034958       1.49999275       0.13540047
H       -1.03354865       0.19222669      -1.33077627
H       -1.21107061      -1.51299844      -0.85334704
H       -1.99042475       0.41209194       0.30483982
H        1.08563519      -0.10150265       1.43335988
H        1.33723975       0.39609757      -1.56641214
H        2.58171721       0.71023573      -0.26905255
12
Frame=15 idx=002802 GeodesicLength=1.5068354854534558 rxn_smarts="[C:1]([C:2](=[O:3])[C@@:4]1([H:10])[C:5]([H:11])([H:12])[O:6]1)([H:7])([H:8])[H:9]>>[C:1]([C:2](=[O:3])[H:9])([C@@:4]1([H:10])[C:5]([H:11])([H:12])[O:6]1)([H:7])[H:8]"
C       -1.03685862      -0.48871858      -0.47619266
C       -1.11987072      -0.43638330       0.99089168
O       -1.41444241      -1.36100023       1.70588854
C        0.58634348       0.11775018       0.48216152
C        1.53349657       0.60642569      -0.52187468
O        0.66516963       1.49360520       0.15524771
H       -1.01834752       0.17819542      -1.33018087
H       -1.20416814      -1.50893054      -0.82043266
H       -2.02126457       0.38987804       0.25852528
H        1.10818985      -0.14023221       1.40747692
H        1.33647686       0.43222655      -1.57517139
H        2.58527558       0.71718378      -0.27633938
12
Frame=16 idx=002802 GeodesicLength=1.6072984270463275 rxn_smarts="[C:1]([C:2](=[O:3])[C@@:4]1([H:10])[C:5]([H:11])([H:12])[O:6]1)([H:7])([H:8])[H:9]>>[C:1]([C:2](=[O:3])[H:9])([C@@:4]1([H:10])[C:5]([H:11])([H:12])[O:6]1)([H:7])[H:8]"
C       -1.02764246      -0.47917820      -0.45738513
C       -1.12866457      -0.42005145       1.01381745
O       -1.44580632      -1.34414129       1.71551602
C        0.59381123       0.10035281       0.46928188
C        1.53583512       0.61798471      -0.52640105
O        0.67067132       1.48697930       0.17480390
H       -1.00375159       0.16457827      -1.32909073
H       -1.19704005      -1.50393074      -0.78786919
H       -2.05118974       0.36430078       0.21263332
H        1.12949154      -0.17800485       1.38100638
H        1.33543927       0.46805672      -1.58293829
H        2.58884624       0.72305393      -0.28337455
