14
Frame=0 idx=006600 GeodesicLength=0.0 rxn_smarts="[C:1](/[N:2]=[C:3]1/[C:4]([H:11])([H:12])[O:5][C:6]([H:13])([H:14])[O:7]1)([H:8])([H:9])[H:10]>>[C:1]([O:7][C:6]([O:5][C:4]([C:3]#[N:2])([H:11])[H:12])([H:13])[H:14])([H:8])([H:9])[H:10]"
C        1.90805892      -0.82413818      -0.58877105
N        1.45654062       1.28134124       0.34580477
C        0.31976158       0.89366811       0.45020989
C       -1.10676950       1.33880096       0.62137574
O       -1.85013232       0.48411377      -0.23840378
C       -1.26794202      -0.79128949      -0.16155758
O        0.09430870      -0.57572778       0.16487333
H        2.05502495      -0.15085018      -1.41737208
H        2.64232781      -0.76977306       0.19717305
H        1.53224298      -1.81102799      -0.82212062
H       -1.24225531       2.36365166       0.28791151
H       -1.43803431       1.23819541       1.66238815
H       -1.36656384      -1.28440854      -1.13084082
H       -1.73656829      -1.39255587       0.62932946
14
Frame=1 idx=006600 GeodesicLength=0.05985190358483231 rxn_smarts="[C:1](/[N:2]=[C:3]1/[C:4]([H:11])([H:12])[O:5][C:6]([H:13])([H:14])[O:7]1)([H:8])([H:9])[H:10]>>[C:1]([O:7][C:6]([O:5][C:4]([C:3]#[N:2])([H:11])[H:12])([H:13])[H:14])([H:8])([H:9])[H:10]"
C        1.90203129      -0.81390621      -0.58664240
N        1.45930077       1.27714926       0.35357767
C        0.32208807       0.89565224       0.47274368
C       -1.10653753       1.33987386       0.61797812
O       -1.83845904       0.48642093      -0.25154278
C       -1.26824532      -0.79346726      -0.16017364
O        0.09331608      -0.59197143       0.17353864
H        2.04059601      -0.14712018      -1.42292869
H        2.65722680      -0.77440107       0.18112110
H        1.54069316      -1.80608534      -0.82418444
H       -1.23707824       2.36523782       0.28387543
H       -1.45055287       1.23738974       1.65461730
H       -1.36728573      -1.29288213      -1.12611047
H       -1.74709345      -1.38189022       0.63413049
14
Frame=2 idx=006600 GeodesicLength=0.11974887043868009 rxn_smarts="[C:1](/[N:2]=[C:3]1/[C:4]([H:11])([H:12])[O:5][C:6]([H:13])([H:14])[O:7]1)([H:8])([H:9])[H:10]>>[C:1]([O:7][C:6]([O:5][C:4]([C:3]#[N:2])([H:11])[H:12])([H:13])[H:14])([H:8])([H:9])[H:10]"
C        1.89588611      -0.80373406      -0.58408005
N        1.46200374       1.27287367       0.36186747
C        0.32429630       0.89802699       0.49485048
C       -1.10609127       1.34090290       0.61443793
O       -1.82639777       0.48846557      -0.26449480
C       -1.26840303      -0.79573073      -0.15876385
O        0.09230888      -0.60841610       0.18216713
H        2.02599686      -0.14342072      -1.42786376
H        2.67165665      -0.77898330       0.16457980
H        1.54888383      -1.80074934      -0.82651074
H       -1.23199134       2.36672218       0.27969932
H       -1.46266252       1.23660350       1.64659857
H       -1.36817962      -1.30138953      -1.12129718
H       -1.75730682      -1.37117104       0.63880970
14
Frame=3 idx=006600 GeodesicLength=0.17966147297081422 rxn_smarts="[C:1](/[N:2]=[C:3]1/[C:4]([H:11])([H:12])[O:5][C:6]([H:13])([H:14])[O:7]1)([H:8])([H:9])[H:10]>>[C:1]([O:7][C:6]([O:5][C:4]([C:3]#[N:2])([H:11])[H:12])([H:13])[H:14])([H:8])([H:9])[H:10]"
C        1.88972768      -0.79370034      -0.58098869
N        1.46462895       1.26862670       0.37032263
C        0.32636689       0.90087924       0.51628504
C       -1.10546910       1.34187902       0.61084486
O       -1.81411585       0.49027542      -0.27710845
C       -1.26848344      -0.79803177      -0.15740700
O        0.09126025      -0.62500056       0.19050974
H        2.01148266      -0.13994763      -1.43215681
H        2.68556755      -0.78346296       0.14776815
H        1.55689904      -1.79511711      -0.82891899
H       -1.22715017       2.36812087       0.27557894
H       -1.47418542       1.23571629       1.63849491
H       -1.36940412      -1.30977322      -1.11652940
H       -1.76712492      -1.36046394       0.64330508
14
Frame=4 idx=006600 GeodesicLength=0.23963427903288595 rxn_smarts="[C:1](/[N:2]=[C:3]1/[C:4]([H:11])([H:12])[O:5][C:6]([H:13])([H:14])[O:7]1)([H:8])([H:9])[H:10]>>[C:1]([O:7][C:6]([O:5][C:4]([C:3]#[N:2])([H:11])[H:12])([H:13])[H:14])([H:8])([H:9])[H:10]"
C        1.88346078      -0.78374420      -0.57747669
N        1.46725268       1.26430138       0.37929060
C        0.32833735       0.90414252       0.53736521
C       -1.10465036       1.34281332       0.60711271
O       -1.80144196       0.49181968      -0.28955722
C       -1.26840771      -0.80042116      -0.15602319
O        0.09020441      -0.64180963       0.19882350
H        1.99679719      -0.13649572      -1.43583268
H        2.69899439      -0.78787498       0.13044244
H        1.56461043      -1.78910380      -0.83158617
H       -1.22240242       2.36941941       0.27129066
H       -1.48534628       1.23484533       1.63015120
H       -1.37078302      -1.31818395      -1.11168389
H       -1.77662548      -1.34970820       0.64768352
14
Frame=5 idx=006600 GeodesicLength=0.29962158650459464 rxn_smarts="[C:1](/[N:2]=[C:3]1/[C:4]([H:11])([H:12])[O:5][C:6]([H:13])([H:14])[O:7]1)([H:8])([H:9])[H:10]>>[C:1]([O:7][C:6]([O:5][C:4]([C:3]#[N:2])([H:11])[H:12])([H:13])[H:14])([H:8])([H:9])[H:10]"
C        1.87720605      -0.77395372      -0.57344097
N        1.46982412       1.26003390       0.38834812
C        0.33018929       0.90791463       0.55780459
C       -1.10367795       1.34369840       0.60334640
O       -1.78856662       0.49313942      -0.30166734
C       -1.26824592      -0.80284043      -0.15470315
O        0.08911951      -0.65876850       0.20681012
H        1.98223829      -0.13329395      -1.43886857
H        2.71184739      -0.79217550       0.11287729
H        1.57212418      -1.78281993      -0.83431043
H       -1.21793152       2.37064157       0.26706936
H       -1.49593501       1.23385034       1.62176009
H       -1.37249176      -1.32644556      -1.10690430
H       -1.78570004      -1.33898067       0.65187879
14
Frame=6 idx=006600 GeodesicLength=0.35967194672254016 rxn_smarts="[C:1](/[N:2]=[C:3]1/[C:4]([H:11])([H:12])[O:5][C:6]([H:13])([H:14])[O:7]1)([H:8])([H:9])[H:10]>>[C:1]([O:7][C:6]([O:5][C:4]([C:3]#[N:2])([H:11])[H:12])([H:13])[H:14])([H:8])([H:9])[H:10]"
C        1.87087865      -0.76428306      -0.56897223
N        1.47240892       1.25573016       0.39778302
C        0.33195683       0.91212985       0.57790492
C       -1.10252926       1.34453988       0.59947827
O       -1.77532428       0.49421545      -0.31360030
C       -1.26792881      -0.80532923      -0.15338818
O        0.08803028      -0.67596162       0.21471457
H        1.96753518      -0.13018024      -1.44130816
H        2.72419054      -0.79634640       0.09482938
H        1.57933959      -1.77621632      -0.83718800
H       -1.21359261       2.37177456       0.26273516
H       -1.50615963       1.23282339       1.61318827
H       -1.37436496      -1.33467543      -1.10210180
H       -1.79444043      -1.32822100       0.65592508
14
Frame=7 idx=006600 GeodesicLength=0.41975306724369865 rxn_smarts="[C:1](/[N:2]=[C:3]1/[C:4]([H:11])([H:12])[O:5][C:6]([H:13])([H:14])[O:7]1)([H:8])([H:9])[H:10]>>[C:1]([O:7][C:6]([O:5][C:4]([C:3]#[N:2])([H:11])[H:12])([H:13])[H:14])([H:8])([H:9])[H:10]"
C        1.86456589      -0.75478988      -0.56401250
N        1.47497855       1.25147951       0.40731830
C        0.33363404       0.91685551       0.59748138
C       -1.10123529       1.34533415       0.59557600
O       -1.76185287       0.49507472      -0.32523900
C       -1.26750874      -0.80785121      -0.15213368
O        0.08692248      -0.69334169       0.22232635
H        1.95291259      -0.12729327      -1.44313464
H        2.73595792      -0.80037098       0.07650424
H        1.58632197      -1.76935991      -0.84010867
H       -1.20950987       2.37283095       0.25842510
H       -1.51588309       1.23167597       1.60456739
H       -1.37653531      -1.34275676      -1.09736719
H       -1.80276827      -1.31748711       0.65979691
14
Frame=8 idx=006600 GeodesicLength=0.4798988004743422 rxn_smarts="[C:1](/[N:2]=[C:3]1/[C:4]([H:11])([H:12])[O:5][C:6]([H:13])([H:14])[O:7]1)([H:8])([H:9])[H:10]>>[C:1]([O:7][C:6]([O:5][C:4]([C:3]#[N:2])([H:11])[H:12])([H:13])[H:14])([H:8])([H:9])[H:10]"
C        1.85819647      -0.74544545      -0.55862181
N        1.47757085       1.24720750       0.41716989
C        0.33524290       0.92204797       0.61674962
C       -1.09977217       1.34608368       0.59158754
O       -1.74801303       0.49570084      -0.33669864
C       -1.26692189      -0.81043469      -0.15089892
O        0.08581726      -0.71097442       0.22982014
H        1.93815486      -0.12451573      -1.44436592
H        2.74716464      -0.80422027       0.05771469
H        1.59298753      -1.76221728      -0.84313788
H       -1.20557380       2.37379901       0.25401339
H       -1.52524952       1.23047403       1.59579083
H       -1.37886843      -1.35077504      -1.09263402
H       -1.81073567      -1.30673015       0.66351109
14
Frame=9 idx=006600 GeodesicLength=0.5401680227546664 rxn_smarts="[C:1](/[N:2]=[C:3]1/[C:4]([H:11])([H:12])[O:5][C:6]([H:13])([H:14])[O:7]1)([H:8])([H:9])[H:10]>>[C:1]([O:7][C:6]([O:5][C:4]([C:3]#[N:2])([H:11])[H:12])([H:13])[H:14])([H:8])([H:9])[H:10]"
C        1.85167440      -0.73618350      -0.55288455
N        1.48025003       1.24279162       0.42770350
C        0.33680865       0.92764732       0.63597611
C       -1.09809156       1.34679068       0.58741569
O       -1.73361582       0.49604326      -0.34812632
C       -1.26609075      -0.81313930      -0.14960646
O        0.08475179      -0.72894995       0.23741697
H        1.92301056      -0.12161678      -1.44498796
H        2.75777641      -0.80790502       0.03824337
H        1.59919868      -1.75468292      -0.84646288
H       -1.20161390       2.37465554       0.24927283
H       -1.53442890       1.22933103       1.58668629
H       -1.38123102      -1.35888593      -1.08777592
H       -1.81839857      -1.29589604       0.66712933
14
Frame=10 idx=006600 GeodesicLength=0.6005258252916226 rxn_smarts="[C:1](/[N:2]=[C:3]1/[C:4]([H:11])([H:12])[O:5][C:6]([H:13])([H:14])[O:7]1)([H:8])([H:9])[H:10]>>[C:1]([O:7][C:6]([O:5][C:4]([C:3]#[N:2])([H:11])[H:12])([H:13])[H:14])([H:8])([H:9])[H:10]"
C        1.84509076      -0.72707926      -0.54673163
N        1.48297589       1.23833420       0.43859475
C        0.33832188       0.93373174       0.65495799
C       -1.09622638       1.34745080       0.58314320
O       -1.71880433       0.49613759      -0.35939417
C       -1.26506845      -0.81591887      -0.14832694
O        0.08370383      -0.74721678       0.24490893
H        1.90769738      -0.11877982      -1.44500012
H        2.76774293      -0.81137339       0.01829473
H        1.60503332      -1.74685581      -0.84991955
H       -1.19777134       2.37541658       0.24438101
H       -1.54327141       1.22814205       1.57740293
H       -1.38374231      -1.36694513      -1.08291108
H       -1.82568178      -1.28504390       0.67059997
14
Frame=11 idx=006600 GeodesicLength=0.6610318527905299 rxn_smarts="[C:1](/[N:2]=[C:3]1/[C:4]([H:11])([H:12])[O:5][C:6]([H:13])([H:14])[O:7]1)([H:8])([H:9])[H:10]>>[C:1]([O:7][C:6]([O:5][C:4]([C:3]#[N:2])([H:11])[H:12])([H:13])[H:14])([H:8])([H:9])[H:10]"
C        1.83835214      -0.71807332      -0.54023166
N        1.48579552       1.23372393       0.45014476
C        0.33979685       0.94025076       0.67390420
C       -1.09412632       1.34805948       0.57868592
O       -1.70340702       0.49593775      -0.37061526
C       -1.26378529      -0.81882238      -0.14699723
O        0.08270019      -0.76585484       0.25246775
H        1.89199577      -0.11579708      -1.44438234
H        2.77702285      -0.81462759      -0.00229292
H        1.61036645      -1.73864161      -0.85365801
H       -1.19389525       2.37605250       0.23914412
H       -1.55190278       1.22699301       1.56779029
H       -1.38629495      -1.37507682      -1.07793221
H       -1.83261816      -1.27412380       0.67397258
14
Frame=12 idx=006600 GeodesicLength=0.7216392499884386 rxn_smarts="[C:1](/[N:2]=[C:3]1/[C:4]([H:11])([H:12])[O:5][C:6]([H:13])([H:14])[O:7]1)([H:8])([H:9])[H:10]>>[C:1]([O:7][C:6]([O:5][C:4]([C:3]#[N:2])([H:11])[H:12])([H:13])[H:14])([H:8])([H:9])[H:10]"
C        1.83156402      -0.70925026      -0.53331544
N        1.48866500       1.22907834       0.46198862
C        0.34123285       0.94729378       0.69258863
C       -1.09183161       1.34861511       0.57413941
O       -1.68758665       0.49549131      -0.38165693
C       -1.26229842      -0.82179676      -0.14569767
O        0.08171937      -0.78480590       0.25987622
H        1.87612882      -0.11287909      -1.44314524
H        2.78556843      -0.81761280      -0.02329416
H        1.61529846      -1.73016280      -0.85748179
H       -1.19014998       2.37658744       0.23376522
H       -1.56016206       1.22576145       1.55802192
H       -1.38901200      -1.38311696      -1.07297574
H       -1.83913621      -1.26320286       0.67718694
14
Frame=13 idx=006600 GeodesicLength=0.7824394226762765 rxn_smarts="[C:1](/[N:2]=[C:3]1/[C:4]([H:11])([H:12])[O:5][C:6]([H:13])([H:14])[O:7]1)([H:8])([H:9])[H:10]>>[C:1]([O:7][C:6]([O:5][C:4]([C:3]#[N:2])([H:11])[H:12])([H:13])[H:14])([H:8])([H:9])[H:10]"
C        1.82460911      -0.70055691      -0.52605688
N        1.49164157       1.22425302       0.47452194
C        0.34264707       0.95480057       0.71127849
C       -1.08927918       1.34911611       0.56940102
O       -1.67113758       0.49473588      -0.39265455
C       -1.26052799      -0.82490467      -0.14435520
O        0.08078915      -0.80416997       0.26734341
H        1.85981661      -0.10979612      -1.44126468
H        2.79335275      -0.82028267      -0.04493827
H        1.61968204      -1.72131536      -0.86156810
H       -1.18634337       2.37699351       0.22800926
H       -1.56820581       1.22456673       1.54790814
H       -1.39176617      -1.39121675      -1.06791874
H       -1.84527820      -1.25222336       0.68029414
14
Frame=14 idx=006600 GeodesicLength=0.8434879085754221 rxn_smarts="[C:1](/[N:2]=[C:3]1/[C:4]([H:11])([H:12])[O:5][C:6]([H:13])([H:14])[O:7]1)([H:8])([H:9])[H:10]>>[C:1]([O:7][C:6]([O:5][C:4]([C:3]#[N:2])([H:11])[H:12])([H:13])[H:14])([H:8])([H:9])[H:10]"
C        1.81740213      -0.69190818      -0.51852222
N        1.49476574       1.21911495       0.48807109
C        0.34403085       0.96272798       0.73013515
C       -1.08640428       1.34954889       0.56437192
O       -1.65386609       0.49360674      -0.40370265
C       -1.25839634      -0.82820053      -0.14289505
O        0.07994780      -0.82402937       0.27503622
H        1.84286672      -0.10629160      -1.43869452
H        2.80025018      -0.82267956      -0.06734683
H        1.62336868      -1.71196078      -0.86612203
H       -1.18231349       2.37721478       0.22166349
H       -1.57613084       1.22350389       1.53727979
H       -1.39446992      -1.39951679      -1.06263188
H       -1.85105113      -1.24113041       0.68335751
14
Frame=15 idx=006600 GeodesicLength=0.9047783661571636 rxn_smarts="[C:1](/[N:2]=[C:3]1/[C:4]([H:11])([H:12])[O:5][C:6]([H:13])([H:14])[O:7]1)([H:8])([H:9])[H:10]>>[C:1]([O:7][C:6]([O:5][C:4]([C:3]#[N:2])([H:11])[H:12])([H:13])[H:14])([H:8])([H:9])[H:10]"
C        1.81001174      -0.68339465      -0.51065595
N        1.49800284       1.21375259       0.50233798
C        0.34539815       0.97115359       0.74899216
C       -1.08322686       1.34990993       0.55913050
O       -1.63590900       0.49213376      -0.41468705
C       -1.25595732      -0.83164652      -0.14138956
O        0.07916546      -0.84434634       0.28275619
H        1.82544569      -0.10255406      -1.43544722
H        2.80623502      -0.82468359      -0.09032986
H        1.62643420      -1.70221050      -0.87095402
H       -1.17817443       2.37727810       0.21488949
H       -1.58379332       1.22246612       1.52627394
H       -1.39723735      -1.40786640      -1.05723699
H       -1.85639483      -1.22999203       0.68632040
14
Frame=16 idx=006600 GeodesicLength=0.9662886922803895 rxn_smarts="[C:1](/[N:2]=[C:3]1/[C:4]([H:11])([H:12])[O:5][C:6]([H:13])([H:14])[O:7]1)([H:8])([H:9])[H:10]>>[C:1]([O:7][C:6]([O:5][C:4]([C:3]#[N:2])([H:11])[H:12])([H:13])[H:14])([H:8])([H:9])[H:10]"
C        1.80249732      -0.67505577      -0.50243870
N        1.50131701       1.20823215       0.51709343
C        0.34674648       0.98014226       0.76768470
C       -1.07977430       1.35019924       0.55373246
O       -1.61737189       0.49034818      -0.42551617
C       -1.25324417      -0.83521148      -0.13988180
O        0.07843440      -0.86509343       0.29034461
H        1.80772402      -0.09868021      -1.43153855
H        2.81126053      -0.82631022      -0.11366984
H        1.62893829      -1.69212817      -0.87597855
H       -1.17404112       2.37719166       0.20779914
H       -1.59108579       1.22138248       1.51500724
H       -1.40015902      -1.41616533      -1.05181238
H       -1.86124177      -1.21885136       0.68917441
