9
Frame=0 idx=004561 GeodesicLength=0.0 rxn_smarts="[O:1]=[C:2]1[C:3]([H:6])([H:7])[C:4]([H:8])([H:9])[O:5]1>>[O:1]([C:2]1=[C:3]([H:7])[C:4]([H:8])([H:9])[O:5]1)[H:6]"
O        1.82287339       0.02918793      -1.09258435
C        0.84114461      -0.24683112      -0.34329599
C        0.03394991       0.72160485       0.27439673
C       -0.96822371      -0.42616286       0.33217219
O        0.03747776      -1.30750895      -0.33227768
H        0.98283803       1.03214599      -0.92266295
H        0.30464123       1.38952209       1.07654452
H       -1.84520332      -0.37241953      -0.31041904
H       -1.20949789      -0.81953839       1.31812654
9
Frame=1 idx=004561 GeodesicLength=0.05019001244608123 rxn_smarts="[O:1]=[C:2]1[C:3]([H:6])([H:7])[C:4]([H:8])([H:9])[O:5]1>>[O:1]([C:2]1=[C:3]([H:7])[C:4]([H:8])([H:9])[O:5]1)[H:6]"
O        1.81586240       0.02762986      -1.10128694
C        0.84792057      -0.25315073      -0.33651328
C        0.03708569       0.71895519       0.27524609
C       -0.96731815      -0.42648944       0.33127167
O        0.03860669      -1.31122252      -0.32455049
H        0.98007325       1.04554005      -0.92506935
H        0.30429028       1.38641983       1.07909286
H       -1.84138423      -0.37147913      -0.31529318
H       -1.21513650      -0.81620311       1.31710262
9
Frame=2 idx=004561 GeodesicLength=0.10037839264657109 rxn_smarts="[O:1]=[C:2]1[C:3]([H:6])([H:7])[C:4]([H:8])([H:9])[O:5]1>>[O:1]([C:2]1=[C:3]([H:7])[C:4]([H:8])([H:9])[O:5]1)[H:6]"
O        1.80832844       0.02599495      -1.11010709
C        0.85480275      -0.25964837      -0.32962975
C        0.04033604       0.71623465       0.27602715
C       -0.96635549      -0.42682234       0.33033277
O        0.03976782      -1.31503581      -0.31664319
H        0.97739300       1.05933849      -0.92726397
H        0.30394803       1.38327503       1.08156898
H       -1.83741236      -0.37059888      -0.32029818
H       -1.22080822      -0.81273773       1.31601328
9
Frame=3 idx=004561 GeodesicLength=0.15055626770123304 rxn_smarts="[O:1]=[C:2]1[C:3]([H:6])([H:7])[C:4]([H:8])([H:9])[O:5]1>>[O:1]([C:2]1=[C:3]([H:7])[C:4]([H:8])([H:9])[O:5]1)[H:6]"
O        1.80028215       0.02428882      -1.11898317
C        0.86178324      -0.26633723      -0.32265757
C        0.04369726       0.71344209       0.27671441
C       -0.96533513      -0.42716497       0.32935960
O        0.04093396      -1.31894496      -0.30859512
H        0.97482175       1.07355075      -0.92924325
H        0.30360231       1.38009742       1.08394036
H       -1.83330683      -0.36977802      -0.32540005
H       -1.22647871      -0.80915390       1.31486479
9
Frame=4 idx=004561 GeodesicLength=0.20071905700991735 rxn_smarts="[O:1]=[C:2]1[C:3]([H:6])([H:7])[C:4]([H:8])([H:9])[O:5]1>>[O:1]([C:2]1=[C:3]([H:7])[C:4]([H:8])([H:9])[O:5]1)[H:6]"
O        1.79174073       0.02251763      -1.12785135
C        0.86885442      -0.27322988      -0.31560808
C        0.04716692       0.71057657       0.27728488
C       -0.96425725      -0.42752063       0.32835633
O        0.04207944      -1.32294586      -0.30044678
H        0.97237629       1.08818437      -0.93101006
H        0.30324347       1.37689655       1.08617646
H       -1.82908813      -0.36901469      -0.33056621
H       -1.23211589      -0.80546406       1.31366481
9
Frame=5 idx=004561 GeodesicLength=0.25090831039366074 rxn_smarts="[O:1]=[C:2]1[C:3]([H:6])([H:7])[C:4]([H:8])([H:9])[O:5]1>>[O:1]([C:2]1=[C:3]([H:7])[C:4]([H:8])([H:9])[O:5]1)[H:6]"
O        1.78268840       0.02068461      -1.13669138
C        0.87601673      -0.28035021      -0.30848501
C        0.05074572       0.70763350       0.27771073
C       -0.96311975      -0.42789118       0.32732336
O        0.04319044      -1.32704615      -0.29220754
H        0.97008277       1.10327234      -0.93253441
H        0.30285997       1.37367505       1.08824776
H       -1.82476382      -0.36831253      -0.33578195
H       -1.23770045      -0.80166542       1.31241844
9
Frame=6 idx=004561 GeodesicLength=0.3010870946677471 rxn_smarts="[O:1]=[C:2]1[C:3]([H:6])([H:7])[C:4]([H:8])([H:9])[O:5]1>>[O:1]([C:2]1=[C:3]([H:7])[C:4]([H:8])([H:9])[O:5]1)[H:6]"
O        1.77310257       0.01882373      -1.14548387
C        0.88326247      -0.28769946      -0.30129984
C        0.05444953       0.70460230       0.27800524
C       -0.96192131      -0.42827672       0.32625719
O        0.04427772      -1.33125774      -0.28384074
H        0.96791731       1.11881371      -0.93385427
H        0.30248389       1.37040779       1.09017092
H       -1.82031630      -0.36767827      -0.34107377
H       -1.24325587      -0.79773535       1.31111914
9
Frame=7 idx=004561 GeodesicLength=0.35127105071533615 rxn_smarts="[O:1]=[C:2]1[C:3]([H:6])([H:7])[C:4]([H:8])([H:9])[O:5]1>>[O:1]([C:2]1=[C:3]([H:7])[C:4]([H:8])([H:9])[O:5]1)[H:6]"
O        1.76297040       0.01693346      -1.15422988
C        0.89058950      -0.29528275      -0.29408267
C        0.05828355       0.70148338       0.27816150
C       -0.96065974      -0.42867664       0.32515388
O        0.04534940      -1.33559046      -0.27530911
H        0.96586252       1.13483325      -0.93494954
H        0.30213139       1.36707723       1.09194887
H       -1.81572975      -0.36712443      -0.34645755
H       -1.24879727      -0.79365304       1.30976449
9
Frame=8 idx=004561 GeodesicLength=0.4014434955349194 rxn_smarts="[O:1]=[C:2]1[C:3]([H:6])([H:7])[C:4]([H:8])([H:9])[O:5]1>>[O:1]([C:2]1=[C:3]([H:7])[C:4]([H:8])([H:9])[O:5]1)[H:6]"
O        1.75223942       0.01504386      -1.16290938
C        0.89799994      -0.30311178      -0.28684549
C        0.06226280       0.69826772       0.27818115
C       -0.95933290      -0.42909142       0.32401011
O        0.04642336      -1.34005941      -0.26658349
H        0.96392105       1.15134042      -0.93584314
H        0.30182156       1.36366396       1.09359411
H       -1.81099350      -0.36665800      -0.35196064
H       -1.25434174      -0.78939534       1.30835676
9
Frame=9 idx=004561 GeodesicLength=0.45162415454704496 rxn_smarts="[O:1]=[C:2]1[C:3]([H:6])([H:7])[C:4]([H:8])([H:9])[O:5]1>>[O:1]([C:2]1=[C:3]([H:7])[C:4]([H:8])([H:9])[O:5]1)[H:6]"
O        1.74102304       0.01316161      -1.17140277
C        0.90546725      -0.31120634      -0.27959670
C        0.06637607       0.69495681       0.27802957
C       -0.95793676      -0.42952119       0.32283253
O        0.04742841      -1.34464751      -0.25775040
H        0.96205170       1.16831974      -0.93654407
H        0.30154147       1.36019004       1.09504590
H       -1.80613379      -0.36625790      -0.35750438
H       -1.25981739      -0.78499526       1.30689031
9
Frame=10 idx=004561 GeodesicLength=0.5017936061783101 rxn_smarts="[O:1]=[C:2]1[C:3]([H:6])([H:7])[C:4]([H:8])([H:9])[O:5]1>>[O:1]([C:2]1=[C:3]([H:7])[C:4]([H:8])([H:9])[O:5]1)[H:6]"
O        1.72931990       0.01132017      -1.17966655
C        0.91299768      -0.31957369      -0.27235593
C        0.07063481       0.69154417       0.27770643
C       -0.95647839      -0.42996634       0.32162395
O        0.04837563      -1.34936138      -0.24880576
H        0.96024310       1.18576753      -0.93709386
H        0.30131409       1.35664058       1.09631281
H       -1.80116568      -0.36592650      -0.36310333
H       -1.26524114      -0.78044453       1.30538224
9
Frame=11 idx=004561 GeodesicLength=0.5519736886914108 rxn_smarts="[O:1]=[C:2]1[C:3]([H:6])([H:7])[C:4]([H:8])([H:9])[O:5]1>>[O:1]([C:2]1=[C:3]([H:7])[C:4]([H:8])([H:9])[O:5]1)[H:6]"
O        1.71714918       0.00952604      -1.18764912
C        0.92058062      -0.32822217      -0.26514081
C        0.07504596       0.68802724       0.27720891
C       -0.95495324      -0.43042478       0.32038176
O        0.04925657      -1.35419876      -0.23974782
H        0.95845086       1.20368720      -0.93751616
H        0.30115799       1.35300288       1.09739501
H       -1.79608178      -0.36566289      -0.36875613
H       -1.27060616      -0.77573477       1.30382436
9
Frame=12 idx=004561 GeodesicLength=0.6021518417524886 rxn_smarts="[O:1]=[C:2]1[C:3]([H:6])([H:7])[C:4]([H:8])([H:9])[O:5]1>>[O:1]([C:2]1=[C:3]([H:7])[C:4]([H:8])([H:9])[O:5]1)[H:6]"
O        1.70465696       0.00780650      -1.19521142
C        0.92819776      -0.33716905      -0.25795846
C        0.07960300       0.68440622       0.27651473
C       -0.95336587      -0.43089702       0.31911710
O        0.05001018      -1.35914381      -0.23068316
H        0.95661035       1.22203589      -0.93786781
H        0.30107149       1.34929864       1.09824988
H       -1.79092937      -0.36543372      -0.37439184
H       -1.27585450      -0.77090365       1.30223098
9
Frame=13 idx=004561 GeodesicLength=0.6523380684380378 rxn_smarts="[O:1]=[C:2]1[C:3]([H:6])([H:7])[C:4]([H:8])([H:9])[O:5]1>>[O:1]([C:2]1=[C:3]([H:7])[C:4]([H:8])([H:9])[O:5]1)[H:6]"
O        1.69196508       0.00616241      -1.20221040
C        0.93583356      -0.34642240      -0.25082170
C        0.08430011       0.68068146       0.27560541
C       -0.95172077      -0.43138191       0.31783970
O        0.05059609      -1.36416585      -0.22171259
H        0.95466504       1.24078704      -0.93821905
H        0.30105105       1.34553782       1.09884760
H       -1.78575584      -0.36520961      -0.37994715
H       -1.28093432      -0.76598896       1.30061816
9
Frame=14 idx=004561 GeodesicLength=0.7025161622758105 rxn_smarts="[O:1]=[C:2]1[C:3]([H:6])([H:7])[C:4]([H:8])([H:9])[O:5]1>>[O:1]([C:2]1=[C:3]([H:7])[C:4]([H:8])([H:9])[O:5]1)[H:6]"
O        1.67917525       0.00462627      -1.20857761
C        0.94347833      -0.35599404      -0.24373473
C        0.08914455       0.67684879       0.27448765
C       -0.95002045      -0.43187500       0.31655161
O        0.05099326      -1.36926968      -0.21286912
H        0.95251862       1.25990468      -0.93862595
H        0.30112492       1.34171751       1.09918902
H       -1.78057614      -0.36496376      -0.38541053
H       -1.28583834      -0.76099478       1.29898967
9
Frame=15 idx=004561 GeodesicLength=0.7527052011470299 rxn_smarts="[O:1]=[C:2]1[C:3]([H:6])([H:7])[C:4]([H:8])([H:9])[O:5]1>>[O:1]([C:2]1=[C:3]([H:7])[C:4]([H:8])([H:9])[O:5]1)[H:6]"
O        1.66635473       0.00319242      -1.21427234
C        0.95112294      -0.36588469      -0.23670999
C        0.09414219       0.67290592       0.27317224
C       -0.94826598      -0.43237224       0.31525171
O        0.05119722      -1.37444698      -0.20416209
H        0.95009393       1.27938122      -0.93912551
H        0.30131738       1.33782925       1.09928501
H       -1.77539409      -0.36468462      -0.39078085
H       -1.29056832      -0.75592028       1.29734182
9
Frame=16 idx=004561 GeodesicLength=0.8029004986595488 rxn_smarts="[O:1]=[C:2]1[C:3]([H:6])([H:7])[C:4]([H:8])([H:9])[O:5]1>>[O:1]([C:2]1=[C:3]([H:7])[C:4]([H:8])([H:9])[O:5]1)[H:6]"
O        1.65359227       0.00186701      -1.21924497
C        0.95875549      -0.37609709      -0.22975348
C        0.09929872       0.66884905       0.27166811
C       -0.94645857      -0.43286873       0.31394205
O        0.05119380      -1.37969017      -0.19561645
H        0.94730401       1.29919373      -0.93976125
H        0.30164866       1.33386582       1.09913825
H       -1.77021267      -0.36434836      -0.39604863
H       -1.29512170      -0.75077126       1.29567638
