10
Frame=0 idx=009378 GeodesicLength=0.0 rxn_smarts="[O:1]=[C:2]([C:3]([C:4]#[C:5][H:10])([H:8])[H:9])[C:6]#[N:7]>>[O+:1](=[C-:2][C:3]([C:4]#[C:5][H:10])([H:8])[H:9])[C:6]#[N:7]"
O       -2.05498342      -0.03947247       0.33110749
C       -0.82766991       0.33258429       0.09159087
C        0.11180188      -0.75128453      -0.30263476
C        1.50832551      -0.47690522      -0.00008062
C        2.65292795      -0.25659326       0.26011985
C       -2.11567847       1.37822992       0.21697951
N       -2.68145488       2.39551604       0.17810580
H       -0.03212526      -0.82754353      -1.39194164
H       -0.23446745      -1.69877699       0.12698214
H        3.67332404      -0.05575427       0.48977136
10
Frame=1 idx=009378 GeodesicLength=0.0462710697643619 rxn_smarts="[O:1]=[C:2]([C:3]([C:4]#[C:5][H:10])([H:8])[H:9])[C:6]#[N:7]>>[O+:1](=[C-:2][C:3]([C:4]#[C:5][H:10])([H:8])[H:9])[C:6]#[N:7]"
O       -2.05305342      -0.05096427       0.35573239
C       -0.82538481       0.32434424       0.13835049
C        0.11051323      -0.74611483      -0.30045366
C        1.50828389      -0.47084533      -0.00397737
C        2.65511136      -0.25979221       0.25446555
C       -2.11946860       1.37764691       0.20507210
N       -2.68206356       2.39432658       0.14189763
H       -0.04168215      -0.79578572      -1.38996937
H       -0.22821691      -1.70483329       0.10916381
H        3.67596098      -0.06798208       0.48971841
10
Frame=2 idx=009378 GeodesicLength=0.09260151367078379 rxn_smarts="[O:1]=[C:2]([C:3]([C:4]#[C:5][H:10])([H:8])[H:9])[C:6]#[N:7]>>[O+:1](=[C-:2][C:3]([C:4]#[C:5][H:10])([H:8])[H:9])[C:6]#[N:7]"
O       -2.05249838      -0.06268912       0.37547502
C       -0.82453847       0.31459562       0.17982930
C        0.10868667      -0.74207482      -0.29831979
C        1.50713503      -0.46437779      -0.00674720
C        2.65558482      -0.26062815       0.25071621
C       -2.12098641       1.37705371       0.19313700
N       -2.67784284       2.39444907       0.11192393
H       -0.05033044      -0.76860843      -1.38747260
H       -0.22267899      -1.71053832       0.09334173
H        3.67746902      -0.07718176       0.48811642
10
Frame=3 idx=009378 GeodesicLength=0.13874492857485088 rxn_smarts="[O:1]=[C:2]([C:3]([C:4]#[C:5][H:10])([H:8])[H:9])[C:6]#[N:7]>>[O+:1](=[C-:2][C:3]([C:4]#[C:5][H:10])([H:8])[H:9])[C:6]#[N:7]"
O       -2.05204941      -0.07413150       0.39312617
C       -0.82402609       0.30355930       0.21680386
C        0.10617367      -0.73978771      -0.29714829
C        1.50533865      -0.45882569      -0.01160919
C        2.65539086      -0.26116960       0.24383683
C       -2.11941915       1.37697998       0.18248756
N       -2.66866197       2.39613304       0.08664506
H       -0.06005739      -0.74654909      -1.38533386
H       -0.21777842      -1.71649129       0.07927498
H        3.67508926      -0.07971743       0.49191687
10
Frame=4 idx=009378 GeodesicLength=0.18495025608379956 rxn_smarts="[O:1]=[C:2]([C:3]([C:4]#[C:5][H:10])([H:8])[H:9])[C:6]#[N:7]>>[O+:1](=[C-:2][C:3]([C:4]#[C:5][H:10])([H:8])[H:9])[C:6]#[N:7]"
O       -2.05279883      -0.08606026       0.40725900
C       -0.82486798       0.29170986       0.25048092
C        0.10352602      -0.73777313      -0.29563531
C        1.50277088      -0.45216814      -0.01448321
C        2.65387160      -0.25908303       0.24013084
C       -2.11707737       1.37691131       0.17179308
N       -2.65766686       2.39850208       0.06480219
H       -0.06842939      -0.72679919      -1.38271002
H       -0.21296719      -1.72202547       0.06650218
H        3.67363911      -0.08321404       0.49186033
10
Frame=5 idx=009378 GeodesicLength=0.23120151258434793 rxn_smarts="[O:1]=[C:2]([C:3]([C:4]#[C:5][H:10])([H:8])[H:9])[C:6]#[N:7]>>[O+:1](=[C-:2][C:3]([C:4]#[C:5][H:10])([H:8])[H:9])[C:6]#[N:7]"
O       -2.05402022      -0.09819349       0.41963563
C       -0.82639898       0.27910842       0.28156199
C        0.10061719      -0.73632880      -0.29429116
C        1.49966192      -0.44524678      -0.01713228
C        2.65159201      -0.25562640       0.23671965
C       -2.11340735       1.37713319       0.16202236
N       -2.64461577       2.40145777       0.04505619
H       -0.07661856      -0.70932759      -1.38005387
H       -0.20830310      -1.72747317       0.05463206
H        3.67149285      -0.08550315       0.49184945
10
Frame=6 idx=009378 GeodesicLength=0.27771166131598785 rxn_smarts="[O:1]=[C:2]([C:3]([C:4]#[C:5][H:10])([H:8])[H:9])[C:6]#[N:7]>>[O+:1](=[C-:2][C:3]([C:4]#[C:5][H:10])([H:8])[H:9])[C:6]#[N:7]"
O       -2.05545236      -0.11047187       0.43111974
C       -0.82829619       0.26576580       0.31068447
C        0.09739813      -0.73553640      -0.29327260
C        1.49612951      -0.43854223      -0.02003119
C        2.64882250      -0.25161659       0.23283266
C       -2.10829547       1.37781091       0.15368174
N       -2.62948566       2.40489976       0.02638665
H       -0.08503237      -0.69370401      -1.37753001
H       -0.20391168      -1.73306429       0.04320578
H        3.66812358      -0.08554107       0.49292275
10
Frame=7 idx=009378 GeodesicLength=0.32401868654554244 rxn_smarts="[O:1]=[C:2]([C:3]([C:4]#[C:5][H:10])([H:8])[H:9])[C:6]#[N:7]>>[O+:1](=[C-:2][C:3]([C:4]#[C:5][H:10])([H:8])[H:9])[C:6]#[N:7]"
O       -2.05708787      -0.12304892       0.44219767
C       -0.83062296       0.25175147       0.33875733
C        0.09392068      -0.73482922      -0.29242035
C        1.49214875      -0.43162251      -0.02268964
C        2.64549777      -0.24700717       0.22931345
C       -2.10200933       1.37879977       0.14803025
N       -2.61297400       2.40790837       0.00645669
H       -0.09351261      -0.67847004      -1.37499799
H       -0.19970471      -1.73850722       0.03159404
H        3.66434427      -0.08497452       0.49375855
10
Frame=8 idx=009378 GeodesicLength=0.37036459615531797 rxn_smarts="[O:1]=[C:2]([C:3]([C:4]#[C:5][H:10])([H:8])[H:9])[C:6]#[N:7]>>[O+:1](=[C-:2][C:3]([C:4]#[C:5][H:10])([H:8])[H:9])[C:6]#[N:7]"
O       -2.05901457      -0.13581395       0.45193715
C       -0.83348975       0.23745867       0.36458644
C        0.09038820      -0.73448365      -0.29157516
C        1.48777784      -0.42425012      -0.02497553
C        2.64154093      -0.24084152       0.22631456
C       -2.09519040       1.37990948       0.14158708
N       -2.59544430       2.41161044      -0.01067248
H       -0.10158835      -0.66529631      -1.37242471
H       -0.19535515      -1.74374388       0.02108200
H        3.66037554      -0.08454916       0.49414065
10
Frame=9 idx=009378 GeodesicLength=0.41680550793683635 rxn_smarts="[O:1]=[C:2]([C:3]([C:4]#[C:5][H:10])([H:8])[H:9])[C:6]#[N:7]>>[O+:1](=[C-:2][C:3]([C:4]#[C:5][H:10])([H:8])[H:9])[C:6]#[N:7]"
O       -2.06079998      -0.14862700       0.46153187
C       -0.83643475       0.22293017       0.38871798
C        0.08668560      -0.73456202      -0.29110842
C        1.48320224      -0.41674810      -0.02812443
C        2.63739068      -0.23395817       0.22210627
C       -2.08748722       1.38133666       0.13570756
N       -2.57679440       2.41564547      -0.02656975
H       -0.11014317      -0.65387559      -1.37011840
H       -0.19093878      -1.74895908       0.01126689
H        3.65531979      -0.08318232       0.49659043
10
Frame=10 idx=009378 GeodesicLength=0.4632848348485301 rxn_smarts="[O:1]=[C:2]([C:3]([C:4]#[C:5][H:10])([H:8])[H:9])[C:6]#[N:7]>>[O+:1](=[C-:2][C:3]([C:4]#[C:5][H:10])([H:8])[H:9])[C:6]#[N:7]"
O       -2.06292076      -0.16179568       0.47026975
C       -0.83993158       0.20817951       0.41158696
C        0.08297315      -0.73458226      -0.29050749
C        1.47829006      -0.40857155      -0.03045131
C        2.63268088      -0.22562730       0.21916462
C       -2.07950896       1.38286216       0.13012557
N       -2.55774014       2.41967424      -0.04182134
H       -0.11823333      -0.64315094      -1.36768857
H       -0.18633456      -1.75389124       0.00188794
H        3.65072524      -0.08309694       0.49743387
10
Frame=11 idx=009378 GeodesicLength=0.5101506881564717 rxn_smarts="[O:1]=[C:2]([C:3]([C:4]#[C:5][H:10])([H:8])[H:9])[C:6]#[N:7]>>[O+:1](=[C-:2][C:3]([C:4]#[C:5][H:10])([H:8])[H:9])[C:6]#[N:7]"
O       -2.06474721      -0.17490566       0.47926777
C       -0.84314020       0.19291399       0.43328770
C        0.07888959      -0.73550056      -0.29047147
C        1.47313000      -0.40151163      -0.03393003
C        2.62783904      -0.21829659       0.21450728
C       -2.07003141       1.38497859       0.12557953
N       -2.53652767       2.42432335      -0.05627167
H       -0.12712735      -0.63401358      -1.36568658
H       -0.18226516      -1.75933824      -0.00742618
H        3.64398037      -0.07864967       0.50114362
10
Frame=12 idx=009378 GeodesicLength=0.5565817589059716 rxn_smarts="[O:1]=[C:2]([C:3]([C:4]#[C:5][H:10])([H:8])[H:9])[C:6]#[N:7]>>[O+:1](=[C-:2][C:3]([C:4]#[C:5][H:10])([H:8])[H:9])[C:6]#[N:7]"
O       -2.06654245      -0.18789582       0.48810066
C       -0.84624526       0.17694440       0.45417523
C        0.07435347      -0.73728923      -0.29085891
C        1.46759385      -0.39592530      -0.03776915
C        2.62267567      -0.21277561       0.20948599
C       -2.05884768       1.38766798       0.12288100
N       -2.51281349       2.42929791      -0.07079711
H       -0.13650505      -0.62578993      -1.36399337
H       -0.17907907      -1.76536660      -0.01716765
H        3.63541001      -0.06886779       0.50594331
10
Frame=13 idx=009378 GeodesicLength=0.603254235942264 rxn_smarts="[O:1]=[C:2]([C:3]([C:4]#[C:5][H:10])([H:8])[H:9])[C:6]#[N:7]>>[O+:1](=[C-:2][C:3]([C:4]#[C:5][H:10])([H:8])[H:9])[C:6]#[N:7]"
O       -2.06817961      -0.20103081       0.49691405
C       -0.84940360       0.16113064       0.47368559
C        0.06983350      -0.73919064      -0.29139313
C        1.46191010      -0.38990730      -0.04202118
C        2.61726567      -0.20600830       0.20383889
C       -2.04741021       1.39042202       0.11962756
N       -2.48877501       2.43447774      -0.08382579
H       -0.14594166      -0.61888995      -1.36241766
H       -0.17560399      -1.77115113      -0.02614361
H        3.62630482      -0.05985227       0.51173527
10
Frame=14 idx=009378 GeodesicLength=0.6500065522351688 rxn_smarts="[O:1]=[C:2]([C:3]([C:4]#[C:5][H:10])([H:8])[H:9])[C:6]#[N:7]>>[O+:1](=[C-:2][C:3]([C:4]#[C:5][H:10])([H:8])[H:9])[C:6]#[N:7]"
O       -2.06996748      -0.21428480       0.50525333
C       -0.85271641       0.14493129       0.49232542
C        0.06507332      -0.74156768      -0.29204545
C        1.45592891      -0.38460443      -0.04587186
C        2.61149934      -0.20014300       0.19907352
C       -2.03501250       1.39359816       0.11709637
N       -2.46337834       2.43993917      -0.09642053
H       -0.15531097      -0.61262499      -1.36098274
H       -0.17266830      -1.77723412      -0.03522916
H        3.61655244      -0.04800960       0.51680110
10
Frame=15 idx=009378 GeodesicLength=0.6966858787323015 rxn_smarts="[O:1]=[C:2]([C:3]([C:4]#[C:5][H:10])([H:8])[H:9])[C:6]#[N:7]>>[O+:1](=[C-:2][C:3]([C:4]#[C:5][H:10])([H:8])[H:9])[C:6]#[N:7]"
O       -2.07188932      -0.22789989       0.51312891
C       -0.85651410       0.12921016       0.50975090
C        0.06054871      -0.74341356      -0.29244134
C        1.44979234      -0.37785240      -0.04905864
C        2.60534596      -0.19181526       0.19518803
C       -2.02319073       1.39656575       0.11367868
N       -2.43909870       2.44510672      -0.10798219
H       -0.16406765      -0.60693818      -1.35938128
H       -0.16901399      -1.78255411      -0.04338204
H        3.60808748      -0.04040923       0.52049896
10
Frame=16 idx=009378 GeodesicLength=0.7434091503552966 rxn_smarts="[O:1]=[C:2]([C:3]([C:4]#[C:5][H:10])([H:8])[H:9])[C:6]#[N:7]>>[O+:1](=[C-:2][C:3]([C:4]#[C:5][H:10])([H:8])[H:9])[C:6]#[N:7]"
O       -2.07389997      -0.24182673       0.52070837
C       -0.86061199       0.11375016       0.52624403
C        0.05610616      -0.74501898      -0.29272825
C        1.44350088      -0.37038513      -0.05172936
C        2.59890679      -0.18225494       0.19209575
C       -2.01148186       1.39957391       0.11006398
N       -2.41533381       2.45011293      -0.11903519
H       -0.17248628      -0.60166773      -1.35776603
H       -0.16504931      -1.78748750      -0.05104436
H        3.60034938      -0.03479600       0.52319105
