12
Frame=0 idx=007494 GeodesicLength=0.0 rxn_smarts="[O:1]=[C:2]([C:3]#[C:4][H:8])[C@@:5]1([H:9])[C:6]([H:10])([H:11])[N:7]1[H:12]>>[O-:1][C:2]([C:3]#[C:4][H:8])=[C:5]([N:7]([C+:6]([H:10])[H:11])[H:12])[H:9]"
O        1.57451805       1.89736935       0.49215717
C        0.81159934       0.95675664       0.37593387
C        1.36698388      -0.41378446       0.33564670
C        1.89324736      -1.49022462       0.36452763
C       -0.62054260       1.10311157       0.38632392
C       -1.10184211      -0.27258981      -1.02603843
N       -1.48214604       0.02112140       0.21894189
H        2.37724143      -2.43855625       0.38634534
H       -1.01740983       2.07899516       0.64659786
H       -0.74645593      -1.26015200      -1.30852254
H       -1.29117001       0.45847617      -1.79703587
H       -1.76402354      -0.64052314       0.92512250
12
Frame=1 idx=007494 GeodesicLength=0.05874635405753729 rxn_smarts="[O:1]=[C:2]([C:3]#[C:4][H:8])[C@@:5]1([H:9])[C:6]([H:10])([H:11])[N:7]1[H:12]>>[O-:1][C:2]([C:3]#[C:4][H:8])=[C:5]([N:7]([C+:6]([H:10])[H:11])[H:12])[H:9]"
O        1.57009580       1.88211687       0.63736302
C        0.81481020       0.95539024       0.40847089
C        1.38036320      -0.40768527       0.32749166
C        1.89197820      -1.49141797       0.31125801
C       -0.61486080       1.11445165       0.35144658
C       -1.10463560      -0.29082440      -1.01417218
N       -1.50024191       0.04846012       0.21567460
H        2.41649853      -2.41819030       0.33000219
H       -1.01123381       2.10142596       0.56775991
H       -0.80515636      -1.30603831      -1.25972605
H       -1.27123421       0.40799462      -1.81949254
H       -1.76638325      -0.59568321       0.94392391
12
Frame=2 idx=007494 GeodesicLength=0.11677323472780593 rxn_smarts="[O:1]=[C:2]([C:3]#[C:4][H:8])[C@@:5]1([H:9])[C:6]([H:10])([H:11])[N:7]1[H:12]>>[O-:1][C:2]([C:3]#[C:4][H:8])=[C:5]([N:7]([C+:6]([H:10])[H:11])[H:12])[H:9]"
O        1.55452635       1.85710422       0.78788832
C        0.81614914       0.95085732       0.44674180
C        1.39521840      -0.40143921       0.31907929
C        1.89803495      -1.48771805       0.25737079
C       -0.60696554       1.12467573       0.31514024
C       -1.10756786      -0.31146887      -0.99945808
N       -1.51986657       0.07958145       0.21074181
H        2.45789387      -2.39395719       0.26223030
H       -0.99724310       2.12382747       0.48188782
H       -0.86577474      -1.35073814      -1.20301562
H       -1.24612180       0.35072975      -1.84022759
H       -1.77828310      -0.54145447       0.96162093
12
Frame=3 idx=007494 GeodesicLength=0.17444238145702284 rxn_smarts="[O:1]=[C:2]([C:3]#[C:4][H:8])[C@@:5]1([H:9])[C:6]([H:10])([H:11])[N:7]1[H:12]>>[O-:1][C:2]([C:3]#[C:4][H:8])=[C:5]([N:7]([C+:6]([H:10])[H:11])[H:12])[H:9]"
O        1.52665127       1.82276969       0.94006427
C        0.81489685       0.94276729       0.48977959
C        1.41284452      -0.39357656       0.30854408
C        1.91216961      -1.47829232       0.20406846
C       -0.59669322       1.13293501       0.27834635
C       -1.11108144      -0.33393661      -0.98185916
N       -1.54082871       0.11428886       0.20360265
H        2.49903959      -2.36727961       0.18547731
H       -0.97440542       2.14446304       0.39199019
H       -0.92732875      -1.39267101      -1.13899193
H       -1.21620296       0.28718577      -1.85806949
H       -1.79906134      -0.47865353       0.97704769
12
Frame=4 idx=007494 GeodesicLength=0.23255815075372113 rxn_smarts="[O:1]=[C:2]([C:3]#[C:4][H:8])[C@@:5]1([H:9])[C:6]([H:10])([H:11])[N:7]1[H:12]>>[O-:1][C:2]([C:3]#[C:4][H:8])=[C:5]([N:7]([C+:6]([H:10])[H:11])[H:12])[H:9]"
O        1.48748521       1.77745253       1.08936887
C        0.81056804       0.92985055       0.53479056
C        1.43318755      -0.38387925       0.29287300
C        1.93477155      -1.46303205       0.14833277
C       -0.58429667       1.13828671       0.24256617
C       -1.11681756      -0.35679796      -0.96187162
N       -1.56344469       0.15247400       0.19378793
H        2.54276284      -2.33722951       0.10984451
H       -0.94201688       2.16167994       0.30324126
H       -0.99150238      -1.42984419      -1.06978505
H       -1.18250719       0.21959401      -1.87183198
H       -1.82818981      -0.40855478       0.98868359
12
Frame=5 idx=007494 GeodesicLength=0.291291457089778 rxn_smarts="[O:1]=[C:2]([C:3]#[C:4][H:8])[C@@:5]1([H:9])[C:6]([H:10])([H:11])[N:7]1[H:12]>>[O-:1][C:2]([C:3]#[C:4][H:8])=[C:5]([N:7]([C+:6]([H:10])[H:11])[H:12])[H:9]"
O        1.43791203       1.72328121       1.23127989
C        0.80308954       0.91240692       0.58036901
C        1.45665345      -0.37115722       0.27490159
C        1.96398594      -1.44195939       0.09257341
C       -0.57030788       1.14045200       0.20910850
C       -1.12407166      -0.37964462      -0.93946740
N       -1.58712172       0.19345229       0.18082037
H        2.58533637      -2.30563432       0.03314107
H       -0.90128563       2.17458155       0.21802842
H       -1.05440027      -1.46138070      -0.99570263
H       -1.14566501       0.14796920      -1.88058274
H       -1.86412515      -0.33236693       0.99553052
12
Frame=6 idx=007494 GeodesicLength=0.35182173358034097 rxn_smarts="[O:1]=[C:2]([C:3]#[C:4][H:8])[C@@:5]1([H:9])[C:6]([H:10])([H:11])[N:7]1[H:12]>>[O-:1][C:2]([C:3]#[C:4][H:8])=[C:5]([N:7]([C+:6]([H:10])[H:11])[H:12])[H:9]"
O        1.37998580       1.65950175       1.36394852
C        0.79224952       0.88936101       0.62554191
C        1.48101215      -0.35750892       0.25808731
C        1.99934332      -1.41572151       0.03685649
C       -0.55523355       1.13945217       0.17846064
C       -1.13362029      -0.40223636      -0.91441469
N       -1.61233968       0.23800185       0.16373350
H        2.63147609      -2.26965354      -0.04605584
H       -0.85204091       2.18309537       0.13727850
H       -1.11812994      -1.48726703      -0.91626675
H       -1.10497565       0.07169143      -1.88345782
H       -1.90772687      -0.24871623       0.99628823
12
Frame=7 idx=007494 GeodesicLength=0.4127736925789699 rxn_smarts="[O:1]=[C:2]([C:3]#[C:4][H:8])[C@@:5]1([H:9])[C:6]([H:10])([H:11])[N:7]1[H:12]>>[O-:1][C:2]([C:3]#[C:4][H:8])=[C:5]([N:7]([C+:6]([H:10])[H:11])[H:12])[H:9]"
O        1.31711280       1.59030360       1.48233438
C        0.77959904       0.86304233       0.66670635
C        1.50690608      -0.34166423       0.24220260
C        2.03842502      -1.38494041      -0.01594248
C       -0.54005609       1.13533105       0.15187315
C       -1.14464562      -0.42310816      -0.88837029
N       -1.63686267       0.28314399       0.14319225
H        2.67493473      -2.23304225      -0.12211192
H       -0.79874548       2.18625989       0.06575999
H       -1.17993513      -1.50611539      -0.83631564
H       -1.06408202      -0.00577420      -1.88018869
H       -1.95265068      -0.16343623       0.99086030
12
Frame=8 idx=007494 GeodesicLength=0.47444188022109435 rxn_smarts="[O:1]=[C:2]([C:3]#[C:4][H:8])[C@@:5]1([H:9])[C:6]([H:10])([H:11])[N:7]1[H:12]>>[O-:1][C:2]([C:3]#[C:4][H:8])=[C:5]([N:7]([C+:6]([H:10])[H:11])[H:12])[H:9]"
O        1.25184746       1.51566079       1.58680670
C        0.76574897       0.83336094       0.70345661
C        1.53265388      -0.32568333       0.22843730
C        2.08020374      -1.35122695      -0.06507094
C       -0.52507720       1.12852853       0.12884149
C       -1.15782466      -0.44194134      -0.86181668
N       -1.66030026       0.32878919       0.11928882
H        2.72023804      -2.19344917      -0.19430538
H       -0.74235765       2.18467214       0.00295970
H       -1.24251588      -1.51805076      -0.75709015
H       -1.02495587      -0.08386665      -1.87094895
H       -1.99766058      -0.07679339       0.97944149
12
Frame=9 idx=007494 GeodesicLength=0.5370020062283813 rxn_smarts="[O:1]=[C:2]([C:3]#[C:4][H:8])[C@@:5]1([H:9])[C:6]([H:10])([H:11])[N:7]1[H:12]>>[O-:1][C:2]([C:3]#[C:4][H:8])=[C:5]([N:7]([C+:6]([H:10])[H:11])[H:12])[H:9]"
O        1.18360347       1.43608121       1.68029946
C        0.75106949       0.80119945       0.73643916
C        1.55824439      -0.30980348       0.21856951
C        2.12418883      -1.31453573      -0.11004987
C       -0.51016938       1.11959914       0.10829001
C       -1.17260490      -0.45939315      -0.83442493
N       -1.68180990       0.37483003       0.09180741
H        2.76586300      -2.15076068      -0.26691813
H       -0.68356911       2.17885398      -0.05312317
H       -1.30583758      -1.52385401      -0.67758696
H       -0.98734231      -0.16415831      -1.85548303
H       -2.04163600       0.01194156       0.96218053
12
Frame=10 idx=007494 GeodesicLength=0.600793472234585 rxn_smarts="[O:1]=[C:2]([C:3]#[C:4][H:8])[C@@:5]1([H:9])[C:6]([H:10])([H:11])[N:7]1[H:12]>>[O-:1][C:2]([C:3]#[C:4][H:8])=[C:5]([N:7]([C+:6]([H:10])[H:11])[H:12])[H:9]"
O        1.11214470       1.35125018       1.76437552
C        0.73572508       0.76669192       0.76617538
C        1.58347670      -0.29469504       0.21317613
C        2.17039409      -1.27486339      -0.15092474
C       -0.49515958       1.10875686       0.08946849
C       -1.18912202      -0.47572934      -0.80598667
N       -1.70081398       0.42122535       0.06058098
H        2.81218721      -2.10389250      -0.34155512
H       -0.62258999       2.16903909      -0.10367309
H       -1.37090264      -1.52363985      -0.59735769
H       -0.95152013      -0.24755995      -1.83327557
H       -2.08381944       0.10341664       0.93899638
12
Frame=11 idx=007494 GeodesicLength=0.6659566369466637 rxn_smarts="[O:1]=[C:2]([C:3]#[C:4][H:8])[C@@:5]1([H:9])[C:6]([H:10])([H:11])[N:7]1[H:12]>>[O-:1][C:2]([C:3]#[C:4][H:8])=[C:5]([N:7]([C+:6]([H:10])[H:11])[H:12])[H:9]"
O        1.03776816       1.26101236       1.83946161
C        0.71990820       0.72976133       0.79293902
C        1.60808013      -0.28129837       0.21243770
C        2.21895281      -1.23246696      -0.18732727
C       -0.47986937       1.09597453       0.07186717
C       -1.20778091      -0.49087973      -0.77658018
N       -1.71673985       0.46768089       0.02574127
H        2.86034450      -2.05145297      -0.41817268
H       -0.55959590       2.15520070      -0.14947568
H       -1.43891920      -1.51706508      -0.51684381
H       -0.91907769      -0.33403185      -1.80403153
H       -2.12307088       0.19756514       0.90998438
12
Frame=12 idx=007494 GeodesicLength=0.732631077865107 rxn_smarts="[O:1]=[C:2]([C:3]#[C:4][H:8])[C@@:5]1([H:9])[C:6]([H:10])([H:11])[N:7]1[H:12]>>[O-:1][C:2]([C:3]#[C:4][H:8])=[C:5]([N:7]([C+:6]([H:10])[H:11])[H:12])[H:9]"
O        0.96051735       1.16516240       1.90590272
C        0.70376339       0.69026687       0.81704509
C        1.63190045      -0.27057671       0.21664666
C        2.26989168      -1.18774830      -0.21846522
C       -0.46402075       1.08106312       0.05500072
C       -1.22895458      -0.50485021      -0.74613108
N       -1.72902162       0.51390589      -0.01256534
H        2.91145928      -1.99145484      -0.49730847
H       -0.49441836       2.13706744      -0.19156627
H       -1.51112467      -1.50367139      -0.43638057
H       -0.89168465      -0.42360415      -1.76741057
H       -2.15830753       0.29443988       0.87523233
12
Frame=13 idx=007494 GeodesicLength=0.8002455945340082 rxn_smarts="[O:1]=[C:2]([C:3]#[C:4][H:8])[C@@:5]1([H:9])[C:6]([H:10])([H:11])[N:7]1[H:12]>>[O-:1][C:2]([C:3]#[C:4][H:8])=[C:5]([N:7]([C+:6]([H:10])[H:11])[H:12])[H:9]"
O        0.88144243       1.06446013       1.96297133
C        0.68785536       0.64873776       0.83812357
C        1.65500592      -0.26295747       0.22520277
C        2.32192370      -1.14208817      -0.24355948
C       -0.44755606       1.06391554       0.03854847
C       -1.25276860      -0.51729676      -0.71505422
N       -1.73707918       0.55892968      -0.05335891
H        2.96606089      -1.92272196      -0.57683540
H       -0.42801324       2.11453172      -0.23023415
H       -1.58761247      -1.48303581      -0.35767841
H       -0.87178685      -0.51477555      -1.72399780
H       -2.18747191       0.39230089       0.83587223
12
Frame=14 idx=007494 GeodesicLength=0.8698388727728286 rxn_smarts="[O:1]=[C:2]([C:3]#[C:4][H:8])[C@@:5]1([H:9])[C:6]([H:10])([H:11])[N:7]1[H:12]>>[O-:1][C:2]([C:3]#[C:4][H:8])=[C:5]([N:7]([C+:6]([H:10])[H:11])[H:12])[H:9]"
O        0.79972628       0.95922542       2.01128659
C        0.67244460       0.60611538       0.85664867
C        1.67875852      -0.25616235       0.23769137
C        2.38116414      -1.08860350      -0.26316592
C       -0.43052571       1.04450465       0.02242606
C       -1.27792800      -0.52877979      -0.68325394
N       -1.74041846       0.60135602      -0.09652005
H        3.01199305      -1.85142657      -0.65739299
H       -0.36179685       2.08777167      -0.26543782
H       -1.66640083      -1.45570881      -0.28116034
H       -0.85726431      -0.60781038      -1.67303539
H       -2.20975242       0.48951825       0.79191375
12
Frame=15 idx=007494 GeodesicLength=0.9398382165592527 rxn_smarts="[O:1]=[C:2]([C:3]#[C:4][H:8])[C@@:5]1([H:9])[C:6]([H:10])([H:11])[N:7]1[H:12]>>[O-:1][C:2]([C:3]#[C:4][H:8])=[C:5]([N:7]([C+:6]([H:10])[H:11])[H:12])[H:9]"
O        0.71886412       0.84756578       2.04820105
C        0.65805428       0.56066120       0.87068397
C        1.70107283      -0.25434351       0.25062399
C        2.43367761      -1.04140598      -0.27942916
C       -0.41312437       1.02264441       0.00600200
C       -1.30785817      -0.53757345      -0.65090193
N       -1.74000285       0.64247102      -0.14010156
H        3.07442828      -1.76388876      -0.72965808
H       -0.29511843       2.05659872      -0.29830653
H       -1.75081434      -1.41972010      -0.20737566
H       -0.85496510      -0.70013020      -1.61583060
H       -2.22421386       0.58712086       0.74609251
12
Frame=16 idx=007494 GeodesicLength=1.012377653770039 rxn_smarts="[O:1]=[C:2]([C:3]#[C:4][H:8])[C@@:5]1([H:9])[C:6]([H:10])([H:11])[N:7]1[H:12]>>[O-:1][C:2]([C:3]#[C:4][H:8])=[C:5]([N:7]([C+:6]([H:10])[H:11])[H:12])[H:9]"
O        0.63686064       0.73210101       2.07560323
C        0.64473172       0.51455791       0.88242561
C        1.72482291      -0.25243901       0.26675464
C        2.49475770      -0.98500182      -0.28791781
C       -0.39503765       0.99815760      -0.01061696
C       -1.33846674      -0.54530999      -0.61817888
N       -1.73478644       0.67949684      -0.18472802
H        3.12315587      -1.67500627      -0.80181310
H       -0.22974316       2.02118826      -0.32891585
H       -1.83583632      -1.37724580      -0.13759553
H       -0.86016305      -0.79199438      -1.55239828
H       -2.23029548       0.68149566       0.69738094
