12
Frame=0 idx=001121 GeodesicLength=0.0 rxn_smarts="[O:1]=[C:2]([C:3]([C@@:4]1([H:10])[C:5]([H:11])([H:12])[O:6]1)([H:8])[H:9])[H:7]>>[O:1]([C:2](=[C:3]([H:8])[H:9])[H:7])[C:5]([C:4](=[O:6])[H:10])([H:11])[H:12]"
O        0.71257147       1.23782844       0.80885752
C        1.36766895       0.41373529       0.16499768
C        0.65714882      -0.58285799      -0.65836696
C       -0.74416127      -0.68598396       0.07029733
C       -0.98990586       0.71999286       0.44896001
O       -1.85907369      -0.89166894      -0.60962540
H        2.45706311       0.44509739       0.28483831
H        1.22911226      -1.50059584      -0.79183287
H        0.45483899      -0.15346724      -1.64736261
H       -0.58404908      -1.33392753       0.96032052
H       -1.52484538       0.95700991       1.36215412
H       -1.17636828       1.37483757      -0.39323768
12
Frame=1 idx=001121 GeodesicLength=0.08439102001208991 rxn_smarts="[O:1]=[C:2]([C:3]([C@@:4]1([H:10])[C:5]([H:11])([H:12])[O:6]1)([H:8])[H:9])[H:7]>>[O:1]([C:2](=[C:3]([H:8])[H:9])[H:7])[C:5]([C:4](=[O:6])[H:10])([H:11])[H:12]"
O        0.71701087       1.22400574       0.82286732
C        1.37629410       0.41038045       0.16476538
C        0.67089811      -0.58187175      -0.66179130
C       -0.75089485      -0.69120379       0.07707331
C       -0.99997267       0.71751656       0.44393894
O       -1.87327577      -0.87867853      -0.59216398
H        2.46627340       0.44893882       0.27471579
H        1.24603707      -1.49642689      -0.80216717
H        0.45401971      -0.15110668      -1.64651507
H       -0.58901413      -1.33466933       0.96876386
H       -1.54389708       0.95901418       1.35087064
H       -1.17347876       1.37410122      -0.40035773
12
Frame=2 idx=001121 GeodesicLength=0.16875264999013198 rxn_smarts="[O:1]=[C:2]([C:3]([C@@:4]1([H:10])[C:5]([H:11])([H:12])[O:6]1)([H:8])[H:9])[H:7]>>[O:1]([C:2](=[C:3]([H:8])[H:9])[H:7])[C:5]([C:4](=[O:6])[H:10])([H:11])[H:12]"
O        0.72150445       1.21001314       0.83655471
C        1.38497915       0.40691576       0.16460612
C        0.68482413      -0.58077481      -0.66542434
C       -0.75802262      -0.69635695       0.08388074
C       -1.01005775       0.71508226       0.43888533
O       -1.88743906      -0.86601229      -0.57461317
H        2.47536191       0.45273678       0.26507438
H        1.26313992      -1.49205144      -0.81279325
H        0.45318414      -0.14870293      -1.64561046
H       -0.59417501      -1.33524626       0.97725071
H       -1.56247142       0.96125410       1.33964961
H       -1.17082785       1.37314265      -0.40746038
12
Frame=3 idx=001121 GeodesicLength=0.25309373071260227 rxn_smarts="[O:1]=[C:2]([C:3]([C@@:4]1([H:10])[C:5]([H:11])([H:12])[O:6]1)([H:8])[H:9])[H:7]>>[O:1]([C:2](=[C:3]([H:8])[H:9])[H:7])[C:5]([C:4](=[O:6])[H:10])([H:11])[H:12]"
O        0.72606507       1.19581639       0.84999007
C        1.39373823       0.40330669       0.16456715
C        0.69893647      -0.57957996      -0.66925747
C       -0.76555906      -0.70145812       0.09074021
C       -1.02016455       0.71269082       0.43379954
O       -1.90158948      -0.85365275      -0.55699330
H        2.48436384       0.45657991       0.25580364
H        1.28043081      -1.48748173      -0.82372276
H        0.45233902      -0.14625572      -1.64463043
H       -0.59955674      -1.33568441       0.98580176
H       -1.58061457       0.96375431       1.32847276
H       -1.16838904       1.37196457      -0.41457117
12
Frame=4 idx=001121 GeodesicLength=0.3374090977811991 rxn_smarts="[O:1]=[C:2]([C:3]([C@@:4]1([H:10])[C:5]([H:11])([H:12])[O:6]1)([H:8])[H:9])[H:7]>>[O:1]([C:2](=[C:3]([H:8])[H:9])[H:7])[C:5]([C:4](=[O:6])[H:10])([H:11])[H:12]"
O        0.73068815       1.18143909       0.86314222
C        1.40257486       0.39956831       0.16461899
C        0.71324712      -0.57826896      -0.67331144
C       -0.77350071      -0.70650547       0.09767051
C       -1.03030251       0.71034051       0.42867910
O       -1.91573739      -0.84159458      -0.53929345
H        2.49328210       0.46039740       0.24697978
H        1.29792263      -1.48269335      -0.83497575
H        0.45147151      -0.14376951      -1.64358257
H       -0.60513491      -1.33597731       0.99442717
H       -1.59832158       0.96651667       1.31735594
H       -1.16618928       1.37054720      -0.42171051
12
Frame=5 idx=001121 GeodesicLength=0.421700818663188 rxn_smarts="[O:1]=[C:2]([C:3]([C@@:4]1([H:10])[C:5]([H:11])([H:12])[O:6]1)([H:8])[H:9])[H:7]>>[O:1]([C:2](=[C:3]([H:8])[H:9])[H:7])[C:5]([C:4](=[O:6])[H:10])([H:11])[H:12]"
O        0.73537166       1.16689549       0.87600435
C        1.41149325       0.39570647       0.16474863
C        0.72777162      -0.57683290      -0.67760291
C       -0.78184916      -0.71150014       0.10468985
C       -1.04048149       0.70803136       0.42352466
O       -1.92989393      -0.82982501      -0.52151940
H        2.50212742       0.46415674       0.23863270
H        1.31563015      -1.47767914      -0.84656215
H        0.45057252      -0.14125284      -1.64247335
H       -0.61089633      -1.33612641       1.00313958
H       -1.61559746       0.96954451       1.30631296
H       -1.16424826       1.36888187      -0.42889492
12
Frame=6 idx=001121 GeodesicLength=0.5059619813334548 rxn_smarts="[O:1]=[C:2]([C:3]([C@@:4]1([H:10])[C:5]([H:11])([H:12])[O:6]1)([H:8])[H:9])[H:7]>>[O:1]([C:2](=[C:3]([H:8])[H:9])[H:7])[C:5]([C:4](=[O:6])[H:10])([H:11])[H:12]"
O        0.74012047       1.15212880       0.88862921
C        1.42050055       0.39168803       0.16498385
C        0.74252031      -0.57527156      -0.68212218
C       -0.79061844      -0.71644602       0.11181823
C       -1.05070028       0.70575431       0.41833037
O       -1.94407929      -0.81831963      -0.50366454
H        2.51091266       0.46792910       0.23066903
H        1.33356373      -1.47242053      -0.85849321
H        0.44965247      -0.13870739      -1.64126834
H       -0.61686973      -1.33613568       1.01194917
H       -1.63247505       0.97285188       1.29531333
H       -1.16252740       1.36694870      -0.43614492
12
Frame=7 idx=001121 GeodesicLength=0.5902055268061469 rxn_smarts="[O:1]=[C:2]([C:3]([C@@:4]1([H:10])[C:5]([H:11])([H:12])[O:6]1)([H:8])[H:9])[H:7]>>[O:1]([C:2](=[C:3]([H:8])[H:9])[H:7])[C:5]([C:4](=[O:6])[H:10])([H:11])[H:12]"
O        0.74493258       1.13712881       0.90103790
C        1.42960525       0.38750771       0.16532309
C        0.75750979      -0.57358014      -0.68688565
C       -0.79981238      -0.72134790       0.11907743
C       -1.06097017       0.70351353       0.41309648
O       -1.95831179      -0.80706494      -0.48572825
H        2.51965215       0.47170827       0.22309534
H        1.35174990      -1.46690981      -0.87079451
H        0.44870302      -0.13614579      -1.63997409
H       -0.62304657      -1.33601147       1.02087664
H       -1.64897465       0.97645914       1.28435888
H       -1.16103713       1.36474259      -0.44348326
12
Frame=8 idx=001121 GeodesicLength=0.674429375870203 rxn_smarts="[O:1]=[C:2]([C:3]([C@@:4]1([H:10])[C:5]([H:11])([H:12])[O:6]1)([H:8])[H:9])[H:7]>>[O:1]([C:2](=[C:3]([H:8])[H:9])[H:7])[C:5]([C:4](=[O:6])[H:10])([H:11])[H:12]"
O        0.74980891       1.12186814       0.91325024
C        1.43881348       0.38315212       0.16577058
C        0.77275449      -0.57175129      -0.69189985
C       -0.80944084      -0.72620790       0.12648762
C       -1.07129465       0.70130403       0.40781967
O       -1.97260821      -0.79604072      -0.46770628
H        2.52835216       0.47551476       0.21588854
H        1.37020480      -1.46112890      -0.88347940
H        0.44772379      -0.13357794      -1.63857767
H       -0.62943669      -1.33575577       1.02993470
H       -1.66510923       0.98037552       1.27343886
H       -1.15976802       1.36224797      -0.45092702
12
Frame=9 idx=001121 GeodesicLength=0.7586341965321808 rxn_smarts="[O:1]=[C:2]([C:3]([C@@:4]1([H:10])[C:5]([H:11])([H:12])[O:6]1)([H:8])[H:9])[H:7]>>[O:1]([C:2](=[C:3]([H:8])[H:9])[H:7])[C:5]([C:4](=[O:6])[H:10])([H:11])[H:12]"
O        0.75474949       1.10632244       0.92528302
C        1.44813187       0.37861091       0.16632679
C        0.78827018      -0.56977637      -0.69717563
C       -0.81951316      -0.73102831       0.13406946
C       -1.08167879       0.69912252       0.40249703
O       -1.98698609      -0.78522789      -0.44959334
H        2.53701879       0.47936040       0.20903919
H        1.38894833      -1.45505942      -0.89656487
H        0.44671190      -0.13101672      -1.63707132
H       -0.63604590      -1.33537068       1.03913811
H       -1.68088996       0.98461241       1.26254535
H       -1.15871667       1.35945069      -0.45849380
12
Frame=10 idx=001121 GeodesicLength=0.8428207855452978 rxn_smarts="[O:1]=[C:2]([C:3]([C@@:4]1([H:10])[C:5]([H:11])([H:12])[O:6]1)([H:8])[H:9])[H:7]>>[O:1]([C:2](=[C:3]([H:8])[H:9])[H:7])[C:5]([C:4](=[O:6])[H:10])([H:11])[H:12]"
O        0.75975422       1.09046430       0.93715278
C        1.45756725       0.37387261       0.16699235
C        0.80407363      -0.56764581      -0.70272460
C       -0.83003999      -0.73581100       0.14184390
C       -1.09212733       0.69696551       0.39712553
O       -2.00146350      -0.77460613      -0.43138327
H        2.54565665       0.48325982       0.20253782
H        1.40800184      -1.44868129      -0.91006844
H        0.44566472      -0.12847733      -1.63544688
H       -0.64288190      -1.33485814       1.04850193
H       -1.69632622       0.98918142       1.25166952
H       -1.15787937       1.35633606      -0.46620063
12
Frame=11 idx=001121 GeodesicLength=0.9269897496247073 rxn_smarts="[O:1]=[C:2]([C:3]([C@@:4]1([H:10])[C:5]([H:11])([H:12])[O:6]1)([H:8])[H:9])[H:7]>>[O:1]([C:2](=[C:3]([H:8])[H:9])[H:7])[C:5]([C:4](=[O:6])[H:10])([H:11])[H:12]"
O        0.76482278       1.07426623       0.94887218
C        1.46712642       0.36892719       0.16776518
C        0.82018229      -0.56534727      -0.70856076
C       -0.84103245      -0.74055746       0.14983280
C       -1.10264503       0.69482916       0.39170174
O       -2.01605873      -0.76415540      -0.41306739
H        2.55426934       0.48722225       0.19638336
H        1.42738794      -1.44197081      -0.92400967
H        0.44457850      -0.12597689      -1.63369708
H       -0.64995167      -1.33421904       1.05804209
H       -1.71142506       0.99409420       1.24080209
H       -1.15725432       1.35288784      -0.47406455
12
Frame=12 idx=001121 GeodesicLength=1.0111417711795416 rxn_smarts="[O:1]=[C:2]([C:3]([C@@:4]1([H:10])[C:5]([H:11])([H:12])[O:6]1)([H:8])[H:9])[H:7]>>[O:1]([C:2](=[C:3]([H:8])[H:9])[H:7])[C:5]([C:4](=[O:6])[H:10])([H:11])[H:12]"
O        0.76995487       1.05769721       0.96045382
C        1.47681649       0.36376275       0.16864411
C        0.83661480      -0.56286719      -0.71469871
C       -0.85250338      -0.74526874       0.15805840
C       -1.11323618       0.69270928       0.38622216
O       -2.03079086      -0.75385408      -0.39463625
H        2.56285912       0.49126087       0.19057342
H        1.44713060      -1.43490224      -0.93840858
H        0.44345005      -0.12353526      -1.63181372
H       -0.65726469      -1.33345423       1.06777474
H       -1.72619176       0.99936274       1.22993270
H       -1.15683907       1.34908889      -0.48210208
12
Frame=13 idx=001121 GeodesicLength=1.0952772897080123 rxn_smarts="[O:1]=[C:2]([C:3]([C@@:4]1([H:10])[C:5]([H:11])([H:12])[O:6]1)([H:8])[H:9])[H:7]>>[O:1]([C:2](=[C:3]([H:8])[H:9])[H:7])[C:5]([C:4](=[O:6])[H:10])([H:11])[H:12]"
O        0.77514979       1.04072818       0.97190432
C        1.48664440       0.35837061       0.16962340
C        0.85339053      -0.56018767      -0.72115667
C       -0.86446556      -0.74994521       0.16654438
C       -1.12390558       0.69060131       0.38068274
O       -2.04567894      -0.74368175      -0.37607667
H        2.57142835       0.49537732       0.18511952
H        1.46725518      -1.42744445      -0.95328844
H        0.44227407      -0.12117437      -1.62979029
H       -0.66482810      -1.33256272       1.07771751
H       -1.74062930       1.00499888       1.21905064
H       -1.15663484       1.34491987      -0.49033044
12
Frame=14 idx=001121 GeodesicLength=1.179397390082006 rxn_smarts="[O:1]=[C:2]([C:3]([C@@:4]1([H:10])[C:5]([H:11])([H:12])[O:6]1)([H:8])[H:9])[H:7]>>[O:1]([C:2](=[C:3]([H:8])[H:9])[H:7])[C:5]([C:4](=[O:6])[H:10])([H:11])[H:12]"
O        0.78040710       1.02332412       0.98323245
C        1.49661777       0.35273732       0.17070090
C        0.87053051      -0.55729039      -0.72795241
C       -0.87693457      -0.75458661       0.17531473
C       -1.13465731       0.68850010       0.37507947
O       -2.06074339      -0.73361502      -0.35737588
H        2.57997777       0.49958359       0.18002483
H        1.48778859      -1.41956532      -0.96867219
H        0.44104728      -0.11891924      -1.62761745
H       -0.67265378      -1.33154390       1.08788800
H       -1.75473927       1.01101497       1.20814340
H       -1.15664072       1.34036038      -0.49876587
12
Frame=15 idx=001121 GeodesicLength=1.2635127828497796 rxn_smarts="[O:1]=[C:2]([C:3]([C@@:4]1([H:10])[C:5]([H:11])([H:12])[O:6]1)([H:8])[H:9])[H:7]>>[O:1]([C:2](=[C:3]([H:8])[H:9])[H:7])[C:5]([C:4](=[O:6])[H:10])([H:11])[H:12]"
O        0.78572657       1.00544957       0.99444562
C        1.50674647       0.34685204       0.17187090
C        0.88805898      -0.55415187      -0.73510877
C       -0.88992703      -0.75919218       0.18439575
C       -1.14549828       0.68640107       0.36940895
O       -2.07600823      -0.72363068      -0.33851614
H        2.58851259       0.50388040       0.17530483
H        1.50876348      -1.41122743      -0.98458851
H        0.43976485      -0.11679895      -1.62529149
H       -0.68075115      -1.33039683       1.09830760
H       -1.76852679       1.01742719       1.19719884
H       -1.15686147       1.33538768      -0.50742760
12
Frame=16 idx=001121 GeodesicLength=1.347591712557688 rxn_smarts="[O:1]=[C:2]([C:3]([C@@:4]1([H:10])[C:5]([H:11])([H:12])[O:6]1)([H:8])[H:9])[H:7]>>[O:1]([C:2](=[C:3]([H:8])[H:9])[H:7])[C:5]([C:4](=[O:6])[H:10])([H:11])[H:12]"
O        0.79110548       0.98708239       1.00552432
C        1.51702915       0.34072232       0.17310869
C        0.90598934      -0.55073217      -0.74265348
C       -0.90345139      -0.76376044       0.19381798
C       -1.15642667       0.68429504       0.36366393
O       -2.09148166      -0.71371637      -0.31946904
H        2.59702869       0.50822324       0.17102287
H        1.53019203      -1.40237118      -1.00106741
H        0.43841212      -0.11484195      -1.62280158
H       -0.68911776      -1.32911363       1.10899311
H       -1.78197950       1.02424387       1.18619269
H       -1.15729984       1.32996886      -0.51633208
