13
Frame=0 idx=002084 GeodesicLength=0.0 rxn_smarts="[C:1]([c:2]1[c:3]([H:10])[c:4]([H:11])[c:5]([H:12])[n:6]1[H:13])([H:7])([H:8])[H:9]>>[C:1]([C:2]1=[N:6][C:5]([H:12])([H:13])[C:4]([H:11])=[C:3]1[H:10])([H:7])([H:8])[H:9]"
C        1.99047399       0.05492373      -0.09791219
C        0.49709079       0.02756545      -0.12485424
C       -0.39035456       1.03207316       0.26467652
C       -1.67732741       0.52002101       0.19149761
C       -1.55601541      -0.79343836      -0.26528712
N       -0.16151517      -1.08314511      -0.50882711
H        2.37764571      -0.35843110       0.83699148
H        2.39800935      -0.53641206      -0.91744818
H        2.36018107       1.07676832      -0.18754923
H       -0.11158923       2.02165959       0.59879441
H       -2.60050321       1.02640870       0.42950490
H       -2.30159197      -1.44926502      -0.69031365
H       -0.82450390      -1.53872830       0.47072682
13
Frame=1 idx=002084 GeodesicLength=0.03880942872134169 rxn_smarts="[C:1]([c:2]1[c:3]([H:10])[c:4]([H:11])[c:5]([H:12])[n:6]1[H:13])([H:7])([H:8])[H:9]>>[C:1]([C:2]1=[N:6][C:5]([H:12])([H:13])[C:4]([H:11])=[C:3]1[H:10])([H:7])([H:8])[H:9]"
C        1.99002634       0.05490357      -0.09726519
C        0.49691507       0.02975545      -0.12820079
C       -0.39112065       1.03556463       0.26228697
C       -1.67655280       0.52004941       0.19795782
C       -1.55556765      -0.79469465      -0.26056535
N       -0.16352470      -1.07960261      -0.50747771
H        2.37381321      -0.34844024       0.84336997
H        2.39974483      -0.54502360      -0.90951718
H        2.36112138       1.07530102      -0.19731844
H       -0.11212285       2.02693479       0.59070001
H       -2.59942129       1.02399202       0.44234026
H       -2.30083482      -1.43806413      -0.70515290
H       -0.82247606      -1.56067566       0.46884253
13
Frame=2 idx=002084 GeodesicLength=0.07762402451407943 rxn_smarts="[C:1]([c:2]1[c:3]([H:10])[c:4]([H:11])[c:5]([H:12])[n:6]1[H:13])([H:7])([H:8])[H:9]>>[C:1]([C:2]1=[N:6][C:5]([H:12])([H:13])[C:4]([H:11])=[C:3]1[H:10])([H:7])([H:8])[H:9]"
C        1.98953812       0.05486913      -0.09644038
C        0.49671668       0.03198186      -0.13165117
C       -0.39193839       1.03918810       0.25949845
C       -1.67571823       0.52005404       0.20455056
C       -1.55513480      -0.79594976      -0.25586911
N       -0.16554444      -1.07605236      -0.50611885
H        2.36976290      -0.33827505       0.84992314
H        2.40150079      -0.55372327      -0.90115783
H        2.36211750       1.07366713      -0.20697333
H       -0.11277397       2.03247235       0.58174914
H       -2.59814750       1.02128093       0.45614593
H       -2.29994579      -1.42640690      -0.71976080
H       -0.82043286      -1.58310619       0.46610425
13
Frame=3 idx=002084 GeodesicLength=0.11644314483016725 rxn_smarts="[C:1]([c:2]1[c:3]([H:10])[c:4]([H:11])[c:5]([H:12])[n:6]1[H:13])([H:7])([H:8])[H:9]>>[C:1]([C:2]1=[N:6][C:5]([H:12])([H:13])[C:4]([H:11])=[C:3]1[H:10])([H:7])([H:8])[H:9]"
C        1.98900670       0.05482399      -0.09543251
C        0.49649601       0.03424823      -0.13521927
C       -0.39281154       1.04294857       0.25628647
C       -1.67481353       0.52003343       0.21129102
C       -1.55471477      -0.79720228      -0.25119340
N       -0.16757408      -1.07249456      -0.50475105
H        2.36548085      -0.32794434       0.85664772
H        2.40327544      -0.56249241      -0.89236609
H        2.36317480       1.07186692      -0.21648550
H       -0.11355093       2.03826222       0.57193965
H       -2.59665272       1.01828932       0.47089530
H       -2.29894106      -1.41431321      -0.73407030
H       -0.81837515      -1.60602590       0.46245795
13
Frame=4 idx=002084 GeodesicLength=0.15526404899471236 rxn_smarts="[C:1]([c:2]1[c:3]([H:10])[c:4]([H:11])[c:5]([H:12])[n:6]1[H:13])([H:7])([H:8])[H:9]>>[C:1]([C:2]1=[N:6][C:5]([H:12])([H:13])[C:4]([H:11])=[C:3]1[H:10])([H:7])([H:8])[H:9]"
C        1.98842918       0.05478677      -0.09428938
C        0.49625213       0.03655291      -0.13891881
C       -0.39374623       1.04685551       0.25259953
C       -1.67383229       0.52000015       0.21814541
C       -1.55430420      -0.79846631      -0.24649594
N       -0.16961004      -1.06895780      -0.50331169
H        2.36099087      -0.31741614       0.86348292
H        2.40504683      -0.57130661      -0.88319444
H        2.36427941       1.06991947      -0.22591106
H       -0.11442723       2.04415361       0.56167962
H       -2.59494075       1.01514452       0.48622673
H       -2.29783070      -1.40185486      -0.74795020
H       -0.81630696      -1.62941123       0.45793730
13
Frame=5 idx=002084 GeodesicLength=0.19408736414776934 rxn_smarts="[C:1]([c:2]1[c:3]([H:10])[c:4]([H:11])[c:5]([H:12])[n:6]1[H:13])([H:7])([H:8])[H:9]>>[C:1]([C:2]1=[N:6][C:5]([H:12])([H:13])[C:4]([H:11])=[C:3]1[H:10])([H:7])([H:8])[H:9]"
C        1.98780310       0.05475620      -0.09298801
C        0.49598613       0.03889823      -0.14275738
C       -0.39474547       1.05090617       0.24843549
C       -1.67276179       0.51995044       0.22514219
C       -1.55390089      -0.79973542      -0.24177978
N       -0.17165216      -1.06543556      -0.50181436
H        2.35627119      -0.30671288       0.87044349
H        2.40681835      -0.58014772      -0.87362299
H        2.36544066       1.06782079      -0.23519476
H       -0.11541751       2.05019216       0.55081882
H       -2.59297507       1.01182540       0.50222916
H       -2.29663346      -1.38903995      -0.76136963
H       -0.81423310      -1.65327785       0.45245774
13
Frame=6 idx=002084 GeodesicLength=0.2329108408419332 rxn_smarts="[C:1]([c:2]1[c:3]([H:10])[c:4]([H:11])[c:5]([H:12])[n:6]1[H:13])([H:7])([H:8])[H:9]>>[C:1]([C:2]1=[N:6][C:5]([H:12])([H:13])[C:4]([H:11])=[C:3]1[H:10])([H:7])([H:8])[H:9]"
C        1.98712657       0.05475205      -0.09158161
C        0.49569740       0.04127803      -0.14673831
C       -0.39581414       1.05510165       0.24376316
C       -1.67159699       0.51990186       0.23223482
C       -1.55350118      -0.80102456      -0.23699880
N       -0.17369498      -1.06196216      -0.50018059
H        2.35135795      -0.29579598       0.87746142
H        2.40856485      -0.58899151      -0.86371190
H        2.36663988       1.06559248      -0.24440713
H       -0.11648430       2.05622724       0.53978885
H       -2.59077321       1.00846985       0.51852112
H       -2.29535535      -1.37594904      -0.77421418
H       -0.81216649      -1.67759991       0.44606315
13
Frame=7 idx=002084 GeodesicLength=0.2717318977141936 rxn_smarts="[C:1]([c:2]1[c:3]([H:10])[c:4]([H:11])[c:5]([H:12])[n:6]1[H:13])([H:7])([H:8])[H:9]>>[C:1]([C:2]1=[N:6][C:5]([H:12])([H:13])[C:4]([H:11])=[C:3]1[H:10])([H:7])([H:8])[H:9]"
C        1.98639960       0.05481466      -0.09020688
C        0.49538273       0.04367605      -0.15085798
C       -0.39696092       1.05944418       0.23853030
C       -1.67034697       0.51989908       0.23928467
C       -1.55310016      -0.80237119      -0.23205787
N       -0.17572563      -1.05861584      -0.49823233
H        2.34635383      -0.28456389       0.88437681
H        2.41023354      -0.59780724      -0.85361076
H        2.36782709       1.06328052      -0.25375619
H       -0.11751674       2.06191582       0.52964847
H       -2.58843514       1.00538636       0.53422803
H       -2.29398183      -1.36274991      -0.78629495
H       -0.81012938      -1.70230861       0.43894869
13
Frame=8 idx=002084 GeodesicLength=0.3105661029102881 rxn_smarts="[C:1]([c:2]1[c:3]([H:10])[c:4]([H:11])[c:5]([H:12])[n:6]1[H:13])([H:7])([H:8])[H:9]>>[C:1]([C:2]1=[N:6][C:5]([H:12])([H:13])[C:4]([H:11])=[C:3]1[H:10])([H:7])([H:8])[H:9]"
C        1.98562388       0.05494287      -0.08884430
C        0.49504424       0.04608775      -0.15509848
C       -0.39818084       1.06391588       0.23280064
C       -1.66900273       0.51994019       0.24632640
C       -1.55269722      -0.80377214      -0.22695455
N       -0.17774327      -1.05539620      -0.49596664
H        2.34126207      -0.27304278       0.89119676
H        2.41182357      -0.60657240      -0.84331758
H        2.36900803       1.06088707      -0.26319639
H       -0.11851236       2.06733607       0.52021697
H       -2.58595986       1.00256832       0.54942153
H       -2.29252434      -1.34946001      -0.79762119
H       -0.80814118      -1.72743463       0.43103682
13
Frame=9 idx=002084 GeodesicLength=0.3493584327868878 rxn_smarts="[C:1]([c:2]1[c:3]([H:10])[c:4]([H:11])[c:5]([H:12])[n:6]1[H:13])([H:7])([H:8])[H:9]>>[C:1]([C:2]1=[N:6][C:5]([H:12])([H:13])[C:4]([H:11])=[C:3]1[H:10])([H:7])([H:8])[H:9]"
C        1.98479978       0.05515418      -0.08755554
C        0.49467992       0.04850215      -0.15945070
C       -0.39948450       1.06848117       0.22657590
C       -1.66756553       0.52003713       0.25333080
C       -1.55228551      -0.80523078      -0.22163890
N       -0.17973540      -1.05231821      -0.49329672
H        2.33613283      -0.26112620       0.89784778
H        2.41331858      -0.61530378      -0.83284937
H        2.37015145       1.05840577      -0.27287732
H       -0.11940984       2.07232096       0.51196875
H       -2.58341995       1.00015729       0.56370374
H       -2.29097019      -1.33614122      -0.80811272
H       -0.80621166      -1.75293847       0.42235430
13
Frame=10 idx=002084 GeodesicLength=0.3881568802459809 rxn_smarts="[C:1]([c:2]1[c:3]([H:10])[c:4]([H:11])[c:5]([H:12])[n:6]1[H:13])([H:7])([H:8])[H:9]>>[C:1]([C:2]1=[N:6][C:5]([H:12])([H:13])[C:4]([H:11])=[C:3]1[H:10])([H:7])([H:8])[H:9]"
C        1.98392781       0.05540155      -0.08614414
C        0.49429893       0.05091940      -0.16386428
C       -0.40085427       1.07312415       0.22001842
C       -1.66600448       0.52014392       0.26047560
C       -1.55186816      -0.80669731      -0.21620468
N       -0.18171051      -1.04931635      -0.49036942
H        2.33087065      -0.24901059       0.90451502
H        2.41476270      -0.62396474      -0.82205958
H        2.37131446       1.05580144      -0.28243840
H       -0.12036839       2.07738188       0.50331147
H       -2.58064321       0.99776992       0.57823396
H       -2.28934627      -1.32261015      -0.81800606
H       -0.80437927      -1.77894312       0.41253207
13
Frame=11 idx=002084 GeodesicLength=0.42700516501808894 rxn_smarts="[C:1]([c:2]1[c:3]([H:10])[c:4]([H:11])[c:5]([H:12])[n:6]1[H:13])([H:7])([H:8])[H:9]>>[C:1]([C:2]1=[N:6][C:5]([H:12])([H:13])[C:4]([H:11])=[C:3]1[H:10])([H:7])([H:8])[H:9]"
C        1.98300762       0.05569123      -0.08459573
C        0.49390273       0.05334132      -0.16835543
C       -0.40228931       1.07783639       0.21313966
C       -1.66429800       0.52025272       0.26783927
C       -1.55144653      -0.80818460      -0.21063864
N       -0.18367229      -1.04639598      -0.48720089
H        2.32545137      -0.23663717       0.91124127
H        2.41616610      -0.63259691      -0.81089006
H        2.37250874       1.05307642      -0.29191476
H       -0.12138886       2.08256495       0.49417154
H       -2.57760760       0.99542429       0.59305731
H       -2.28767586      -1.30888118      -0.82729298
H       -0.80265810      -1.80549150       0.40143943
13
Frame=12 idx=002084 GeodesicLength=0.4658050458540988 rxn_smarts="[C:1]([c:2]1[c:3]([H:10])[c:4]([H:11])[c:5]([H:12])[n:6]1[H:13])([H:7])([H:8])[H:9]>>[C:1]([C:2]1=[N:6][C:5]([H:12])([H:13])[C:4]([H:11])=[C:3]1[H:10])([H:7])([H:8])[H:9]"
C        1.98203731       0.05602960      -0.08293348
C        0.49349084       0.05575894      -0.17291363
C       -0.40379649       1.08257428       0.20597071
C       -1.66243556       0.52035000       0.27544345
C       -1.55101086      -0.80968585      -0.20489179
N       -0.18560983      -1.04355232      -0.48372898
H        2.31990241      -0.22394862       0.91797916
H        2.41751802      -0.64120146      -0.79932587
H        2.37371229       1.05020865      -0.30137209
H       -0.12246348       2.08777374       0.48471109
H       -2.57434486       0.99317946       0.60795444
H       -2.28595315      -1.29495411      -0.83589500
H       -0.80104663      -1.83253231       0.38900199
13
Frame=13 idx=002084 GeodesicLength=0.5046553272044668 rxn_smarts="[C:1]([c:2]1[c:3]([H:10])[c:4]([H:11])[c:5]([H:12])[n:6]1[H:13])([H:7])([H:8])[H:9]>>[C:1]([C:2]1=[N:6][C:5]([H:12])([H:13])[C:4]([H:11])=[C:3]1[H:10])([H:7])([H:8])[H:9]"
C        1.98100792       0.05639695      -0.08101761
C        0.49306716       0.05818185      -0.17758336
C       -0.40537996       1.08737301       0.19842922
C       -1.66038321       0.52043138       0.28334845
C       -1.55056595      -0.81117711      -0.19904330
N       -0.18753184      -1.04076075      -0.48007188
H        2.31408191      -0.21091802       0.92492905
H        2.41887185      -0.64986022      -0.78713166
H        2.37497700       1.04715934      -0.31069115
H       -0.12369666       2.09328858       0.47402354
H       -2.57064121       0.99075110       0.62387726
H       -2.28421203      -1.28072571      -0.84396478
H       -0.79959498      -1.86014039       0.37489621
13
Frame=14 idx=002084 GeodesicLength=0.5435247525338502 rxn_smarts="[C:1]([c:2]1[c:3]([H:10])[c:4]([H:11])[c:5]([H:12])[n:6]1[H:13])([H:7])([H:8])[H:9]>>[C:1]([C:2]1=[N:6][C:5]([H:12])([H:13])[C:4]([H:11])=[C:3]1[H:10])([H:7])([H:8])[H:9]"
C        1.97992740       0.05681911      -0.07893918
C        0.49263312       0.06058131      -0.18230476
C       -0.40703294       1.09219225       0.19059975
C       -1.65815540       0.52053119       0.29145294
C       -1.55011131      -0.81268334      -0.19302234
N       -0.18942256      -1.03808565      -0.47604578
H        2.30811279      -0.19749666       0.93195414
H        2.42018160      -0.65852260      -0.77443545
H        2.37625898       1.04395875      -0.32000048
H       -0.12501966       2.09891638       0.46271357
H       -2.56659201       0.98834233       0.64022619
H       -2.28242124      -1.26630918      -0.85140508
H       -0.79835877      -1.88824388       0.35920650
13
Frame=15 idx=002084 GeodesicLength=0.5823888023319604 rxn_smarts="[C:1]([c:2]1[c:3]([H:10])[c:4]([H:11])[c:5]([H:12])[n:6]1[H:13])([H:7])([H:8])[H:9]>>[C:1]([C:2]1=[N:6][C:5]([H:12])([H:13])[C:4]([H:11])=[C:3]1[H:10])([H:7])([H:8])[H:9]"
C        1.97881349       0.05732102      -0.07681652
C        0.49219243       0.06291706      -0.18696861
C       -0.40873914       1.09696435       0.18268108
C       -1.65578217       0.52068023       0.29967291
C       -1.54964360      -0.81423264      -0.18672499
N       -0.19125807      -1.03559502      -0.47141842
H        2.30218247      -0.18369585       0.93885508
H        2.42139376      -0.66708575      -0.76146146
H        2.37749630       1.04065188      -0.32941363
H       -0.12635731       2.10443782       0.45145183
H       -2.56238223       0.98623633       0.65617928
H       -2.28052491      -1.25182935      -0.85811120
H       -0.79739100      -1.91677008       0.34207466
13
Frame=16 idx=002084 GeodesicLength=0.621276643581811 rxn_smarts="[C:1]([c:2]1[c:3]([H:10])[c:4]([H:11])[c:5]([H:12])[n:6]1[H:13])([H:7])([H:8])[H:9]>>[C:1]([C:2]1=[N:6][C:5]([H:12])([H:13])[C:4]([H:11])=[C:3]1[H:10])([H:7])([H:8])[H:9]"
C        1.97764944       0.05787938      -0.07449079
C        0.49174564       0.06520121      -0.19165028
C       -0.41051291       1.10172068       0.17451629
C       -1.65322308       0.52086081       0.30808588
C       -1.54916696      -0.81579291      -0.18023517
N       -0.19304648      -1.03325053      -0.46631462
H        2.29610774      -0.16944421       0.94585815
H        2.42257034      -0.67566350      -0.74789290
H        2.37874602       1.03716768      -0.33881937
H       -0.12783195       2.11013110       0.43925570
H       -2.55774861       0.98408686       0.67281943
H       -2.27855520      -1.23714995      -0.86422486
H       -0.79673399      -1.94574664       0.32309255
