14
Frame=0 idx=009246 GeodesicLength=0.0 rxn_smarts="[C:1]([C@@:2]([C:3](=[O:4])[H:12])([C:5](=[O:6])[N:7]([H:13])[H:14])[H:11])([H:8])([H:9])[H:10]>>[C:1]([C@:2]1([C:3](=[O:4])[H:12])/[C:5](=[N:7]/[H:14])[O:6]1)([H:8])([H:9])[H:10].[H:11][H:13]"
C       -0.82607711      -1.10581765       0.75721769
C       -0.20787647       0.06314114       0.08910769
C       -1.04946509       1.31304754      -0.05749992
O       -2.22134821       1.25473289      -0.29137362
C        1.24752251       0.28874647       0.13929951
O        1.32780480       0.78453009       1.29445643
N        1.96214140      -0.01126405      -0.87848884
H       -0.81292739      -0.90500146       1.83154828
H       -1.86710168      -1.19840666       0.44753529
H       -0.26923918      -2.01955056       0.56060954
H       -0.28923295      -0.45338719      -1.52883813
H       -0.49437718       2.25868442       0.04660250
H        0.54446264      -0.41938250      -1.62221700
H        2.95571385       0.14992746      -0.78795936
14
Frame=1 idx=009246 GeodesicLength=0.06951618583277308 rxn_smarts="[C:1]([C@@:2]([C:3](=[O:4])[H:12])([C:5](=[O:6])[N:7]([H:13])[H:14])[H:11])([H:8])([H:9])[H:10]>>[C:1]([C@:2]1([C:3](=[O:4])[H:12])/[C:5](=[N:7]/[H:14])[O:6]1)([H:8])([H:9])[H:10].[H:11][H:13]"
C       -0.82510212      -1.10498094       0.75831097
C       -0.20873177       0.06646519       0.08886683
C       -1.05135387       1.31599622      -0.04918330
O       -2.22760815       1.25842715      -0.26048888
C        1.24759652       0.28853528       0.13558442
O        1.31633948       0.78846640       1.28919204
N        1.96256401      -0.01591420      -0.88276059
H       -0.83001920      -0.90051268       1.83180884
H       -1.86037188      -1.21043050       0.43401585
H       -0.25913219      -2.01570400       0.57362471
H       -0.28709447      -0.44804652      -1.53279782
H       -0.49519619       2.26318532       0.03692920
H        0.56123843      -0.42232661      -1.63975027
H        2.95687142       0.13683989      -0.78335201
14
Frame=2 idx=009246 GeodesicLength=0.13900156554675328 rxn_smarts="[C:1]([C@@:2]([C:3](=[O:4])[H:12])([C:5](=[O:6])[N:7]([H:13])[H:14])[H:11])([H:8])([H:9])[H:10]>>[C:1]([C@:2]1([C:3](=[O:4])[H:12])/[C:5](=[N:7]/[H:14])[O:6]1)([H:8])([H:9])[H:10].[H:11][H:13]"
C       -0.82416882      -1.10404235       0.75940772
C       -0.20967379       0.06987883       0.08856182
C       -1.05337689       1.31893853      -0.04103364
O       -2.23360780       1.26201437      -0.22936001
C        1.24755331       0.28852942       0.13173549
O        1.30494771       0.79250732       1.28371371
N        1.96303110      -0.02060052      -0.88697307
H       -0.84689954      -0.89626344       1.83182746
H       -1.85344213      -1.22208390       0.42087583
H       -0.24932450      -2.01163495       0.58652298
H       -0.28482437      -0.44271055      -1.53682371
H       -0.49667601       2.26761094       0.02760291
H        0.57850668      -0.42548191      -1.65756323
H        2.95795504       0.12333819      -0.77849425
14
Frame=3 idx=009246 GeodesicLength=0.20846254032497286 rxn_smarts="[C:1]([C@@:2]([C:3](=[O:4])[H:12])([C:5](=[O:6])[N:7]([H:13])[H:14])[H:11])([H:8])([H:9])[H:10]>>[C:1]([C@:2]1([C:3](=[O:4])[H:12])/[C:5](=[N:7]/[H:14])[O:6]1)([H:8])([H:9])[H:10].[H:11][H:13]"
C       -0.82327493      -1.10300473       0.76050957
C       -0.21070727       0.07338133       0.08819312
C       -1.05554347       1.32187333      -0.03303849
O       -2.23933599       1.26549734      -0.19800171
C        1.24738870       0.28872561       0.12774764
O        1.29362900       0.79665187       1.27802101
N        1.96353772      -0.02531570      -0.89113009
H       -0.86355873      -0.89225016       1.83162106
H       -1.84633123      -1.23337657       0.40812002
H       -0.23980454      -2.00735010       0.59929174
H       -0.28243974      -0.43738280      -1.54091392
H       -0.49879675       2.27197408       0.01861922
H        0.59629618      -0.42884480      -1.67566338
H        2.95894106       0.10942129      -0.77337576
14
Frame=4 idx=009246 GeodesicLength=0.2779199468153012 rxn_smarts="[C:1]([C@@:2]([C:3](=[O:4])[H:12])([C:5](=[O:6])[N:7]([H:13])[H:14])[H:11])([H:8])([H:9])[H:10]>>[C:1]([C@:2]1([C:3](=[O:4])[H:12])/[C:5](=[N:7]/[H:14])[O:6]1)([H:8])([H:9])[H:10].[H:11][H:13]"
C       -0.82253166      -1.10188323       0.76164509
C       -0.21182446       0.07689502       0.08778715
C       -1.05773726       1.32479417      -0.02520812
O       -2.24466331       1.26897498      -0.16651044
C        1.24712803       0.28892131       0.12369245
O        1.28241304       0.80071427       1.27218400
N        1.96411584      -0.03034207      -0.89512506
H       -0.88011877      -0.88845806       1.83122833
H       -1.83917369      -1.24424735       0.39574801
H       -0.23074717      -2.00292181       0.61198696
H       -0.27994196      -0.43216338      -1.54503249
H       -0.50134340       2.27622890       0.00996497
H        0.61467137      -0.43259517      -1.69399108
H        2.95975341       0.09608244      -0.76836976
14
Frame=5 idx=009246 GeodesicLength=0.3473616006600622 rxn_smarts="[C:1]([C@@:2]([C:3](=[O:4])[H:12])([C:5](=[O:6])[N:7]([H:13])[H:14])[H:11])([H:8])([H:9])[H:10]>>[C:1]([C@:2]1([C:3](=[O:4])[H:12])/[C:5](=[N:7]/[H:14])[O:6]1)([H:8])([H:9])[H:10].[H:11][H:13]"
C       -0.82189425      -1.10067628       0.76280489
C       -0.21303707       0.08044942       0.08733252
C       -1.06001783       1.32770356      -0.01752015
O       -2.24962815       1.27241932      -0.13486124
C        1.24675293       0.28919171       0.11953412
O        1.27128500       0.80476766       1.26617323
N        1.96474169      -0.03556373      -0.89900435
H       -0.89652015      -0.88488895       1.83065462
H       -1.83194620      -1.25473561       0.38376510
H       -0.22207054      -1.99833181       0.62457300
H       -0.27736185      -0.42701501      -1.54919250
H       -0.50437899       2.28040506       0.00163966
H        0.63364877      -0.43666399      -1.71257904
H        2.96042664       0.08293865      -0.76331986
14
Frame=6 idx=009246 GeodesicLength=0.4168170064333292 rxn_smarts="[C:1]([C@@:2]([C:3](=[O:4])[H:12])([C:5](=[O:6])[N:7]([H:13])[H:14])[H:11])([H:8])([H:9])[H:10]>>[C:1]([C@:2]1([C:3](=[O:4])[H:12])/[C:5](=[N:7]/[H:14])[O:6]1)([H:8])([H:9])[H:10].[H:11][H:13]"
C       -0.82134260      -1.09938481       0.76398446
C       -0.21435445       0.08405673       0.08682175
C       -1.06241752       1.33060211      -0.00995676
O       -2.25424362       1.27582247      -0.10303966
C        1.24625122       0.28956834       0.11525166
O        1.26023605       0.80884342       1.25997351
N        1.96540351      -0.04092693      -0.90278883
H       -0.91273122      -0.88154112       1.82990986
H       -1.82464821      -1.26486513       0.37217778
H       -0.21373178      -1.99357675       0.63702390
H       -0.27473588      -0.42191938      -1.55339922
H       -0.50791811       2.28452245      -0.00636680
H        0.65326590      -0.44102643      -1.73144532
H        2.96096671       0.06982504      -0.75814634
14
Frame=7 idx=009246 GeodesicLength=0.48628482459409617 rxn_smarts="[C:1]([C@@:2]([C:3](=[O:4])[H:12])([C:5](=[O:6])[N:7]([H:13])[H:14])[H:11])([H:8])([H:9])[H:10]>>[C:1]([C@:2]1([C:3](=[O:4])[H:12])/[C:5](=[N:7]/[H:14])[O:6]1)([H:8])([H:9])[H:10].[H:11][H:13]"
C       -0.82092586      -1.09801608       0.76519811
C       -0.21577714       0.08768358       0.08626657
C       -1.06488873       1.33348975      -0.00250937
O       -2.25845852       1.27923254      -0.07109266
C        1.24562961       0.28996143       0.11087226
O        1.24927889       0.81285897       1.25361451
N        1.96610725      -0.04655632      -0.90643252
H       -0.92880421      -0.87840808       1.82901726
H       -1.81735000      -1.27461813       0.36098368
H       -0.20580323      -1.98869126       0.64936073
H       -0.27208415      -0.41691553      -1.55763685
H       -0.51186022       2.28856602      -0.01405942
H        0.67357575      -0.44577014      -1.75056747
H        2.96136056       0.05718324      -0.75301480
14
Frame=8 idx=009246 GeodesicLength=0.5557871462160974 rxn_smarts="[C:1]([C@@:2]([C:3](=[O:4])[H:12])([C:5](=[O:6])[N:7]([H:13])[H:14])[H:11])([H:8])([H:9])[H:10]>>[C:1]([C@:2]1([C:3](=[O:4])[H:12])/[C:5](=[N:7]/[H:14])[O:6]1)([H:8])([H:9])[H:10].[H:11][H:13]"
C       -0.82060932      -1.09656905       0.76643524
C       -0.21731766       0.09135355       0.08565369
C       -1.06748106       1.33636870       0.00484143
O       -2.26229886       1.28263191      -0.03898639
C        1.24487010       0.29043216       0.10636176
O        1.23839853       0.81687213       1.24706953
N        1.96683730      -0.05236303      -0.90997058
H       -0.94468895      -0.87548786       1.82798331
H       -1.81003404      -1.28402870       0.35018459
H       -0.19821460      -1.98366012       0.66155436
H       -0.26945044      -0.41196679      -1.56191808
H       -0.51625583       2.29255971      -0.02144296
H        0.69462321      -0.45085175      -1.76997106
H        2.96162162       0.04470914      -0.74779484
14
Frame=9 idx=009246 GeodesicLength=0.6252893030224024 rxn_smarts="[C:1]([C@@:2]([C:3](=[O:4])[H:12])([C:5](=[O:6])[N:7]([H:13])[H:14])[H:11])([H:8])([H:9])[H:10]>>[C:1]([C@:2]1([C:3](=[O:4])[H:12])/[C:5](=[N:7]/[H:14])[O:6]1)([H:8])([H:9])[H:10].[H:11][H:13]"
C       -0.82042345      -1.09504866       0.76770532
C       -0.21897933       0.09504695       0.08498982
C       -1.07016664       1.33924118       0.01210960
O       -2.26573431       1.28605251      -0.00675725
C        1.24397367       0.29092538       0.10173334
O        1.22760251       0.82083106       1.24035614
N        1.96759473      -0.05842863      -0.91337428
H       -0.96041625      -0.87277674       1.82682642
H       -1.80275087      -1.29308730       0.33977960
H       -0.19100881      -1.97850609       0.67361482
H       -0.26685975      -0.40709286      -1.56623338
H       -0.52104367       2.29649523      -0.02851442
H        0.71645885      -0.45633350      -1.78964212
H        2.96175331       0.03268147      -0.74259361
14
Frame=10 idx=009246 GeodesicLength=0.6948491585215425 rxn_smarts="[C:1]([C@@:2]([C:3](=[O:4])[H:12])([C:5](=[O:6])[N:7]([H:13])[H:14])[H:11])([H:8])([H:9])[H:10]>>[C:1]([C@:2]1([C:3](=[O:4])[H:12])/[C:5](=[N:7]/[H:14])[O:6]1)([H:8])([H:9])[H:10].[H:11][H:13]"
C       -0.82032971      -1.09345175       0.76899690
C       -0.22077544       0.09878962       0.08425874
C       -1.07299728       1.34211015       0.01931524
O       -2.26879301       1.28947739       0.02564375
C        1.24292026       0.29150886       0.09694670
O        1.21687470       0.82479775       1.23344275
N        1.96836583      -0.06465877      -0.91668038
H       -0.97593367      -0.87027328       1.82555166
H       -1.79547818      -1.30182995       0.32977006
H       -0.18411037      -1.97321110       0.68550631
H       -0.26437085      -0.40224954      -1.57059701
H       -0.52628038       2.30039924      -0.03528195
H        0.73915231      -0.46218366      -1.80960684
H        2.96175577       0.02077504      -0.73726591
14
Frame=11 idx=009246 GeodesicLength=0.7644591864128215 rxn_smarts="[C:1]([C@@:2]([C:3](=[O:4])[H:12])([C:5](=[O:6])[N:7]([H:13])[H:14])[H:11])([H:8])([H:9])[H:10]>>[C:1]([C@:2]1([C:3](=[O:4])[H:12])/[C:5](=[N:7]/[H:14])[O:6]1)([H:8])([H:9])[H:10].[H:11][H:13]"
C       -0.82034910      -1.09178263       0.77031252
C       -0.22271348       0.10257001       0.08346106
C       -1.07596059       1.34497819       0.02647297
O       -2.27145616       1.29293119       0.05820963
C        1.24170441       0.29214913       0.09200220
O        1.20621628       0.82873875       1.22633608
N        1.96914927      -0.07110871      -0.91986873
H       -0.99125902      -0.86797168       1.82417437
H       -1.78825174      -1.31025543       0.32015661
H       -0.17754185      -1.96779088       0.69722700
H       -0.26202398      -0.39743791      -1.57500631
H       -0.53192403       2.30427150      -0.04174661
H        0.76277783      -0.46846238      -1.82985454
H        2.96163217       0.00917085      -0.73187625
14
Frame=12 idx=009246 GeodesicLength=0.8341231445228813 rxn_smarts="[C:1]([C@@:2]([C:3](=[O:4])[H:12])([C:5](=[O:6])[N:7]([H:13])[H:14])[H:11])([H:8])([H:9])[H:10]>>[C:1]([C@:2]1([C:3](=[O:4])[H:12])/[C:5](=[N:7]/[H:14])[O:6]1)([H:8])([H:9])[H:10].[H:11][H:13]"
C       -0.82044970      -1.09003635       0.77164358
C       -0.22480648       0.10641154       0.08258345
C       -1.07909837       1.34785029       0.03360108
O       -2.27374331       1.29639851       0.09098325
C        1.24030726       0.29290374       0.08686227
O        1.19561436       0.83270524       1.21900783
N        1.96993350      -0.07770915      -0.92296791
H       -1.00634886      -0.86587362       1.82270048
H       -1.78105743      -1.31839074       0.31093454
H       -0.17124172      -1.96222732       0.70874962
H       -0.25987134      -0.39261729      -1.57947403
H       -0.53802639       2.30813462      -0.04790689
H        0.78741462      -0.47515747      -1.85040434
H        2.96137385      -0.00239200      -0.72631295
14
Frame=13 idx=009246 GeodesicLength=0.9038184992643555 rxn_smarts="[C:1]([C@@:2]([C:3](=[O:4])[H:12])([C:5](=[O:6])[N:7]([H:13])[H:14])[H:11])([H:8])([H:9])[H:10]>>[C:1]([C@:2]1([C:3](=[O:4])[H:12])/[C:5](=[N:7]/[H:14])[O:6]1)([H:8])([H:9])[H:10].[H:11][H:13]"
C       -0.82065383      -1.08821630       0.77299304
C       -0.22706250       0.11030348       0.08162694
C       -1.08239619       1.35073038       0.04071871
O       -2.27563687       1.29990834       0.12395037
C        1.23872254       0.29374028       0.08152283
O        1.18507281       0.83666081       1.21146281
N        1.97071475      -0.08452333      -0.92595865
H       -1.02122139      -0.86397544       1.82114434
H       -1.77393218      -1.32623327       0.30210132
H       -0.16523260      -1.95653472       0.72007619
H       -0.25795826      -0.38778196      -1.58399898
H       -0.54455205       2.31198964      -0.05374900
H        0.81315277      -0.48234771      -1.87124174
H        2.96098300      -0.01372019      -0.72064818
14
Frame=14 idx=009246 GeodesicLength=0.9735462083800237 rxn_smarts="[C:1]([C@@:2]([C:3](=[O:4])[H:12])([C:5](=[O:6])[N:7]([H:13])[H:14])[H:11])([H:8])([H:9])[H:10]>>[C:1]([C@:2]1([C:3](=[O:4])[H:12])/[C:5](=[N:7]/[H:14])[O:6]1)([H:8])([H:9])[H:10].[H:11][H:13]"
C       -0.82091322      -1.08631547       0.77434507
C       -0.22949917       0.11428108       0.08057058
C       -1.08591639       1.35362346       0.04784501
O       -2.27716321       1.30343327       0.15718165
C        1.23692396       0.29474774       0.07592860
O        1.17457135       0.84068384       1.20365760
N        1.97148056      -0.09144827      -0.92888021
H       -1.03581098      -0.86228050       1.81950965
H       -1.76684163      -1.33381545       0.29365755
H       -0.15942566      -1.95068374       0.73116218
H       -0.25634995      -0.38287109      -1.58860163
H       -0.55158348       2.31586709      -0.05927531
H        0.84009274      -0.49000941      -1.89239168
H        2.96043507      -0.02521254      -0.71470905
14
Frame=15 idx=009246 GeodesicLength=1.0432708832345694 rxn_smarts="[C:1]([C@@:2]([C:3](=[O:4])[H:12])([C:5](=[O:6])[N:7]([H:13])[H:14])[H:11])([H:8])([H:9])[H:10]>>[C:1]([C@:2]1([C:3](=[O:4])[H:12])/[C:5](=[N:7]/[H:14])[O:6]1)([H:8])([H:9])[H:10].[H:11][H:13]"
C       -0.82121400      -1.08433007       0.77569445
C       -0.23212958       0.11835858       0.07940507
C       -1.08968060       1.35653596       0.05500154
O       -2.27832952       1.30697130       0.19069992
C        1.23489479       0.29595675       0.07004574
O        1.16410415       0.84479523       1.19557058
N        1.97222185      -0.09846978      -0.93174437
H       -1.05009329      -0.86078955       1.81780628
H       -1.75978670      -1.34114944       0.28559991
H       -0.15378628      -1.94466472       0.74198613
H       -0.25510277      -0.37784553      -1.59329308
H       -0.55915014       2.31978363      -0.06446914
H        0.86834203      -0.49818037      -1.91385427
H        2.95971005      -0.03697198      -0.70844877
14
Frame=16 idx=009246 GeodesicLength=1.1129622157732157 rxn_smarts="[C:1]([C@@:2]([C:3](=[O:4])[H:12])([C:5](=[O:6])[N:7]([H:13])[H:14])[H:11])([H:8])([H:9])[H:10]>>[C:1]([C@:2]1([C:3](=[O:4])[H:12])/[C:5](=[N:7]/[H:14])[O:6]1)([H:8])([H:9])[H:10].[H:11][H:13]"
C       -0.82149288      -1.08224916       0.77702373
C       -0.23497328       0.12258195       0.07810612
C       -1.09376299       1.35947373       0.06220971
O       -2.27917297       1.31048379       0.22458041
C        1.23260480       0.29748343       0.06380311
O        1.15364916       0.84909499       1.18714585
N        1.97292278      -0.10546399      -0.93460324
H       -1.06398377      -0.85951085       1.81603828
H       -1.75271665      -1.34826936       0.27792801
H       -0.14820137      -1.93843574       0.75249943
H       -0.25428465      -0.37262744      -1.59810048
H       -0.56736454       2.32377635      -0.06932195
H        0.89801871      -0.50682565      -1.93565776
H        2.95875765      -0.04951205      -0.70165122
