11
Frame=0 idx=000184 GeodesicLength=0.0 rxn_smarts="[C:1]1([H:6])([H:7])[O:2][C:3]([H:8])([H:9])[C:4]([H:10])=[C:5]1[H:11]>>[C:1]1([H:6])=[C:5]=[C:4]([H:10])[C:3]([H:8])([H:9])[O:2]1.[H:7][H:11]"
C       -0.29562497      -0.98998144       0.43709575
O       -1.33570138      -0.20888597       0.41862441
C       -0.86998253       1.09864305      -0.01561782
C        0.61449641       0.93929213      -0.05742999
C        0.93656328      -0.34352949       0.22806532
H       -0.47013922      -2.03735844       0.64869933
H        1.13261297      -2.06844660      -0.91990910
H       -1.19189452       1.82205949       0.73605843
H       -1.38576912       1.31312720      -0.95836344
H        1.28578035       1.77097320      -0.21198853
H        1.57965868      -1.29589317      -0.30523439
11
Frame=1 idx=000184 GeodesicLength=0.07159630153443199 rxn_smarts="[C:1]1([H:6])([H:7])[O:2][C:3]([H:8])([H:9])[C:4]([H:10])=[C:5]1[H:11]>>[C:1]1([H:6])=[C:5]=[C:4]([H:10])[C:3]([H:8])([H:9])[O:2]1.[H:7][H:11]"
C       -0.30036109      -0.99789161       0.41287685
O       -1.34126845      -0.21129024       0.40389652
C       -0.87178648       1.09843758      -0.01328018
C        0.61277218       0.93907906      -0.04415265
C        0.93728034      -0.34235728       0.24310765
H       -0.47059690      -2.03206081       0.68571598
H        1.12356744      -2.06377280      -0.92947218
H       -1.19932304       1.81724776       0.74064761
H       -1.37607062       1.32400715      -0.95961302
H        1.28482559       1.76543321      -0.22331093
H        1.60096103      -1.29683203      -0.31641564
11
Frame=2 idx=000184 GeodesicLength=0.14323347589407368 rxn_smarts="[C:1]1([H:6])([H:7])[O:2][C:3]([H:8])([H:9])[C:4]([H:10])=[C:5]1[H:11]>>[C:1]1([H:6])=[C:5]=[C:4]([H:10])[C:3]([H:8])([H:9])[O:2]1.[H:7][H:11]"
C       -0.30402145      -1.00560659       0.39182391
O       -1.34623187      -0.21400186       0.38957871
C       -0.87345698       1.09759908      -0.01127232
C        0.61118653       0.93872495      -0.02981962
C        0.93795317      -0.34147540       0.25874085
H       -0.47133764      -2.02416415       0.72140880
H        1.11333819      -2.05813925      -0.93988568
H       -1.20748472       1.81229721       0.74398120
H       -1.36560428       1.33316640      -0.96150866
H        1.28384964       1.75911851      -0.23369159
H        1.62180941      -1.29751890      -0.32935559
11
Frame=3 idx=000184 GeodesicLength=0.2149383145818473 rxn_smarts="[C:1]1([H:6])([H:7])[O:2][C:3]([H:8])([H:9])[C:4]([H:10])=[C:5]1[H:11]>>[C:1]1([H:6])=[C:5]=[C:4]([H:10])[C:3]([H:8])([H:9])[O:2]1.[H:7][H:11]"
C       -0.30643652      -1.01298285       0.37486440
O       -1.35053174      -0.21702069       0.37573791
C       -0.87492162       1.09609442      -0.00975452
C        0.60979406       0.93832275      -0.01443454
C        0.93884720      -0.34073527       0.27500055
H       -0.47236518      -2.01451025       0.75560340
H        1.10133224      -2.05122006      -0.95129061
H       -1.21641797       1.80734650       0.74567882
H       -1.35420606       1.34033961      -0.96432631
H        1.28288232       1.75224671      -0.24271196
H        1.64202326      -1.29788086      -0.34436714
11
Frame=4 idx=000184 GeodesicLength=0.28670340125303706 rxn_smarts="[C:1]1([H:6])([H:7])[O:2][C:3]([H:8])([H:9])[C:4]([H:10])=[C:5]1[H:11]>>[C:1]1([H:6])=[C:5]=[C:4]([H:10])[C:3]([H:8])([H:9])[O:2]1.[H:7][H:11]"
C       -0.30781107      -1.02005892       0.36151567
O       -1.35424655      -0.22023995       0.36242943
C       -0.87620223       1.09404864      -0.00868525
C        0.60851103       0.93785500       0.00150384
C        0.93994693      -0.34004835       0.29176889
H       -0.47379550      -2.00370185       0.78827329
H        1.08793554      -2.04319112      -0.96326306
H       -1.22582325       1.80249374       0.74594201
H       -1.34214150       1.34582190      -0.96786089
H        1.28189924       1.74491782      -0.25038419
H        1.66172737      -1.29789689      -0.36123974
11
Frame=5 idx=000184 GeodesicLength=0.3584984365419502 rxn_smarts="[C:1]1([H:6])([H:7])[O:2][C:3]([H:8])([H:9])[C:4]([H:10])=[C:5]1[H:11]>>[C:1]1([H:6])=[C:5]=[C:4]([H:10])[C:3]([H:8])([H:9])[O:2]1.[H:7][H:11]"
C       -0.30838852      -1.02690783       0.35101968
O       -1.35747531      -0.22355730       0.34964598
C       -0.87734724       1.09159605      -0.00798038
C        0.60724656       0.93726773       0.01753585
C        0.94116640      -0.33938821       0.30892310
H       -0.47571172      -1.99206814       0.81950916
H        1.07367330      -2.03434141      -0.97532749
H       -1.23542792       1.79777556       0.74506950
H       -1.32971220       1.35000106      -0.97183075
H        1.28088777       1.73718047      -0.25681967
H        1.68108887      -1.29755798      -0.37974499
11
Frame=6 idx=000184 GeodesicLength=0.4303672163055096 rxn_smarts="[C:1]1([H:6])([H:7])[O:2][C:3]([H:8])([H:9])[C:4]([H:10])=[C:5]1[H:11]>>[C:1]1([H:6])=[C:5]=[C:4]([H:10])[C:3]([H:8])([H:9])[O:2]1.[H:7][H:11]"
C       -0.30834287      -1.03362140       0.34290333
O       -1.36030221      -0.22697914       0.33731460
C       -0.87837206       1.08880234      -0.00761225
C        0.60598337       0.93656923       0.03349317
C        0.94247255      -0.33873126       0.32643066
H       -0.47813698      -1.97984004       0.84962702
H        1.05875821      -2.02478512      -0.98733125
H       -1.24511422       1.79317871       0.74322963
H       -1.31701747       1.35310740      -0.97616344
H        1.27990010       1.72913775      -0.26206820
H        1.70017159      -1.29683846      -0.39982326
11
Frame=7 idx=000184 GeodesicLength=0.5022701009227899 rxn_smarts="[C:1]1([H:6])([H:7])[O:2][C:3]([H:8])([H:9])[C:4]([H:10])=[C:5]1[H:11]>>[C:1]1([H:6])=[C:5]=[C:4]([H:10])[C:3]([H:8])([H:9])[O:2]1.[H:7][H:11]"
C       -0.30778119      -1.04023916       0.33679167
O       -1.36275139      -0.23048406       0.32534933
C       -0.87927770       1.08569963      -0.00754722
C        0.60468329       0.93572794       0.04931316
C        0.94381109      -0.33807702       0.34428776
H       -0.48106921      -1.96707071       0.87885509
H        1.04336384      -2.01457961      -0.99914538
H       -1.25482719       1.78866809       0.74053191
H       -1.30407398       1.35528405      -0.98076046
H        1.27893310       1.72077403      -0.26620405
H        1.71898934      -1.29570317      -0.42147182
11
Frame=8 idx=000184 GeodesicLength=0.5742338345911755 rxn_smarts="[C:1]1([H:6])([H:7])[O:2][C:3]([H:8])([H:9])[C:4]([H:10])=[C:5]1[H:11]>>[C:1]1([H:6])=[C:5]=[C:4]([H:10])[C:3]([H:8])([H:9])[O:2]1.[H:7][H:11]"
C       -0.30680614      -1.04682485       0.33239010
O       -1.36487378      -0.23409067       0.31369988
C       -0.88007763       1.08232237      -0.00777175
C        0.60334355       0.93474761       0.06491781
C        0.94515859      -0.33742096       0.36248433
H       -0.48450717      -1.95385160       0.90739059
H        1.02760437      -2.00384404      -1.01064227
H       -1.26450820       1.78422461       0.73707029
H       -1.29094084       1.35666691      -0.98558996
H        1.27804394       1.71219215      -0.26923109
H        1.73756332      -1.29412153      -0.44471792
11
Frame=9 idx=000184 GeodesicLength=0.6462491043839951 rxn_smarts="[C:1]1([H:6])([H:7])[O:2][C:3]([H:8])([H:9])[C:4]([H:10])=[C:5]1[H:11]>>[C:1]1([H:6])=[C:5]=[C:4]([H:10])[C:3]([H:8])([H:9])[O:2]1.[H:7][H:11]"
C       -0.30548852      -1.05341078       0.32947699
O       -1.36669005      -0.23779905       0.30232962
C       -0.88077273       1.07869013      -0.00825826
C        0.60195465       0.93361885       0.08029175
C        0.94647862      -0.33675681       0.38106218
H       -0.48846356      -1.94022774       0.93532343
H        1.01159007      -1.99260846      -1.02173725
H       -1.27412349       1.77982750       0.73292008
H       -1.27763548       1.35734121      -0.99059868
H        1.27725249       1.70339246      -0.27126135
H        1.75589798      -1.29206731      -0.46954849
11
Frame=10 idx=000184 GeodesicLength=0.7183128564989125 rxn_smarts="[C:1]1([H:6])([H:7])[O:2][C:3]([H:8])([H:9])[C:4]([H:10])=[C:5]1[H:11]>>[C:1]1([H:6])=[C:5]=[C:4]([H:10])[C:3]([H:8])([H:9])[O:2]1.[H:7][H:11]"
C       -0.30387423      -1.06001976       0.32791075
O       -1.36820899      -0.24161939       0.29120359
C       -0.88135821       1.07480822      -0.00899796
C        0.60051243       0.93233957       0.09545530
C        0.94774668      -0.33607749       0.40005607
H       -0.49292683      -1.92622307       0.96275992
H        0.99536487      -1.98090370      -1.03236900
H       -1.28366714       1.77545769       0.72810792
H       -1.26413211       1.35734637      -0.99577509
H        1.27657990       1.69439930      -0.27232289
H        1.77396364      -1.28950773      -0.49602864
11
Frame=11 idx=000184 GeodesicLength=0.7904300941191797 rxn_smarts="[C:1]1([H:6])([H:7])[O:2][C:3]([H:8])([H:9])[C:4]([H:10])=[C:5]1[H:11]>>[C:1]1([H:6])=[C:5]=[C:4]([H:10])[C:3]([H:8])([H:9])[O:2]1.[H:7][H:11]"
C       -0.30199973      -1.06667841       0.32758742
O       -1.36943773      -0.24556919       0.28029570
C       -0.88182577       1.07068108      -0.00997910
C        0.59902346       0.93091379       0.11044940
C        0.94894367      -0.33537431       0.41954317
H       -0.49791785      -1.91188068       0.98976559
H        0.97897046      -1.96871365      -1.04249580
H       -1.29313317       1.77109751       0.72265635
H       -1.25041321       1.35671522      -1.00111006
H        1.27605557       1.68520260      -0.27251083
H        1.79173430      -1.28639395      -0.52420183
11
Frame=12 idx=000184 GeodesicLength=0.8626047420611597 rxn_smarts="[C:1]1([H:6])([H:7])[O:2][C:3]([H:8])([H:9])[C:4]([H:10])=[C:5]1[H:11]>>[C:1]1([H:6])=[C:5]=[C:4]([H:10])[C:3]([H:8])([H:9])[O:2]1.[H:7][H:11]"
C       -0.29988562      -1.07340298       0.32844466
O       -1.37037143      -0.24966836       0.26957322
C       -0.88216252       1.06630166      -0.01120545
C        0.59749032       0.92934503       0.12533011
C        0.95005398      -0.33463862       0.43957694
H       -0.50343018      -1.89720918       1.01642994
H        0.96241213      -1.95605714      -1.05206226
H       -1.30253444       1.76672751       0.71655106
H       -1.23642229       1.35544924      -1.00661867
H        1.27570348       1.67581642      -0.27181816
H        1.80914656      -1.28266358      -0.55420138
11
Frame=13 idx=000184 GeodesicLength=0.9348426427234235 rxn_smarts="[C:1]1([H:6])([H:7])[O:2][C:3]([H:8])([H:9])[C:4]([H:10])=[C:5]1[H:11]>>[C:1]1([H:6])=[C:5]=[C:4]([H:10])[C:3]([H:8])([H:9])[O:2]1.[H:7][H:11]"
C       -0.29754715      -1.08020955       0.33044016
O       -1.37100142      -0.25393898       0.25901095
C       -0.88235203       1.06166091      -0.01268104
C        0.59591902       0.92763685       0.14015537
C        0.95106179      -0.33385983       0.46023246
H       -0.50947455      -1.88222444       1.04281739
H        0.94569973      -1.94293343      -1.06101294
H       -1.31187923       1.76232863       0.70977158
H       -1.22210640       1.35354266      -1.01231586
H        1.27555141       1.66623755      -0.27025900
H        1.82612882      -1.27824037      -0.58615908
11
Frame=14 idx=000184 GeodesicLength=1.0071527293173623 rxn_smarts="[C:1]1([H:6])([H:7])[O:2][C:3]([H:8])([H:9])[C:4]([H:10])=[C:5]1[H:11]>>[C:1]1([H:6])=[C:5]=[C:4]([H:10])[C:3]([H:8])([H:9])[O:2]1.[H:7][H:11]"
C       -0.29499237      -1.08711226       0.33355290
O       -1.37131229      -0.25840619       0.24858399
C       -0.88237405       1.05674518      -0.01441618
C        0.59431451       0.92579356       0.15498890
C        0.95195089      -0.33302572       0.48158829
H       -0.51605826      -1.86693573       1.06899189
H        0.92883603      -1.92934630      -1.06928645
H       -1.32117892       1.75788249       0.70228062
H       -1.20739757       1.35097614      -1.01822571
H        1.27562659       1.65646672      -0.26781865
H        1.84258543      -1.27303789      -0.62023958
11
Frame=15 idx=000184 GeodesicLength=1.0795408878980561 rxn_smarts="[C:1]1([H:6])([H:7])[O:2][C:3]([H:8])([H:9])[C:4]([H:10])=[C:5]1[H:11]>>[C:1]1([H:6])=[C:5]=[C:4]([H:10])[C:3]([H:8])([H:9])[O:2]1.[H:7][H:11]"
C       -0.29222397      -1.09412158       0.33778167
O       -1.37128210      -0.26309652       0.23827057
C       -0.88220218       1.05153174      -0.01642841
C        0.59268261       0.92381442       0.16990687
C        0.95270596      -0.33212588       0.50372818
H       -0.52319185      -1.85133727       1.09501961
H        0.91181904      -1.91530436      -1.07680358
H       -1.33044768       1.75336737       0.69401447
H       -1.19220727       1.34770613      -1.02438153
H        1.27596117       1.64650088      -0.26444483
H        1.85838626      -1.26693493      -0.65666301
11
Frame=16 idx=000184 GeodesicLength=1.1520066535501763 rxn_smarts="[C:1]1([H:6])([H:7])[O:2][C:3]([H:8])([H:9])[C:4]([H:10])=[C:5]1[H:11]>>[C:1]1([H:6])=[C:5]=[C:4]([H:10])[C:3]([H:8])([H:9])[O:2]1.[H:7][H:11]"
C       -0.28926269      -1.10123423       0.34306367
O       -1.37090636      -0.26800683       0.22809062
C       -0.88182648       1.04603386      -0.01870207
C        0.59102188       0.92170690       0.18490038
C        0.95327733      -0.33112674       0.52675326
H       -0.53090665      -1.83550080       1.12080864
H        0.89476478      -1.90087374      -1.08341569
H       -1.33964804       1.74879431       0.68499132
H       -1.17653934       1.34375255      -1.03075448
H        1.27657380       1.63631681      -0.26022424
H        1.87345177      -1.25986209      -0.69551142
