18
Frame=0 idx=006810 GeodesicLength=0.0 rxn_smarts="[C:1]([C:2]([C:3]([C@@:4]([C:5]([H:16])([H:17])[H:18])([C:6]#[N:7])[H:15])([H:13])[H:14])([H:11])[H:12])([H:8])([H:9])[H:10]>>[C:1]([C:2]([C:3]([C@@:4]1([H:15])[C:5]([H:16])([H:18])/[C:6]1=[N:7]\[H:17])([H:13])[H:14])([H:11])[H:12])([H:8])([H:9])[H:10]"
C       -2.51678041      -0.23091009      -1.07346988
C       -1.51597040      -0.06539618       0.06202913
C       -0.08631798      -0.36875216      -0.37169441
C        0.92955679      -0.20305237       0.74146386
C        2.46271430      -0.19044388       0.34306596
C        1.40169834       1.09866521       1.05844323
N        1.77412012       2.22487664       1.31221943
H       -3.53402853      -0.01930495      -0.74088606
H       -2.28986005       0.44820822      -1.89865580
H       -2.50075745      -1.24933761      -1.46915305
H       -1.56442893       0.95613336       0.45218806
H       -1.78900464      -0.72404256       0.89296405
H       -0.01154512      -1.39754542      -0.73854751
H        0.19427396       0.28129388      -1.20635872
H        0.72214837      -0.82069586       1.61460421
H        2.59801575      -0.28925115      -0.72985731
H        2.66382679       1.41029108       0.80256791
H        3.06233909      -0.86073611       0.94907694
18
Frame=1 idx=006810 GeodesicLength=0.07782343835651159 rxn_smarts="[C:1]([C:2]([C:3]([C@@:4]([C:5]([H:16])([H:17])[H:18])([C:6]#[N:7])[H:15])([H:13])[H:14])([H:11])[H:12])([H:8])([H:9])[H:10]>>[C:1]([C:2]([C:3]([C@@:4]1([H:15])[C:5]([H:16])([H:18])/[C:6]1=[N:7]\[H:17])([H:13])[H:14])([H:11])[H:12])([H:8])([H:9])[H:10]"
C       -2.51616948      -0.22658393      -1.07260114
C       -1.51470637      -0.06735666       0.06322349
C       -0.08538109      -0.36902153      -0.37270517
C        0.93018091      -0.21071205       0.74196918
C        2.46118072      -0.18853675       0.34757802
C        1.39195129       1.09389244       1.07082069
N        1.76080009       2.22597445       1.30032273
H       -3.53296376      -0.01489471      -0.73865222
H       -2.28871242       0.45577522      -1.89497578
H       -2.50177033      -1.24336556      -1.47259213
H       -1.56224166       0.95213296       0.45869162
H       -1.78785765      -0.73004365       0.89091572
H       -0.01102161      -1.39552319      -0.74595929
H        0.19497220       0.28621888      -1.20343930
H        0.72239223      -0.83306257       1.61156570
H        2.60198043      -0.30735587      -0.72260992
H        2.67075741       1.41710739       0.77477158
H        3.06660909      -0.84464487       0.96367622
18
Frame=2 idx=006810 GeodesicLength=0.15565430731142932 rxn_smarts="[C:1]([C:2]([C:3]([C@@:4]([C:5]([H:16])([H:17])[H:18])([C:6]#[N:7])[H:15])([H:13])[H:14])([H:11])[H:12])([H:8])([H:9])[H:10]>>[C:1]([C:2]([C:3]([C@@:4]1([H:15])[C:5]([H:16])([H:18])/[C:6]1=[N:7]\[H:17])([H:13])[H:14])([H:11])[H:12])([H:8])([H:9])[H:10]"
C       -2.51554017      -0.22232221      -1.07172681
C       -1.51345406      -0.06929021       0.06440266
C       -0.08442964      -0.36916143      -0.37369702
C        0.93079494      -0.21814218       0.74246071
C        2.45959289      -0.18643518       0.35203706
C        1.38212026       1.08922456       1.08321072
N        1.74762311       2.22652414       1.28878064
H       -3.53189725      -0.01061564      -0.73642724
H       -2.28757847       0.46326169      -1.89128977
H       -2.50269243      -1.23744582      -1.47599457
H       -1.56014934       0.94813636       0.46514601
H       -1.78668708      -0.73600375       0.88884262
H       -0.01041487      -1.39333501      -0.75331465
H        0.19566491       0.29125144      -1.20047410
H        0.72270348      -0.84527773       1.60843607
H        2.60604284      -0.32566645      -0.71494445
H        2.67775878       1.42359130       0.74651019
H        3.07054211      -0.82829388       0.97804192
18
Frame=3 idx=006810 GeodesicLength=0.23348770682603792 rxn_smarts="[C:1]([C:2]([C:3]([C@@:4]([C:5]([H:16])([H:17])[H:18])([C:6]#[N:7])[H:15])([H:13])[H:14])([H:11])[H:12])([H:8])([H:9])[H:10]>>[C:1]([C:2]([C:3]([C@@:4]1([H:15])[C:5]([H:16])([H:18])/[C:6]1=[N:7]\[H:17])([H:13])[H:14])([H:11])[H:12])([H:8])([H:9])[H:10]"
C       -2.51490263      -0.21813877      -1.07085387
C       -1.51222568      -0.07120357       0.06556214
C       -0.08347261      -0.36916763      -0.37467094
C        0.93138899      -0.22533167       0.74293913
C        2.45793863      -0.18412185       0.35643729
C        1.37217377       1.08467702       1.09560543
N        1.73469137       2.22652209       1.27763957
H       -3.53084092      -0.00648603      -0.73422039
H       -2.28647130       0.47065461      -1.88760519
H       -2.50352713      -1.23159327      -1.47936615
H       -1.55817306       0.94413715       0.47154643
H       -1.78550060      -0.74193145       0.88674035
H       -0.00972680      -1.39097730      -0.76061353
H        0.19633701       0.29639389      -1.19746771
H        0.72307585      -0.85732403       1.60521908
H        2.61019229      -0.34414880      -0.70683993
H        2.68491695       1.42972355       0.71778600
H        3.07412586      -0.81168394       0.99216230
18
Frame=4 idx=006810 GeodesicLength=0.3113193267461749 rxn_smarts="[C:1]([C:2]([C:3]([C@@:4]([C:5]([H:16])([H:17])[H:18])([C:6]#[N:7])[H:15])([H:13])[H:14])([H:11])[H:12])([H:8])([H:9])[H:10]>>[C:1]([C:2]([C:3]([C@@:4]1([H:15])[C:5]([H:16])([H:18])/[C:6]1=[N:7]\[H:17])([H:13])[H:14])([H:11])[H:12])([H:8])([H:9])[H:10]"
C       -2.51426600      -0.21404497      -1.06998905
C       -1.51103321      -0.07310524       0.06669888
C       -0.08251824      -0.36903452      -0.37562690
C        0.93195303      -0.23227270       0.74340765
C        2.45620601      -0.18158072       0.36077738
C        1.36207954       1.08025924       1.10800908
N        1.72210151       2.22596978       1.26692555
H       -3.52980615      -0.00252447      -0.73204039
H       -2.28540332       0.47794730      -1.88392590
H       -2.50427561      -1.22581847      -1.48271700
H       -1.55633466       0.94012527       0.47789404
H       -1.78430554      -0.74784094       0.88460269
H       -0.00895753      -1.38844295      -0.76785984
H        0.19697435       0.30165501      -1.19441949
H        0.72350241      -0.86919177       1.60191780
H        2.61441861      -0.36277206      -0.69827032
H        2.69231551       1.43548728       0.68858324
H        3.07734931      -0.79481506       1.00603258
18
Frame=5 idx=006810 GeodesicLength=0.389145461919206 rxn_smarts="[C:1]([C:2]([C:3]([C@@:4]([C:5]([H:16])([H:17])[H:18])([C:6]#[N:7])[H:15])([H:13])[H:14])([H:11])[H:12])([H:8])([H:9])[H:10]>>[C:1]([C:2]([C:3]([C@@:4]1([H:15])[C:5]([H:16])([H:18])/[C:6]1=[N:7]\[H:17])([H:13])[H:14])([H:11])[H:12])([H:8])([H:9])[H:10]"
C       -2.51363884      -0.21005160      -1.06913866
C       -1.50988812      -0.07500316       0.06781044
C       -0.08157416      -0.36875449      -0.37656431
C        0.93247717      -0.23895981       0.74387102
C        2.45438341      -0.17879607       0.36505849
C        1.35180482       1.07597553       1.12043672
N        1.70994414       2.22486881       1.25665300
H       -3.52880374       0.00125141      -0.72989580
H       -2.28438606       0.48513307      -1.88025569
H       -2.50493873      -1.22013162      -1.48605626
H       -1.55465588       0.93609082       0.48419136
H       -1.78310850      -0.75374652       0.88242349
H       -0.00810605      -1.38572127      -0.77506082
H        0.19756374       0.30704949      -1.19132485
H        0.72397638      -0.88087832       1.59853339
H        2.61871203      -0.38150468      -0.68920690
H        2.70003595       1.44086575       0.65887429
H        3.08020243      -0.77768735       1.01965108
18
Frame=6 idx=006810 GeodesicLength=0.46696394473989467 rxn_smarts="[C:1]([C:2]([C:3]([C@@:4]([C:5]([H:16])([H:17])[H:18])([C:6]#[N:7])[H:15])([H:13])[H:14])([H:11])[H:12])([H:8])([H:9])[H:10]>>[C:1]([C:2]([C:3]([C@@:4]1([H:15])[C:5]([H:16])([H:18])/[C:6]1=[N:7]\[H:17])([H:13])[H:14])([H:11])[H:12])([H:8])([H:9])[H:10]"
C       -2.51302880      -0.20616742      -1.06830875
C       -1.50880166      -0.07690683       0.06889569
C       -0.08064735      -0.36831888      -0.37748159
C        0.93295164      -0.24538827       0.74433567
C        2.45245954      -0.17575258       0.36928430
C        1.34131662       1.07182774       1.13290966
N        1.69830373       2.22322252       1.24682206
H       -3.52784412       0.00482286      -0.72779452
H       -2.28343082       0.49221139      -1.87659470
H       -2.50551472      -1.21453891      -1.48939752
H       -1.55315932       0.93202062       0.49044603
H       -1.78191567      -0.75966742       0.88019500
H       -0.00716958      -1.38279918      -0.78222544
H        0.19809237       0.31259602      -1.18817568
H        0.72449093      -0.89238392       1.59506705
H        2.62306318      -0.40031794      -0.67961758
H        2.70815822       1.44583982       0.62861921
H        3.08267581      -0.76029960       1.03302110
18
Frame=7 idx=006810 GeodesicLength=0.5447773883421712 rxn_smarts="[C:1]([C:2]([C:3]([C@@:4]([C:5]([H:16])([H:17])[H:18])([C:6]#[N:7])[H:15])([H:13])[H:14])([H:11])[H:12])([H:8])([H:9])[H:10]>>[C:1]([C:2]([C:3]([C@@:4]1([H:15])[C:5]([H:16])([H:18])/[C:6]1=[N:7]\[H:17])([H:13])[H:14])([H:11])[H:12])([H:8])([H:9])[H:10]"
C       -2.51244330      -0.20240169      -1.06750526
C       -1.50778491      -0.07882435       0.06995411
C       -0.07974428      -0.36771740      -0.37837738
C        0.93336685      -0.25155394       0.74480898
C        2.45042357      -0.17243462       0.37345856
C        1.33058127       1.06781668       1.14545544
N        1.68726009       2.22103367       1.23743226
H       -3.52693764       0.00817204      -0.72574418
H       -2.28254847       0.49917980      -1.87294557
H       -2.50600182      -1.20904910      -1.49275224
H       -1.55186798       0.92790427       0.49666566
H       -1.78073266      -0.76562146       0.87791165
H       -0.00614413      -1.37966207      -0.78936520
H        0.19854794       0.31831766      -1.18496319
H        0.72503964      -0.90371316       1.59151962
H        2.62746330      -0.41918189      -0.66947120
H        2.71676221       1.45038749       0.59777112
H        3.08476032      -0.74265194       1.04614683
18
Frame=8 idx=006810 GeodesicLength=0.6226105900123444 rxn_smarts="[C:1]([C:2]([C:3]([C@@:4]([C:5]([H:16])([H:17])[H:18])([C:6]#[N:7])[H:15])([H:13])[H:14])([H:11])[H:12])([H:8])([H:9])[H:10]>>[C:1]([C:2]([C:3]([C@@:4]1([H:15])[C:5]([H:16])([H:18])/[C:6]1=[N:7]\[H:17])([H:13])[H:14])([H:11])[H:12])([H:8])([H:9])[H:10]"
C       -2.51189117      -0.19876140      -1.06673752
C       -1.50684912      -0.08076192       0.07098913
C       -0.07886978      -0.36694048      -0.37925273
C        0.93371599      -0.25745533       0.74530373
C        2.44826776      -0.16883080       0.37758456
C        1.31956279       1.06394827       1.15811170
N        1.67688050       2.21831793       1.22848897
H       -3.52609744       0.01128532      -0.72375112
H       -2.28175516       0.50604341      -1.86932145
H       -2.50639539      -1.20367572      -1.49613863
H       -1.55080940       0.92374018       0.50286555
H       -1.77956145      -0.77162993       0.87557890
H       -0.00501948      -1.37630254      -0.79649884
H        0.19891607       0.32424353      -1.18168674
H        0.72562244      -0.91487971       1.58790374
H        2.63190769      -0.43807625      -0.65874447
H        2.72592238       1.45448796       0.56626546
H        3.08645279      -0.72475253       1.05903974
18
Frame=9 idx=006810 GeodesicLength=0.7003194785719594 rxn_smarts="[C:1]([C:2]([C:3]([C@@:4]([C:5]([H:16])([H:17])[H:18])([C:6]#[N:7])[H:15])([H:13])[H:14])([H:11])[H:12])([H:8])([H:9])[H:10]>>[C:1]([C:2]([C:3]([C@@:4]1([H:15])[C:5]([H:16])([H:18])/[C:6]1=[N:7]\[H:17])([H:13])[H:14])([H:11])[H:12])([H:8])([H:9])[H:10]"
C       -2.51137906      -0.19527501      -1.06599555
C       -1.50600319      -0.08272407       0.07198041
C       -0.07803745      -0.36595716      -0.38009495
C        0.93398246      -0.26306543       0.74580195
C        2.44596891      -0.16490175       0.38167016
C        1.30823899       1.06019625       1.17087651
N        1.66728090       2.21495430       1.21994368
H       -3.52532622       0.01412046      -0.72183056
H       -2.28105390       0.51274038      -1.86569205
H       -2.50670800      -1.19842177      -1.49951846
H       -1.54999091       0.91949224       0.50900490
H       -1.77840992      -0.77767260       0.87314763
H       -0.00381293      -1.37264718      -0.80361055
H        0.19918321       0.33039342      -1.17829062
H        0.72621930      -0.92584345       1.58415505
H        2.63636622      -0.45689292      -0.64736801
H        2.73576116       1.45807554       0.53414882
H        3.08772042      -0.70657125       1.07167162
18
Frame=10 idx=006810 GeodesicLength=0.7780845924438938 rxn_smarts="[C:1]([C:2]([C:3]([C@@:4]([C:5]([H:16])([H:17])[H:18])([C:6]#[N:7])[H:15])([H:13])[H:14])([H:11])[H:12])([H:8])([H:9])[H:10]>>[C:1]([C:2]([C:3]([C@@:4]1([H:15])[C:5]([H:16])([H:18])/[C:6]1=[N:7]\[H:17])([H:13])[H:14])([H:11])[H:12])([H:8])([H:9])[H:10]"
C       -2.51090525      -0.19190246      -1.06530311
C       -1.50526034      -0.08475499       0.07295995
C       -0.07724251      -0.36478291      -0.38090256
C        0.93416359      -0.26839612       0.74635124
C        2.44353143      -0.16065978       0.38573379
C        1.29656239       1.05660069       1.18379907
N        1.65847402       2.21107843       1.21177511
H       -3.52463831       0.01666886      -0.71997555
H       -2.28046280       0.51942653      -1.86203586
H       -2.50688873      -1.19323655      -1.50303369
H       -1.54946291       0.91511667       0.51520946
H       -1.77728292      -0.78388381       0.87062679
H       -0.00248198      -1.36873919      -0.81073578
H        0.19933699       0.33679746      -1.17479349
H        0.72683709      -0.93663829       1.58035976
H        2.64085692      -0.47575002      -0.63530750
H        2.74628139       1.46114948       0.50113308
H        3.08858193      -0.68809399       1.08413930
18
Frame=11 idx=006810 GeodesicLength=0.8558236365664866 rxn_smarts="[C:1]([C:2]([C:3]([C@@:4]([C:5]([H:16])([H:17])[H:18])([C:6]#[N:7])[H:15])([H:13])[H:14])([H:11])[H:12])([H:8])([H:9])[H:10]>>[C:1]([C:2]([C:3]([C@@:4]1([H:15])[C:5]([H:16])([H:18])/[C:6]1=[N:7]\[H:17])([H:13])[H:14])([H:11])[H:12])([H:8])([H:9])[H:10]"
C       -2.51048624      -0.18868841      -1.06466307
C       -1.50463263      -0.08682694       0.07391461
C       -0.07649680      -0.36338875      -0.38167848
C        0.93425022      -0.27343037       0.74694469
C        2.44093913      -0.15607458       0.38975637
C        1.28450089       1.05315918       1.19691440
N        1.65055772       2.20661482       1.20402696
H       -3.52404967       0.01890869      -0.71820397
H       -2.27999791       0.52599838      -1.85840529
H       -2.50696143      -1.18819542      -1.50661425
H       -1.54924399       0.91065995       0.52141588
H       -1.77618023      -0.79019738       0.86803621
H       -0.00103716      -1.36454411      -0.81787873
H        0.19935943       0.34348695      -1.17119254
H        0.72747714      -0.94726471       1.57649101
H        2.64535430      -0.49451044      -0.62257210
H        2.75762606       1.46365046       0.46732778
H        3.08902115      -0.66935733       1.09638053
18
Frame=12 idx=006810 GeodesicLength=0.9335527474622562 rxn_smarts="[C:1]([C:2]([C:3]([C@@:4]([C:5]([H:16])([H:17])[H:18])([C:6]#[N:7])[H:15])([H:13])[H:14])([H:11])[H:12])([H:8])([H:9])[H:10]>>[C:1]([C:2]([C:3]([C@@:4]1([H:15])[C:5]([H:16])([H:18])/[C:6]1=[N:7]\[H:17])([H:13])[H:14])([H:11])[H:12])([H:8])([H:9])[H:10]"
C       -2.51011417      -0.18560681      -1.06406774
C       -1.50412653      -0.08900203       0.07484260
C       -0.07580505      -0.36175720      -0.38239934
C        0.93422929      -0.27813685       0.74758565
C        2.43817959      -0.15111408       0.39377258
C        1.27203074       1.04986675       1.21019628
N        1.64359159       2.20153656       1.19660260
H       -3.52355674       0.02077846      -0.71651567
H       -2.27966428       0.53256022      -1.85467290
H       -2.50688722      -1.18318453      -1.51035796
H       -1.54935751       0.90598207       0.52770004
H       -1.77510737      -0.79673352       0.86527093
H        0.00053400      -1.35999428      -0.82503078
H        0.19923435       0.35048244      -1.16741261
H        0.72811794      -0.95765621       1.57252573
H        2.64984808      -0.51323800      -0.60901054
H        2.76984020       1.46546507       0.43249924
H        3.08901308      -0.65024807       1.10847190
18
Frame=13 idx=006810 GeodesicLength=1.0112959701825712 rxn_smarts="[C:1]([C:2]([C:3]([C@@:4]([C:5]([H:16])([H:17])[H:18])([C:6]#[N:7])[H:15])([H:13])[H:14])([H:11])[H:12])([H:8])([H:9])[H:10]>>[C:1]([C:2]([C:3]([C@@:4]1([H:15])[C:5]([H:16])([H:18])/[C:6]1=[N:7]\[H:17])([H:13])[H:14])([H:11])[H:12])([H:8])([H:9])[H:10]"
C       -2.50980709      -0.18267665      -1.06353459
C       -1.50375879      -0.09127187       0.07575890
C       -0.07517172      -0.35987780      -0.38307941
C        0.93409656      -0.28250634       0.74829492
C        2.43525023      -0.14577902       0.39776125
C        1.25911027       1.04677614       1.22368612
N        1.63761875       2.19587372       1.18951592
H       -3.52318675       0.02226618      -0.71490768
H       -2.27949792       0.53910725      -1.85090505
H       -2.50665841      -1.17826883      -1.51427945
H       -1.54984882       0.90113259       0.53408169
H       -1.77406049      -0.80350453       0.86238890
H        0.00225428      -1.35511263      -0.83222777
H        0.19893669       0.35782938      -1.16349892
H        0.72876704      -0.96783131       1.56851794
H        2.65433635      -0.53187241      -0.59466937
H        2.78306410       1.46655305       0.39669360
H        3.08855572      -0.63083692       1.12040300
18
Frame=14 idx=006810 GeodesicLength=1.0890240117869878 rxn_smarts="[C:1]([C:2]([C:3]([C@@:4]([C:5]([H:16])([H:17])[H:18])([C:6]#[N:7])[H:15])([H:13])[H:14])([H:11])[H:12])([H:8])([H:9])[H:10]>>[C:1]([C:2]([C:3]([C@@:4]1([H:15])[C:5]([H:16])([H:18])/[C:6]1=[N:7]\[H:17])([H:13])[H:14])([H:11])[H:12])([H:8])([H:9])[H:10]"
C       -2.50957596      -0.17992435      -1.06305802
C       -1.50353890      -0.09363783       0.07665014
C       -0.07460691      -0.35771993      -0.38371301
C        0.93384245      -0.28650629       0.74906158
C        2.43213815      -0.14003802       0.40171458
C        1.24571519       1.04388807       1.23737514
N        1.63269315       2.18956336       1.18277112
H       -3.52295093       0.02332720      -0.71338832
H       -2.27951955       0.54559378      -1.84708616
H       -2.50627739      -1.17345986      -1.51835439
H       -1.55073712       0.89609084       0.54053273
H       -1.77303780      -0.81049697       0.85936226
H        0.00412153      -1.34984177      -0.83946227
H        0.19844461       0.36555380      -1.15942095
H        0.72941746      -0.97774579       1.56443397
H        2.65879613      -0.55031348      -0.57951246
H        2.79745214       1.46678658       0.35994425
H        3.08762377      -0.61111933       1.13214982
18
Frame=15 idx=006810 GeodesicLength=1.1667030636987805 rxn_smarts="[C:1]([C:2]([C:3]([C@@:4]([C:5]([H:16])([H:17])[H:18])([C:6]#[N:7])[H:15])([H:13])[H:14])([H:11])[H:12])([H:8])([H:9])[H:10]>>[C:1]([C:2]([C:3]([C@@:4]1([H:15])[C:5]([H:16])([H:18])/[C:6]1=[N:7]\[H:17])([H:13])[H:14])([H:11])[H:12])([H:8])([H:9])[H:10]"
C       -2.50944005      -0.17739732      -1.06263479
C       -1.50347494      -0.09607913       0.07750115
C       -0.07412432      -0.35524996      -0.38430496
C        0.93346087      -0.29010270       0.74987050
C        2.42883104      -0.13385793       0.40560361
C        1.23182722       1.04121065       1.25126501
N        1.62885075       2.18255968       1.17641769
H       -3.52286327       0.02393153      -0.71197108
H       -2.27975711       0.55191322      -1.84325191
H       -2.50577254      -1.16882410      -1.52251080
H       -1.55203444       0.89088488       0.54699235
H       -1.77203054      -0.81765081       0.85619792
H        0.00612380      -1.34413546      -0.84673638
H        0.19773014       0.37368626      -1.15517164
H        0.73007232      -0.98736864       1.56023906
H        2.66319333      -0.56841558      -0.56356527
H        2.81321339       1.46603227       0.32240831
H        3.08619434      -0.59113686       1.14365123
18
Frame=16 idx=006810 GeodesicLength=1.2444082083825831 rxn_smarts="[C:1]([C:2]([C:3]([C@@:4]([C:5]([H:16])([H:17])[H:18])([C:6]#[N:7])[H:15])([H:13])[H:14])([H:11])[H:12])([H:8])([H:9])[H:10]>>[C:1]([C:2]([C:3]([C@@:4]1([H:15])[C:5]([H:16])([H:18])/[C:6]1=[N:7]\[H:17])([H:13])[H:14])([H:11])[H:12])([H:8])([H:9])[H:10]"
C       -2.50939394      -0.17506682      -1.06227213
C       -1.50357466      -0.09863815       0.07833197
C       -0.07372215      -0.35246863      -0.38484923
C        0.93294845      -0.29327620       0.75074389
C        2.42533061      -0.12723165       0.40942420
C        1.21741911       1.03879790       1.26534109
N        1.62605652       2.17491713       1.17041603
H       -3.52293136       0.02403251      -0.71063838
H       -2.28022947       0.55819980      -1.83934167
H       -2.50508736      -1.16429794      -1.52686935
H       -1.55377670       0.88545156       0.55355701
H       -1.77103765      -0.82508192       0.85287377
H        0.00828989      -1.33800204      -0.85405874
H        0.19677579       0.38224698      -1.15075388
H        0.73072842      -0.99666584       1.55598919
H        2.66752900      -0.58624631      -0.54677854
H        2.83041457       1.46418325       0.28392176
H        3.08426091      -0.57085364       1.15496302
