19
Frame=0 idx=008666 GeodesicLength=0.0 rxn_smarts="[C:1]([C:2]1([O:3][H:11])[C:4]([H:12])([H:13])[C:5]([H:14])([H:15])[C:6]([H:16])([H:17])[C:7]1([H:18])[H:19])([H:8])([H:9])[H:10]>>[C:1](=[C:2]([O:3][H:11])[C:4]([C:5]([C:6]([C:7]([H:10])([H:18])[H:19])([H:16])[H:17])([H:14])[H:15])([H:12])[H:13])([H:8])[H:9]"
C        1.97395376      -0.47060551      -0.74066364
C        1.01674220       0.15663873       0.13446365
O        1.25941473       0.25871993       1.45637673
C        0.09405862       1.22865463      -0.37033852
C       -1.28916914       1.08938730       0.24931966
C       -1.74971658      -0.33373117      -0.06727071
C       -0.60485433      -1.27519662       0.24460925
H        2.77974683      -1.03054868      -0.28035256
H        2.15607546      -0.01016498      -1.70107704
H        0.72622027      -1.09381526      -0.47553678
H        2.06794018      -0.22105768       1.65643367
H        0.57132734       2.18204404      -0.13124016
H        0.02974819       1.14503733      -1.45712818
H       -1.22246563       1.23594253       1.33077968
H       -1.97325622       1.84553423      -0.14157882
H       -2.00011107      -0.39360775      -1.13180163
H       -2.66646756      -0.57660585       0.47964925
H       -0.63661693      -2.19573994      -0.35347886
H       -0.53257014      -1.54088537       1.29883508
19
Frame=1 idx=008666 GeodesicLength=0.10219977239696613 rxn_smarts="[C:1]([C:2]1([O:3][H:11])[C:4]([H:12])([H:13])[C:5]([H:14])([H:15])[C:6]([H:16])([H:17])[C:7]1([H:18])[H:19])([H:8])([H:9])[H:10]>>[C:1](=[C:2]([O:3][H:11])[C:4]([C:5]([C:6]([C:7]([H:10])([H:18])[H:19])([H:16])[H:17])([H:14])[H:15])([H:12])[H:13])([H:8])[H:9]"
C        1.98075274      -0.47041001      -0.73135048
C        1.01161141       0.14797697       0.13501174
O        1.25032037       0.25663717       1.46019890
C        0.09669167       1.22518906      -0.37369287
C       -1.28562877       1.09286773       0.25040200
C       -1.75631800      -0.32844468      -0.05887666
C       -0.61298514      -1.28013788       0.23189163
H        2.81393882      -0.98573832      -0.26742427
H        2.14059301      -0.03282132      -1.70663667
H        0.75018514      -1.15601604      -0.44533899
H        2.08672325      -0.17219918       1.65993640
H        0.57616013       2.17837715      -0.13773384
H        0.03037764       1.13949065      -1.46022405
H       -1.21766674       1.24220688       1.33131554
H       -1.96713948       1.85136965      -0.14036067
H       -2.02538911      -0.38467421      -1.11906309
H       -2.66552015      -0.56665240       0.50215587
H       -0.64959086      -2.17249071      -0.40665700
H       -0.55711594      -1.58453053       1.27644649
19
Frame=2 idx=008666 GeodesicLength=0.20413846543100517 rxn_smarts="[C:1]([C:2]1([O:3][H:11])[C:4]([H:12])([H:13])[C:5]([H:14])([H:15])[C:6]([H:16])([H:17])[C:7]1([H:18])[H:19])([H:8])([H:9])[H:10]>>[C:1](=[C:2]([O:3][H:11])[C:4]([C:5]([C:6]([C:7]([H:10])([H:18])[H:19])([H:16])[H:17])([H:14])[H:15])([H:12])[H:13])([H:8])[H:9]"
C        1.98529248      -0.47263439      -0.72232337
C        1.00664150       0.13988167       0.13557545
O        1.24219618       0.25477374       1.46391046
C        0.09947280       1.22242559      -0.37661351
C       -1.28195064       1.09622670       0.25170071
C       -1.76214009      -0.32332815      -0.05078462
C       -0.62024869      -1.28489370       0.21833429
H        2.84538330      -0.93998784      -0.25634785
H        2.12325705      -0.05962196      -1.71193424
H        0.77483123      -1.21916503      -0.40891810
H        2.10389589      -0.12076558       1.66218755
H        0.58109395       2.17528252      -0.14330899
H        0.03136397       1.13510813      -1.46292900
H       -1.21275976       1.24795055       1.33211983
H       -1.96113902       1.85693224      -0.13873520
H       -2.04977007      -0.37539106      -1.10632343
H       -2.66339525      -0.55762434       0.52417632
H       -0.65923882      -2.14608771      -0.46096863
H       -0.58278603      -1.62908139       1.25118231
19
Frame=3 idx=008666 GeodesicLength=0.30582230765274576 rxn_smarts="[C:1]([C:2]1([O:3][H:11])[C:4]([H:12])([H:13])[C:5]([H:14])([H:15])[C:6]([H:16])([H:17])[C:7]1([H:18])[H:19])([H:8])([H:9])[H:10]>>[C:1](=[C:2]([O:3][H:11])[C:4]([C:5]([C:6]([C:7]([H:10])([H:18])[H:19])([H:16])[H:17])([H:14])[H:15])([H:12])[H:13])([H:8])[H:9]"
C        1.98749937      -0.47753438      -0.71353832
C        1.00185265       0.13255157       0.13612344
O        1.23524560       0.25340891       1.46744655
C        0.10236879       1.22050691      -0.37914508
C       -1.27817721       1.09944952       0.25316094
C       -1.76706906      -0.31850678      -0.04292982
C       -0.62643833      -1.28940211       0.20426771
H        2.87340196      -0.89431225      -0.24752865
H        2.10448348      -0.09009193      -1.71651488
H        0.79922906      -1.28234558      -0.36681553
H        2.11906244      -0.06759903       1.66305905
H        0.58604950       2.17292529      -0.14799628
H        0.03273723       1.13204398      -1.46529529
H       -1.20778911       1.25324644       1.33312976
H       -1.95539217       1.86209387      -0.13681895
H       -2.07303082      -0.36609629      -1.09353446
H       -2.66001219      -0.54967312       0.54572598
H       -0.66452268      -2.11629622      -0.51589998
H       -0.60949851      -1.67436882       1.22310380
19
Frame=4 idx=008666 GeodesicLength=0.4072821000696937 rxn_smarts="[C:1]([C:2]1([O:3][H:11])[C:4]([H:12])([H:13])[C:5]([H:14])([H:15])[C:6]([H:16])([H:17])[C:7]1([H:18])[H:19])([H:8])([H:9])[H:10]>>[C:1](=[C:2]([O:3][H:11])[C:4]([C:5]([C:6]([C:7]([H:10])([H:18])[H:19])([H:16])[H:17])([H:14])[H:15])([H:12])[H:13])([H:8])[H:9]"
C        1.98749539      -0.48508463      -0.70491153
C        0.99727964       0.12618247       0.13661057
O        1.22960869       0.25280596       1.47073840
C        0.10533608       1.21954304      -0.38136363
C       -1.27436416       1.10252172       0.25469429
C       -1.77100914      -0.31411189      -0.03523051
C       -0.63138884      -1.29362743       0.19015808
H        2.89746893      -0.84989317      -0.24121776
H        2.08490163      -0.12328953      -1.71994099
H        0.82229805      -1.34455562      -0.32037393
H        2.13193834      -0.01384692       1.66252644
H        0.59091906       2.17145415      -0.15187650
H        0.03451121       1.13039316      -1.46740540
H       -1.20281703       1.25821377       1.33424329
H       -1.95004718       1.86671412      -0.13479499
H       -2.09492384      -0.35721223      -1.08065275
H       -2.65534228      -0.54288949       0.56682056
H       -0.66476440      -2.08318348      -0.57044302
H       -0.63710016      -1.72013402       1.19241938
19
Frame=5 idx=008666 GeodesicLength=0.5085897101123361 rxn_smarts="[C:1]([C:2]1([O:3][H:11])[C:4]([H:12])([H:13])[C:5]([H:14])([H:15])[C:6]([H:16])([H:17])[C:7]1([H:18])[H:19])([H:8])([H:9])[H:10]>>[C:1](=[C:2]([O:3][H:11])[C:4]([C:5]([C:6]([C:7]([H:10])([H:18])[H:19])([H:16])[H:17])([H:14])[H:15])([H:12])[H:13])([H:8])[H:9]"
C        1.98557602      -0.49498174      -0.69633695
C        0.99295138       0.12089832       0.13699470
O        1.22530817       0.25309143       1.47373181
C        0.10832868       1.21957097      -0.38334607
C       -1.27056453       1.10543583       0.25620646
C       -1.77391182      -0.31023434      -0.02761889
C       -0.63503084      -1.29756797       0.17650503
H        2.91738749      -0.80775131      -0.23744708
H        2.06519632      -0.15800584      -1.72190250
H        0.84305044      -1.40505587      -0.27139828
H        2.14248024       0.03943434       1.66062969
H        0.59558961       2.17094737      -0.15504594
H        0.03667961       1.13016027      -1.46933221
H       -1.19790725       1.26298011       1.33534203
H       -1.94521546       1.87069061      -0.13285333
H       -2.11521304      -0.34913160      -1.06766916
H       -2.64943730      -0.53725460       0.58743373
H       -0.65985720      -2.04714382      -0.62327468
H       -0.66541054      -1.76608215       1.15938162
19
Frame=6 idx=008666 GeodesicLength=0.6097858151160165 rxn_smarts="[C:1]([C:2]1([O:3][H:11])[C:4]([H:12])([H:13])[C:5]([H:14])([H:15])[C:6]([H:16])([H:17])[C:7]1([H:18])[H:19])([H:8])([H:9])[H:10]>>[C:1](=[C:2]([O:3][H:11])[C:4]([C:5]([C:6]([C:7]([H:10])([H:18])[H:19])([H:16])[H:17])([H:14])[H:15])([H:12])[H:13])([H:8])[H:9]"
C        1.98218081      -0.50665559      -0.68771260
C        0.98890942       0.11678779       0.13723312
O        1.22227492       0.25433000       1.47640640
C        0.11130854       1.22057723      -0.38519153
C       -1.26682279       1.10820300       0.25761202
C       -1.77579629      -0.30691564      -0.02002914
C       -0.63740077      -1.30124741       0.16372866
H        2.93332533      -0.76856231      -0.23603537
H        2.04592125      -0.19308575      -1.72230686
H        0.86090106      -1.46349170      -0.22168746
H        2.15078309       0.09126731       1.65757702
H        0.59996764       2.17144150      -0.15765090
H        0.03920756       1.13125984      -1.47117730
H       -1.19310851       1.26768726       1.33633017
H       -1.94096732       1.87397147      -0.13116561
H       -2.13378449      -0.34215336      -1.05458848
H       -2.64240740      -0.53267226       0.60759246
H       -0.65023240      -2.00883206      -0.67314929
H       -0.69425965      -1.81190930       1.12421471
19
Frame=7 idx=008666 GeodesicLength=0.7109078388242613 rxn_smarts="[C:1]([C:2]1([O:3][H:11])[C:4]([H:12])([H:13])[C:5]([H:14])([H:15])[C:6]([H:16])([H:17])[C:7]1([H:18])[H:19])([H:8])([H:9])[H:10]>>[C:1](=[C:2]([O:3][H:11])[C:4]([C:5]([C:6]([C:7]([H:10])([H:18])[H:19])([H:16])[H:17])([H:14])[H:15])([H:12])[H:13])([H:8])[H:9]"
C        1.97771903      -0.51953634      -0.67895123
C        0.98517433       0.11385323       0.13730454
O        1.22037065       0.25644522       1.47876673
C        0.11424830       1.22249738      -0.38696211
C       -1.26316104       1.11084564       0.25886495
C       -1.77672372      -0.30413537      -0.01242979
C       -0.63860251      -1.30470843       0.15209443
H        2.94570410      -0.73254220      -0.23669162
H        2.02739447      -0.22768967      -1.72121224
H        0.87561773      -1.51996910      -0.17255729
H        2.15712464       0.14121032       1.65355015
H        0.60399292       2.17290557      -0.15980169
H        0.04204853       1.13356101      -1.47299427
H       -1.18844240       1.27243060       1.33714798
H       -1.93731103       1.87657370      -0.12982133
H       -2.15060169      -0.33641248      -1.04144704
H       -2.63439214      -0.52898695       0.62729363
H       -0.63663903      -1.96896236      -0.71913181
H       -0.72352113      -1.85737977       1.08697801
19
Frame=8 idx=008666 GeodesicLength=0.8119841656775164 rxn_smarts="[C:1]([C:2]1([O:3][H:11])[C:4]([H:12])([H:13])[C:5]([H:14])([H:15])[C:6]([H:16])([H:17])[C:7]1([H:18])[H:19])([H:8])([H:9])[H:10]>>[C:1](=[C:2]([O:3][H:11])[C:4]([C:5]([C:6]([C:7]([H:10])([H:18])[H:19])([H:16])[H:17])([H:14])[H:15])([H:12])[H:13])([H:8])[H:9]"
C        1.97254096      -0.53310911      -0.66999247
C        0.98176313       0.11207940       0.13719438
O        1.21943918       0.25935185       1.48083180
C        0.11712619       1.22526090      -0.38871277
C       -1.25958994       1.11339558       0.25994403
C       -1.77677110      -0.30184395      -0.00479120
C       -0.63875311      -1.30799172       0.14173845
H        2.95503838      -0.69961303      -0.23908995
H        2.00974553      -0.26130856      -1.71877140
H        0.88725608      -1.57485959      -0.12482774
H        2.16178948       0.18904494       1.64876198
H        0.60762464       2.17529758      -0.16160975
H        0.04514583       1.13691978      -1.47482942
H       -1.18391482       1.27728748       1.33776523
H       -1.93423084       1.87854509      -0.12885963
H       -2.16571315      -0.33193838      -1.02826578
H       -2.62551055      -0.52604430       0.64657727
H       -0.61989652      -1.92819558      -0.76067100
H       -0.75308936      -1.90227837       1.04760797
19
Frame=9 idx=008666 GeodesicLength=0.913036407819227 rxn_smarts="[C:1]([C:2]1([O:3][H:11])[C:4]([H:12])([H:13])[C:5]([H:14])([H:15])[C:6]([H:16])([H:17])[C:7]1([H:18])[H:19])([H:8])([H:9])[H:10]>>[C:1](=[C:2]([O:3][H:11])[C:4]([C:5]([C:6]([C:7]([H:10])([H:18])[H:19])([H:16])[H:17])([H:14])[H:15])([H:12])[H:13])([H:8])[H:9]"
C        1.96690436      -0.54697067      -0.66079636
C        0.97868631       0.11144194       0.13689811
O        1.21933301       0.26297213       1.48263362
C        0.11992548       1.22880074      -0.39048512
C       -1.25611079       1.11588300       0.26084783
C       -1.77601257      -0.29998358       0.00291398
C       -0.63795860      -1.31113202       0.13270657
H        2.96181939      -0.66955950      -0.24292323
H        1.99297998      -0.29368921      -1.71515763
H        0.89599236      -1.62865721      -0.07892095
H        2.16504900       0.23475975       1.64340744
H        0.61083898       2.17857305      -0.16317231
H        0.04844347       1.14119879      -1.47671663
H       -1.17952111       1.28231230       1.33817444
H       -1.93169623       1.87994074      -0.12828217
H       -2.17921031      -0.32869587      -1.01505098
H       -2.61584980      -0.52371749       0.66550596
H       -0.60075014      -1.88708554      -0.79753361
H       -0.78286280      -1.94639135       1.00595104
19
Frame=10 idx=008666 GeodesicLength=1.0140686431753232 rxn_smarts="[C:1]([C:2]1([O:3][H:11])[C:4]([H:12])([H:13])[C:5]([H:14])([H:15])[C:6]([H:16])([H:17])[C:7]1([H:18])[H:19])([H:8])([H:9])[H:10]>>[C:1](=[C:2]([O:3][H:11])[C:4]([C:5]([C:6]([C:7]([H:10])([H:18])[H:19])([H:16])[H:17])([H:14])[H:15])([H:12])[H:13])([H:8])[H:9]"
C        1.96099605      -0.56083978      -0.65132215
C        0.97595024       0.11190963       0.13641584
O        1.21992640       0.26723670       1.48420142
C        0.12262977       1.23305445      -0.39231011
C       -1.25272143       1.11833521       0.26159119
C       -1.77451661      -0.29849855       0.01071840
C       -0.63630571      -1.31417146       0.12498696
H        2.96648197      -0.64214094      -0.24790617
H        1.97705447      -0.32475296      -1.71051149
H        0.90203592      -1.68187989      -0.03499664
H        2.16714925       0.27853075       1.63763419
H        0.61362066       2.18268494      -0.16457525
H        0.05188275       1.14626927      -1.47867817
H       -1.17524673       1.28754493       1.33838591
H       -1.92967835       1.88081597      -0.12806316
H       -2.19121901      -0.32661309      -1.00178811
H       -2.60546552      -0.52190891       0.68416622
H       -0.57984114      -1.84606180      -0.82974162
H       -0.81273298      -1.98951447       0.96179274
19
Frame=11 idx=008666 GeodesicLength=1.115073058350627 rxn_smarts="[C:1]([C:2]1([O:3][H:11])[C:4]([H:12])([H:13])[C:5]([H:14])([H:15])[C:6]([H:16])([H:17])[C:7]1([H:18])[H:19])([H:8])([H:9])[H:10]>>[C:1](=[C:2]([O:3][H:11])[C:4]([C:5]([C:6]([C:7]([H:10])([H:18])[H:19])([H:16])[H:17])([H:14])[H:15])([H:12])[H:13])([H:8])[H:9]"
C        1.95493972      -0.57451438      -0.64153336
C        0.97355721       0.11345575       0.13574716
O        1.22110882       0.27210453       1.48555856
C        0.12522016       1.23796597      -0.39421951
C       -1.24941712       1.12077209       0.26218941
C       -1.77233319      -0.29734266       0.01866377
C       -0.63385868      -1.31714741       0.11854674
H        2.96937828      -0.61713084      -0.25377616
H        1.96190519      -0.35450526      -1.70494281
H        0.90556864      -1.73502324       0.00690501
H        2.16827577       0.32054227       1.63157505
H        0.61595238       2.18758963      -0.16590655
H        0.05540383       1.15201160      -1.48073625
H       -1.17107514       1.29301866       1.33840804
H       -1.92815030       1.88121050      -0.12817514
H       -2.20186982      -0.32561314      -0.98843328
H       -2.59437208      -0.52055185       0.70266629
H       -0.55767421      -1.80544175      -0.85745486
H       -0.84255946      -2.03140045       0.91491790
19
Frame=12 idx=008666 GeodesicLength=1.2160488609835625 rxn_smarts="[C:1]([C:2]1([O:3][H:11])[C:4]([H:12])([H:13])[C:5]([H:14])([H:15])[C:6]([H:16])([H:17])[C:7]1([H:18])[H:19])([H:8])([H:9])[H:10]>>[C:1](=[C:2]([O:3][H:11])[C:4]([C:5]([C:6]([C:7]([H:10])([H:18])[H:19])([H:16])[H:17])([H:14])[H:15])([H:12])[H:13])([H:8])[H:9]"
C        1.94882199      -0.58785785      -0.63139549
C        0.97150757       0.11605137       0.13489434
O        1.22278660       0.27754856       1.48673117
C        0.12767873       1.24348312      -0.39624202
C       -1.24619470       1.12320584       0.26265957
C       -1.76950482      -0.29648234       0.02679360
C       -0.63066922      -1.32010240       0.11334213
H        2.97080275      -0.59432862      -0.26029563
H        1.94747465      -0.38299993      -1.69853299
H        0.90671146      -1.78855920       0.04678359
H        2.16857583       0.36100771       1.62534018
H        0.61782191       2.19324621      -0.16724718
H        0.05895123       1.15831618      -1.48291316
H       -1.16699215       1.29875901       1.33825280
H       -1.92709123       1.88115168      -0.12859016
H       -2.21129731      -0.32562387      -0.97493171
H       -2.58256759      -0.51960637       0.72111863
H       -0.53464936      -1.76545286      -0.88091479
H       -0.87216634      -2.07175624       0.86514712
19
Frame=13 idx=008666 GeodesicLength=1.3169995866009094 rxn_smarts="[C:1]([C:2]1([O:3][H:11])[C:4]([H:12])([H:13])[C:5]([H:14])([H:15])[C:6]([H:16])([H:17])[C:7]1([H:18])[H:19])([H:8])([H:9])[H:10]>>[C:1](=[C:2]([O:3][H:11])[C:4]([C:5]([C:6]([C:7]([H:10])([H:18])[H:19])([H:16])[H:17])([H:14])[H:15])([H:12])[H:13])([H:8])[H:9]"
C        1.94270107      -0.60077875      -0.62087746
C        0.96979692       0.11966344       0.13386273
O        1.22487894       0.28355119       1.48774733
C        0.12998798       1.24955577      -0.39839987
C       -1.24305248       1.12563967       0.26301956
C       -1.76606518      -0.29589601       0.03514562
C       -0.62677828      -1.32308375       0.10932493
H        2.97099908      -0.57357074      -0.26725215
H        1.93371497      -0.41031000      -1.69134029
H        0.90550855      -1.84294109       0.08462087
H        2.16816169       0.40015759       1.61901435
H        0.61921837       2.19961493      -0.16866533
H        0.06247617       1.16508503      -1.48522631
H       -1.16298881       1.30477974       1.33793338
H       -1.92648364       1.88065417      -0.12927949
H       -2.21962155      -0.32658120      -0.96123052
H       -2.57004334      -0.51905369       0.73961827
H       -0.51108017      -1.72625559      -0.90039522
H       -0.90133029      -2.11023071       0.81237960
19
Frame=14 idx=008666 GeodesicLength=1.417917739883694 rxn_smarts="[C:1]([C:2]1([O:3][H:11])[C:4]([H:12])([H:13])[C:5]([H:14])([H:15])[C:6]([H:16])([H:17])[C:7]1([H:18])[H:19])([H:8])([H:9])[H:10]>>[C:1](=[C:2]([O:3][H:11])[C:4]([C:5]([C:6]([C:7]([H:10])([H:18])[H:19])([H:16])[H:17])([H:14])[H:15])([H:12])[H:13])([H:8])[H:9]"
C        1.93662117      -0.61321222      -0.60994251
C        0.96842033       0.12425722       0.13265038
O        1.22730975       0.29010239       1.48861843
C        0.13212739       1.25613333      -0.40072022
C       -1.23998976       1.12807173       0.26328160
C       -1.76203783      -0.29556846       0.04376062
C       -0.62222080      -1.32614280       0.10643906
H        2.97016930      -0.55471508      -0.27443477
H        1.92059893      -0.43650732      -1.68339604
H        0.90195671      -1.89859510       0.12036920
H        2.16710552       0.43818659       1.61267223
H        0.62012496       2.20665175      -0.17023416
H        0.06592635       1.17222389      -1.48769650
H       -1.15905639       1.31109329       1.33745496
H       -1.92631618       1.87972172      -0.13022159
H       -2.22696292      -0.32842751      -0.94725946
H       -2.55676758      -0.51888438       0.75826791
H       -0.48720733      -1.68794948      -0.91620297
H       -0.92980163      -2.14643956       0.75659382
19
Frame=15 idx=008666 GeodesicLength=1.5188031430887763 rxn_smarts="[C:1]([C:2]1([O:3][H:11])[C:4]([H:12])([H:13])[C:5]([H:14])([H:15])[C:6]([H:16])([H:17])[C:7]1([H:18])[H:19])([H:8])([H:9])[H:10]>>[C:1](=[C:2]([O:3][H:11])[C:4]([C:5]([C:6]([C:7]([H:10])([H:18])[H:19])([H:16])[H:17])([H:14])[H:15])([H:12])[H:13])([H:8])[H:9]"
C        1.93061364      -0.62511060      -0.59855994
C        0.96736891       0.12979357       0.13125855
O        1.23000839       0.29719685       1.48935821
C        0.13407725       1.26316624      -0.40322413
C       -1.23700784       1.13049313       0.26345436
C       -1.75743845      -0.29549193       0.05266685
C       -0.61702235      -1.32933075       0.10462496
H        2.96848554      -0.53763584      -0.28165515
H        1.90810804      -0.46165908      -1.67472092
H        0.89597210      -1.95594246       0.15390802
H        2.16545460       0.47527405       1.60637374
H        0.62052416       2.21431278      -0.17201322
H        0.06925714       1.17965003      -1.49033905
H       -1.15519471       1.31770128       1.33681858
H       -1.92657965       1.87834861      -0.13139962
H       -2.23341951      -0.33111322      -0.93296114
H       -2.54271056      -0.51909755       0.77713933
H       -0.46321002      -1.65059887      -0.92863016
H       -0.95728668      -2.17995624       0.69790074
19
Frame=16 idx=008666 GeodesicLength=1.6196641117569253 rxn_smarts="[C:1]([C:2]1([O:3][H:11])[C:4]([H:12])([H:13])[C:5]([H:14])([H:15])[C:6]([H:16])([H:17])[C:7]1([H:18])[H:19])([H:8])([H:9])[H:10]>>[C:1](=[C:2]([O:3][H:11])[C:4]([C:5]([C:6]([C:7]([H:10])([H:18])[H:19])([H:16])[H:17])([H:14])[H:15])([H:12])[H:13])([H:8])[H:9]"
C        1.92470717      -0.63642991      -0.58670598
C        0.96663444       0.13623265       0.12969050
O        1.23291187       0.30483746       1.48998572
C        0.13582308       1.27060883      -0.40592978
C       -1.23410927       1.13288955       0.26354234
C       -1.75227995      -0.29566737       0.06187902
C       -0.61120615      -1.33270119       0.10381715
H        2.96610367      -0.52221145      -0.28874218
H        1.89623777      -0.48581724      -1.66533434
H        0.88739694      -2.01540419       0.18502795
H        2.16324276       0.51158239       1.60017513
H        0.62040406       2.22255930      -0.17405113
H        0.07243514       1.18729380      -1.49317092
H       -1.15141102       1.32459660       1.33602511
H       -1.92726547       1.87652159      -0.13280380
H       -2.23907276      -0.33459887      -0.91829632
H       -2.52785438      -0.51969981       0.79627468
H       -0.43922815      -1.61425048      -0.93795953
H       -0.98346973      -2.21034167       0.63657640
