19
Frame=0 idx=007437 GeodesicLength=0.0 rxn_smarts="[C:1]([C:2]([C@@:3]1([H:13])[C:4]([H:14])([H:15])[C@@:5]2([H:16])[C:6]([H:17])([H:18])[C@@:7]12[H:19])([H:11])[H:12])([H:8])([H:9])[H:10]>>[C:1]([C:2]([C@@:3]1([H:13])[C:4]([H:14])([H:15])[C@:7]1([C:6]([C:5][H:16])([H:17])[H:18])[H:19])([H:11])[H:12])([H:8])([H:9])[H:10]"
C        2.45009595       0.36485614      -0.78806001
C        1.07825386      -0.29744344      -0.82126463
C        0.42998345      -0.32016170       0.54224101
C       -0.31951043       0.88324948       0.98745376
C       -2.27759265       0.70237687       0.11227048
C       -2.04604875      -0.67334278      -0.40093924
C       -1.02984447      -0.59624374       0.68722267
H        2.90475975       0.38378001      -1.77955295
H        3.12954755      -0.17030571      -0.12043434
H        2.37895672       1.39544424      -0.43296952
H        0.42879893       0.23872805      -1.51858989
H        1.16389252      -1.32108321      -1.19823501
H        1.01907502      -0.81765940       1.30732722
H       -0.29537167       1.74296390       0.34247608
H       -0.34255975       1.11412159       2.04369432
H       -2.89909199       0.62470106       1.01704449
H       -2.78115289      -1.44570052      -0.18254443
H       -1.66439356      -0.75484217      -1.41685844
H       -1.32779750      -1.05343871       1.61971846
19
Frame=1 idx=007437 GeodesicLength=0.046621398247345826 rxn_smarts="[C:1]([C:2]([C@@:3]1([H:13])[C:4]([H:14])([H:15])[C@@:5]2([H:16])[C:6]([H:17])([H:18])[C@@:7]12[H:19])([H:11])[H:12])([H:8])([H:9])[H:10]>>[C:1]([C:2]([C@@:3]1([H:13])[C:4]([H:14])([H:15])[C@:7]1([C:6]([C:5][H:16])([H:17])[H:18])[H:19])([H:11])[H:12])([H:8])([H:9])[H:10]"
C        2.44926254       0.36337295      -0.78727607
C        1.07872602      -0.30173361      -0.82062472
C        0.42603302      -0.31734896       0.54075626
C       -0.32431265       0.88899449       0.98205852
C       -2.27300372       0.69676646       0.13492648
C       -2.04580808      -0.66853927      -0.40362202
C       -1.03232803      -0.60286582       0.68950219
H        2.90683811       0.37776890      -1.77752545
H        3.12793668      -0.16684197      -0.11490729
H        2.37532357       1.39569045      -0.43779973
H        0.43132586       0.22949480      -1.52363294
H        1.16726520      -1.32754943      -1.19101123
H        1.01775303      -0.80646081       1.30961456
H       -0.29430307       1.74656061       0.33330468
H       -0.33415240       1.12787801       2.03703826
H       -2.90633945       0.61668745       1.03045470
H       -2.78170428      -1.44320262      -0.19683403
H       -1.66285554      -0.73294511      -1.42010680
H       -1.32565682      -1.07572651       1.61568465
19
Frame=2 idx=007437 GeodesicLength=0.0932280562355304 rxn_smarts="[C:1]([C:2]([C@@:3]1([H:13])[C:4]([H:14])([H:15])[C@@:5]2([H:16])[C:6]([H:17])([H:18])[C@@:7]12[H:19])([H:11])[H:12])([H:8])([H:9])[H:10]>>[C:1]([C:2]([C@@:3]1([H:13])[C:4]([H:14])([H:15])[C@:7]1([C:6]([C:5][H:16])([H:17])[H:18])[H:19])([H:11])[H:12])([H:8])([H:9])[H:10]"
C        2.44840529       0.36191903      -0.78644677
C        1.07919945      -0.30603375      -0.81991377
C        0.42207719      -0.31456821       0.53929647
C       -0.32907359       0.89473366       0.97666161
C       -2.26836369       0.69084570       0.15751896
C       -2.04555958      -0.66359393      -0.40616437
C       -1.03475470      -0.60956282       0.69178994
H        2.90888267       0.37183806      -1.77542532
H        3.12629794      -0.16331891      -0.10937825
H        2.37164061       1.39592146      -0.44257861
H        0.43386653       0.22017005      -1.52859115
H        1.17065117      -1.33397831      -1.18369158
H        1.01634767      -0.79531903       1.31185335
H       -0.29357926       1.75000584       0.32398846
H       -0.32566016       1.14177968       2.03011892
H       -2.91334362       0.60889797       1.04373549
H       -2.78231156      -1.44032709      -0.21100208
H       -1.66133896      -0.71096661      -1.42293641
H       -1.32338341      -1.09844279       1.61116510
19
Frame=3 idx=007437 GeodesicLength=0.13983648192919815 rxn_smarts="[C:1]([C:2]([C@@:3]1([H:13])[C:4]([H:14])([H:15])[C@@:5]2([H:16])[C:6]([H:17])([H:18])[C@@:7]12[H:19])([H:11])[H:12])([H:8])([H:9])[H:10]>>[C:1]([C:2]([C@@:3]1([H:13])[C:4]([H:14])([H:15])[C@:7]1([C:6]([C:5][H:16])([H:17])[H:18])[H:19])([H:11])[H:12])([H:8])([H:9])[H:10]"
C        2.44751954       0.36049782      -0.78557346
C        1.07967984      -0.31036178      -0.81912627
C        0.41811714      -0.31182280       0.53786509
C       -0.33379499       0.90046489       0.97125787
C       -2.26367363       0.68462120       0.18008824
C       -2.04530763      -0.65848371      -0.40856726
C       -1.03712296      -0.61634299       0.69407817
H        2.91090775       0.36595089      -1.77324594
H        3.12462464      -0.15968891      -0.10381238
H        2.36787719       1.39615481      -0.44735587
H        0.43642365       0.21071368      -1.53347131
H        1.17407383      -1.34039448      -1.17624654
H        1.01485726      -0.78422992       1.31405676
H       -0.29320275       1.75329226       0.31451053
H       -0.31708079       1.15583440       2.02292249
H       -2.92010496       0.60131623       1.05693574
H       -2.78297753      -1.43705858      -0.22507463
H       -1.65984898      -0.68884630      -1.42535373
H       -1.32096662      -1.12161671       1.60611250
19
Frame=4 idx=007437 GeodesicLength=0.18643193556854984 rxn_smarts="[C:1]([C:2]([C@@:3]1([H:13])[C:4]([H:14])([H:15])[C@@:5]2([H:16])[C:6]([H:17])([H:18])[C@@:7]12[H:19])([H:11])[H:12])([H:8])([H:9])[H:10]>>[C:1]([C:2]([C@@:3]1([H:13])[C:4]([H:14])([H:15])[C@:7]1([C:6]([C:5][H:16])([H:17])[H:18])[H:19])([H:11])[H:12])([H:8])([H:9])[H:10]"
C        2.44660614       0.35911471      -0.78465700
C        1.08016471      -0.31470449      -0.81826371
C        0.41415352      -0.30911664       0.53646577
C       -0.33847903       0.90618398       0.96585716
C       -2.25889692       0.67809960       0.20258737
C       -2.04505014      -0.65323460      -0.41081792
C       -1.03943182      -0.62321593       0.69637389
H        2.91289353       0.36015923      -1.77100043
H        3.12292453      -0.15598661      -0.09824839
H        2.36405220       1.39638255      -0.45208413
H        0.43899048       0.20115055      -1.53826138
H        1.17752438      -1.34677888      -1.16869844
H        1.01328347      -0.77321065       1.31622198
H       -0.29316335       1.75642661       0.30489014
H       -0.30844304       1.17002305       2.01545722
H       -2.92661815       0.59399988       1.07000181
H       -2.78372343      -1.43339546      -0.23899832
H       -1.65837086      -0.66667837      -1.42734278
H       -1.31841622      -1.14521854       1.60051715
19
Frame=5 idx=007437 GeodesicLength=0.23299575987121227 rxn_smarts="[C:1]([C:2]([C@@:3]1([H:13])[C:4]([H:14])([H:15])[C@@:5]2([H:16])[C:6]([H:17])([H:18])[C@@:7]12[H:19])([H:11])[H:12])([H:8])([H:9])[H:10]>>[C:1]([C:2]([C@@:3]1([H:13])[C:4]([H:14])([H:15])[C@:7]1([C:6]([C:5][H:16])([H:17])[H:18])[H:19])([H:11])[H:12])([H:8])([H:9])[H:10]"
C        2.44564602       0.35778336      -0.78369235
C        1.08064584      -0.31906262      -0.81732210
C        0.41018731      -0.30646335       0.53510205
C       -0.34311422       0.91187800       0.96045897
C       -2.25399575       0.67128928       0.22497633
C       -2.04478387      -0.64786008      -0.41291197
C       -1.04167810      -0.63018630       0.69867878
H        2.91479423       0.35453050      -1.76869153
H        3.12119719      -0.15222198      -0.09271665
H        2.36014800       1.39659606      -0.45670396
H        0.44154553       0.19146945      -1.54295072
H        1.18100646      -1.35312398      -1.16104808
H        1.01162727      -0.76228549       1.31834834
H       -0.29343728       1.75940193       0.29513686
H       -0.29973490       1.18432456       2.00771632
H       -2.93286093       0.58700768       1.08288060
H       -2.78455422      -1.42932960      -0.25273769
H       -1.65689336      -0.64453376      -1.42889873
H       -1.31574519      -1.16921366       1.59437555
19
Frame=6 idx=007437 GeodesicLength=0.2795424185421542 rxn_smarts="[C:1]([C:2]([C@@:3]1([H:13])[C:4]([H:14])([H:15])[C@@:5]2([H:16])[C:6]([H:17])([H:18])[C@@:7]12[H:19])([H:11])[H:12])([H:8])([H:9])[H:10]>>[C:1]([C:2]([C@@:3]1([H:13])[C:4]([H:14])([H:15])[C@:7]1([C:6]([C:5][H:16])([H:17])[H:18])[H:19])([H:11])[H:12])([H:8])([H:9])[H:10]"
C        2.44464565       0.35650771      -0.78268285
C        1.08113274      -0.32344441      -0.81630038
C        0.40621893      -0.30386546       0.53377328
C       -0.34770742       0.91754486       0.95506294
C       -2.24897042       0.66419470       0.24728342
C       -2.04451809      -0.64235087      -0.41484134
C       -1.04386442      -0.63726661       0.70098554
H        2.91663991       0.34903421      -1.76631597
H        3.11944195      -0.14836007      -0.08719224
H        2.35615398       1.39681412      -0.46125703
H        0.44409810       0.18165082      -1.54754295
H        1.18454136      -1.35944362      -1.15328133
H        1.00988697      -0.75145395       1.32043885
H       -0.29402574       1.76221375       0.28524568
H       -0.29097267       1.19874048       1.99969192
H       -2.93883994       0.58034044       1.09560876
H       -2.78549373      -1.42484815      -0.26629086
H       -1.65541962      -0.62239016      -1.43001604
H       -1.31294754      -1.19361779       1.58763060
19
Frame=7 idx=007437 GeodesicLength=0.32609311781381756 rxn_smarts="[C:1]([C:2]([C@@:3]1([H:13])[C:4]([H:14])([H:15])[C@@:5]2([H:16])[C:6]([H:17])([H:18])[C@@:7]12[H:19])([H:11])[H:12])([H:8])([H:9])[H:10]>>[C:1]([C:2]([C@@:3]1([H:13])[C:4]([H:14])([H:15])[C@:7]1([C:6]([C:5][H:16])([H:17])[H:18])[H:19])([H:11])[H:12])([H:8])([H:9])[H:10]"
C        2.44360063       0.35528522      -0.78163072
C        1.08162781      -0.32786324      -0.81519307
C        0.40224940      -0.30132005       0.53248587
C       -0.35226455       0.92318736       0.94966629
C       -2.24382561       0.65681892       0.26955381
C       -2.04425192      -0.63668331      -0.41661062
C       -1.04598634      -0.64446565       0.70328745
H        2.91844738       0.34361213      -1.76386722
H        3.11764625      -0.14435747      -0.08163297
H        2.35204496       1.39705242      -0.46580771
H        0.44664961       0.17166410      -1.55204376
H        1.18814178      -1.36575769      -1.14537176
H        1.00806289      -0.74070229       1.32251299
H       -0.29494030       1.76486179       0.27520338
H       -0.28215671       1.21327765       1.99137633
H       -2.94455358       0.57397401       1.10823547
H       -2.78653229      -1.41994162      -0.27969238
H       -1.65395407      -0.60017820      -1.43071076
H       -1.31000535      -1.21846408       1.58023937
19
Frame=8 idx=007437 GeodesicLength=0.37266459255715734 rxn_smarts="[C:1]([C:2]([C@@:3]1([H:13])[C:4]([H:14])([H:15])[C@@:5]2([H:16])[C:6]([H:17])([H:18])[C@@:7]12[H:19])([H:11])[H:12])([H:8])([H:9])[H:10]>>[C:1]([C:2]([C@@:3]1([H:13])[C:4]([H:14])([H:15])[C@:7]1([C:6]([C:5][H:16])([H:17])[H:18])[H:19])([H:11])[H:12])([H:8])([H:9])[H:10]"
C        2.44250598       0.35411976      -0.78053838
C        1.08213624      -0.33233398      -0.81399269
C        0.39827960      -0.29882900       0.53124291
C       -0.35678849       0.92880017       0.94426828
C       -2.23855723       0.64916117       0.29182674
C       -2.04398941      -0.63083226      -0.41821838
C       -1.04804161      -0.65179389       0.70557385
H        2.92023575       0.33821073      -1.76133431
H        3.11579844      -0.14015311      -0.07599801
H        2.34778877       1.39733125      -0.47042913
H        0.44920170       0.16147135      -1.55645400
H        1.19183167      -1.37208472      -1.13728602
H        1.00615338      -0.73002598       1.32457991
H       -0.29618355       1.76733468       0.26500381
H       -0.27329025       1.22793205       1.98275969
H       -2.94999542       0.56789297       1.12080141
H       -2.78767563      -1.41458500      -0.29296456
H       -1.65250029      -0.57784155      -1.43098146
H       -1.30690964      -1.24377462       1.57214031
19
Frame=9 idx=007437 GeodesicLength=0.4192727639183143 rxn_smarts="[C:1]([C:2]([C@@:3]1([H:13])[C:4]([H:14])([H:15])[C@@:5]2([H:16])[C:6]([H:17])([H:18])[C@@:7]12[H:19])([H:11])[H:12])([H:8])([H:9])[H:10]>>[C:1]([C:2]([C@@:3]1([H:13])[C:4]([H:14])([H:15])[C@:7]1([C:6]([C:5][H:16])([H:17])[H:18])[H:19])([H:11])[H:12])([H:8])([H:9])[H:10]"
C        2.44136145       0.35300995      -0.77940728
C        1.08266356      -0.33686907      -0.81269330
C        0.39431118      -0.29639128       0.53004811
C       -0.36128543       0.93438237       0.93886526
C       -2.23316467       0.64121612       0.31413587
C       -2.04373254      -0.62477941      -0.41966019
C       -1.05002758      -0.65926261       0.70783542
H        2.92201735       0.33279765      -1.75871138
H        3.11389400      -0.13571168      -0.07026264
H        2.34336976       1.39765746      -0.47516456
H        0.45175745       0.15104135      -1.56077538
H        1.19562871      -1.37844023      -1.12899821
H        1.00415942      -0.71941335       1.32665224
H       -0.29776869       1.76962682       0.25463565
H       -0.26438047       1.24271148       1.97382856
H       -2.95516174       0.56208132       1.13334471
H       -2.78892918      -1.40875799      -0.30612017
H       -1.65105966      -0.55533017      -1.43082337
H       -1.30365293      -1.26956874       1.56327066
19
Frame=10 idx=007437 GeodesicLength=0.4659343445687073 rxn_smarts="[C:1]([C:2]([C@@:3]1([H:13])[C:4]([H:14])([H:15])[C@@:5]2([H:16])[C:6]([H:17])([H:18])[C@@:7]12[H:19])([H:11])[H:12])([H:8])([H:9])[H:10]>>[C:1]([C:2]([C@@:3]1([H:13])[C:4]([H:14])([H:15])[C@:7]1([C:6]([C:5][H:16])([H:17])[H:18])[H:19])([H:11])[H:12])([H:8])([H:9])[H:10]"
C        2.44015851       0.35195882      -0.77823688
C        1.08321248      -0.34148343      -0.81128498
C        0.39034188      -0.29400812       0.52890526
C       -0.36575956       0.93993131       0.93345302
C       -2.22764190       0.63298411       0.33651911
C       -2.04348538      -0.61850227      -0.42093508
C       -1.05194299      -0.66688296       0.71006236
H        2.92380518       0.32733407      -1.75598329
H        3.11191657      -0.13098029      -0.06439279
H        2.33875731       1.39804418      -0.48007172
H        0.45431812       0.14033327      -1.56500582
H        1.19955115      -1.38484115      -1.12047368
H        1.00207430      -0.70886139       1.32873879
H       -0.29969692       1.77172606       0.24408555
H       -0.25542024       1.25761498       1.96456808
H       -2.96004339       0.55652517       1.14589904
H       -2.79029307      -1.40244121      -0.31918091
H       -1.64964058      -0.53258692      -1.43023567
H       -1.30021146      -1.29586421       1.55356962
19
Frame=11 idx=007437 GeodesicLength=0.5126429705459759 rxn_smarts="[C:1]([C:2]([C@@:3]1([H:13])[C:4]([H:14])([H:15])[C@@:5]2([H:16])[C:6]([H:17])([H:18])[C@@:7]12[H:19])([H:11])[H:12])([H:8])([H:9])[H:10]>>[C:1]([C:2]([C@@:3]1([H:13])[C:4]([H:14])([H:15])[C@:7]1([C:6]([C:5][H:16])([H:17])[H:18])[H:19])([H:11])[H:12])([H:8])([H:9])[H:10]"
C        2.43889449       0.35097547      -0.77702831
C        1.08378167      -0.34616742      -0.80976801
C        0.38637641      -0.29168877       0.52781883
C       -0.37020902       0.94543731       0.92804246
C       -2.22194581       0.62446149       0.35892238
C       -2.04324571      -0.61202992      -0.42202731
C       -1.05378333      -0.67466683       0.71225760
H        2.92556896       0.32188379      -1.75316490
H        3.10987679      -0.12598669      -0.05843362
H        2.33396090       1.39848054      -0.48509128
H        0.45687422       0.12936376      -1.56913159
H        1.20359689      -1.39126885      -1.11173512
H        0.99990358      -0.69839121       1.33083865
H       -0.30195848       1.77363198       0.23338384
H       -0.24643645       1.27262506       1.95498583
H       -2.96462709       0.55130038       1.15839887
H       -2.79179742      -1.39562448      -0.33208542
H       -1.64822265      -0.50971913      -1.42919889
H       -1.29660795      -1.32261647       1.54301597
19
Frame=12 idx=007437 GeodesicLength=0.5594111492132414 rxn_smarts="[C:1]([C:2]([C@@:3]1([H:13])[C:4]([H:14])([H:15])[C@@:5]2([H:16])[C:6]([H:17])([H:18])[C@@:7]12[H:19])([H:11])[H:12])([H:8])([H:9])[H:10]>>[C:1]([C:2]([C@@:3]1([H:13])[C:4]([H:14])([H:15])[C@:7]1([C:6]([C:5][H:16])([H:17])[H:18])[H:19])([H:11])[H:12])([H:8])([H:9])[H:10]"
C        2.43756403       0.35006328      -0.77578472
C        1.08437647      -0.35093715      -0.80813777
C        0.38241455      -0.28943825       0.52679362
C       -0.37464040       0.95089555       0.92263551
C       -2.21607528       0.61564659       0.38137142
C       -2.04301249      -0.60534205      -0.42293140
C       -1.05554908      -0.68262902       0.71440957
H        2.92732342       0.31641528      -1.75024939
H        3.10776557      -0.12068307      -0.05235556
H        2.32895162       1.39898027      -0.49027606
H        0.45942404       0.11809221      -1.57315836
H        1.20779149      -1.39774410      -1.10275238
H        0.99764478      -0.68800421       1.33296486
H       -0.30456146       1.77534407       0.22252335
H       -0.23743373       1.28774216       1.94507726
H       -2.96889869       0.54640242       1.17088194
H       -2.79344477      -1.38828227      -0.34483958
H       -1.64680111      -0.48668492      -1.42770976
H       -1.29283893      -1.34983680       1.53153745
19
Frame=13 idx=007437 GeodesicLength=0.6062569688899279 rxn_smarts="[C:1]([C:2]([C@@:3]1([H:13])[C:4]([H:14])([H:15])[C@@:5]2([H:16])[C:6]([H:17])([H:18])[C@@:7]12[H:19])([H:11])[H:12])([H:8])([H:9])[H:10]>>[C:1]([C:2]([C@@:3]1([H:13])[C:4]([H:14])([H:15])[C@:7]1([C:6]([C:5][H:16])([H:17])[H:18])[H:19])([H:11])[H:12])([H:8])([H:9])[H:10]"
C        2.43615188       0.34923319      -0.77450819
C        1.08499625      -0.35580565      -0.80637876
C        0.37845261      -0.28726102       0.52583311
C       -0.37904978       0.95629611       0.91722930
C       -2.21001259       0.60654211       0.40391055
C       -2.04279449      -0.59841759      -0.42364974
C       -1.05724236      -0.69077942       0.71650782
H        2.92908173       0.31088311      -1.74721368
H        3.10555478      -0.11498645      -0.04612385
H        2.32368673       1.39955930      -0.49570958
H        0.46196297       0.10647210      -1.57706770
H        1.21215407      -1.40427428      -1.09347955
H        0.99528882      -0.67770174       1.33512086
H       -0.30748423       1.77683047       0.21151193
H       -0.22839615       1.30293969       1.93482519
H       -2.97283914       0.54183308       1.18334868
H       -2.79523971      -1.38039375      -0.35747153
H       -1.64538872      -0.46343695      -1.42576598
H       -1.28888269      -1.37753231       1.51908113
19
Frame=14 idx=007437 GeodesicLength=0.6531689633086853 rxn_smarts="[C:1]([C:2]([C@@:3]1([H:13])[C:4]([H:14])([H:15])[C@@:5]2([H:16])[C:6]([H:17])([H:18])[C@@:7]12[H:19])([H:11])[H:12])([H:8])([H:9])[H:10]>>[C:1]([C:2]([C@@:3]1([H:13])[C:4]([H:14])([H:15])[C@:7]1([C:6]([C:5][H:16])([H:17])[H:18])[H:19])([H:11])[H:12])([H:8])([H:9])[H:10]"
C        2.43465504       0.34849584      -0.77320195
C        1.08564257      -0.36076559      -0.80449676
C        0.37449625      -0.28517301       0.52494241
C       -0.38343795       0.96162576       0.91184544
C       -2.20372016       0.59714600       0.42647052
C       -2.04258632      -0.59128641      -0.42416445
C       -1.05885868      -0.69913546       0.71855280
H        2.93082215       0.30534475      -1.74407454
H        3.10325316      -0.10891894      -0.03977368
H        2.31816821       1.40021587      -0.50134712
H        0.46448081       0.09452158      -1.58085430
H        1.21669051      -1.41084724      -1.08394429
H        0.99284414      -0.66751677       1.33730762
H       -0.31071834       1.77810268       0.20038246
H       -0.21935994       1.31819679       1.92425710
H       -2.97643352       0.53768278       1.19574484
H       -2.79721173      -1.37194946      -0.36990894
H       -1.64395825      -0.44009164      -1.42335517
H       -1.28476795      -1.40564750       1.50561801
19
Frame=15 idx=007437 GeodesicLength=0.7001317756774117 rxn_smarts="[C:1]([C:2]([C@@:3]1([H:13])[C:4]([H:14])([H:15])[C@@:5]2([H:16])[C:6]([H:17])([H:18])[C@@:7]12[H:19])([H:11])[H:12])([H:8])([H:9])[H:10]>>[C:1]([C:2]([C@@:3]1([H:13])[C:4]([H:14])([H:15])[C@:7]1([C:6]([C:5][H:16])([H:17])[H:18])[H:19])([H:11])[H:12])([H:8])([H:9])[H:10]"
C        2.43306776       0.34785986      -0.77186734
C        1.08630941      -0.36580293      -0.80249276
C        0.37054563      -0.28318362       0.52412421
C       -0.38780293       0.96687279       0.90649705
C       -2.19716523       0.58746134       0.44900231
C       -2.04238409      -0.58398299      -0.42446482
C       -1.06039795      -0.70770818       0.72054681
H        2.93251906       0.29985447      -1.74084217
H        3.10086233      -0.10250573      -0.03334470
H        2.31240502       1.40094091      -0.50714296
H        0.46696414       0.08226688      -1.58449913
H        1.22138969      -1.41743869      -1.07416871
H        0.99031360      -0.65747250       1.33951956
H       -0.31423875       1.77916068       0.18917068
H       -0.21034747       1.33347360       1.91339129
H       -2.97966589       0.53403223       1.20799041
H       -2.79937113      -1.36296366      -0.38209526
H       -1.64249490      -0.41675457      -1.42047610
H       -1.28050830      -1.43410987       1.49115162
19
Frame=16 idx=007437 GeodesicLength=0.7471289401812169 rxn_smarts="[C:1]([C:2]([C@@:3]1([H:13])[C:4]([H:14])([H:15])[C@@:5]2([H:16])[C:6]([H:17])([H:18])[C@@:7]12[H:19])([H:11])[H:12])([H:8])([H:9])[H:10]>>[C:1]([C:2]([C@@:3]1([H:13])[C:4]([H:14])([H:15])[C@:7]1([C:6]([C:5][H:16])([H:17])[H:18])[H:19])([H:11])[H:12])([H:8])([H:9])[H:10]"
C        2.43138610       0.34733237      -0.77050629
C        1.08699179      -0.37090293      -0.80037006
C        0.36660138      -0.28130218       0.52338034
C       -0.39214427       0.97202583       0.90119767
C       -2.19032075       0.57749156       0.47145891
C       -2.04218344      -0.57654360      -0.42454083
C       -1.06185975      -0.71650821       0.72249151
H        2.93414960       0.29446385      -1.73752891
H        3.09838568      -0.09577610      -0.02687541
H        2.30640791       1.40172555      -0.51305053
H        0.46940138       0.06973863      -1.58798603
H        1.22624093      -1.42402441      -1.06417946
H        0.98770161      -0.64759176       1.34175115
H       -0.31802278       1.78000615       0.17791332
H       -0.20138361       1.34872958       1.90225023
H       -2.98252323       0.53096338       1.22000678
H       -2.80172459      -1.35345792      -0.39397423
H       -1.64098471      -0.39352862      -1.41713313
H       -1.27611926      -1.46284120       1.47569498
