13
Frame=0 idx=002832 GeodesicLength=0.0 rxn_smarts="[C:1]([C:2]([C:3]#[C:4][C:5]([H:11])([H:12])[H:13])([H:9])[H:10])([H:6])([H:7])[H:8]>>[C:1]1([H:7])([H:8])[C:2]([H:9])([H:10])[C:3]1=[C:4]([C:5]([H:11])([H:12])[H:13])[H:6]"
C       -1.87071354       0.31134527      -0.12316423
C       -1.25640987      -0.62496620       0.87790138
C        0.11614931      -0.86856323       0.51572771
C        0.83831573       0.04434757      -0.02226174
C        2.19998944       0.28071379      -0.56432510
H        0.03555678       0.92902356      -0.09696241
H       -2.94843157       0.46903575      -0.05567329
H       -1.52721985       0.21665342      -1.14570621
H       -1.93070559      -1.50196985       0.81793028
H       -1.31330031      -0.28717121       1.91399190
H        2.71031829       1.06864750      -0.00742922
H        2.79333547      -0.63027848      -0.50068682
H        2.15311566       0.59318215      -1.60934222
13
Frame=1 idx=002832 GeodesicLength=0.09647758463911499 rxn_smarts="[C:1]([C:2]([C:3]#[C:4][C:5]([H:11])([H:12])[H:13])([H:9])[H:10])([H:6])([H:7])[H:8]>>[C:1]1([H:7])([H:8])[C:2]([H:9])([H:10])[C:3]1=[C:4]([C:5]([H:11])([H:12])[H:13])[H:6]"
C       -1.86821854       0.31034245      -0.11481479
C       -1.25979049      -0.63001108       0.88695535
C        0.09878795      -0.86168711       0.46902784
C        0.83646604       0.05230609      -0.04297525
C        2.21005489       0.27640364      -0.55794087
H        0.01072596       0.94788300      -0.12357236
H       -2.95014268       0.44103280      -0.04730272
H       -1.55718723       0.24879324      -1.15026052
H       -1.92833547      -1.51040021       0.83826225
H       -1.29253188      -0.28498946       1.92119098
H        2.71397462       1.06500569       0.00397440
H        2.79848992      -0.63657933      -0.47661006
H        2.18770691       0.58190028      -1.60593426
13
Frame=2 idx=002832 GeodesicLength=0.1927929967106057 rxn_smarts="[C:1]([C:2]([C:3]#[C:4][C:5]([H:11])([H:12])[H:13])([H:9])[H:10])([H:6])([H:7])[H:8]>>[C:1]1([H:7])([H:8])[C:2]([H:9])([H:10])[C:3]1=[C:4]([C:5]([H:11])([H:12])[H:13])[H:6]"
C       -1.86582243       0.30873472      -0.10706088
C       -1.26202421      -0.63508469       0.89547083
C        0.08146064      -0.85242232       0.42399839
C        0.83452930       0.06085343      -0.06394956
C        2.21962281       0.27151348      -0.55146186
H       -0.01484449       0.96787285      -0.15044203
H       -2.95121976       0.41259585      -0.03874309
H       -1.58788693       0.28298848      -1.15349034
H       -1.92307924      -1.52003931       0.85722945
H       -1.27230600      -0.28331946       1.92749132
H        2.71744028       1.06110096       0.01469534
H        2.80206834      -0.64372189      -0.45158433
H        2.22206171       0.56892790      -1.60215322
13
Frame=3 idx=002832 GeodesicLength=0.28898419622830795 rxn_smarts="[C:1]([C:2]([C:3]#[C:4][C:5]([H:11])([H:12])[H:13])([H:9])[H:10])([H:6])([H:7])[H:8]>>[C:1]1([H:7])([H:8])[C:2]([H:9])([H:10])[C:3]1=[C:4]([C:5]([H:11])([H:12])[H:13])[H:6]"
C       -1.86341546       0.30656387      -0.10001604
C       -1.26315037      -0.64014597       0.90343949
C        0.06432396      -0.84091592       0.38088857
C        0.83257544       0.06993288      -0.08517566
C        2.22866481       0.26605943      -0.54494624
H       -0.04118635       0.98897622      -0.17728688
H       -2.95158957       0.38367610      -0.03028867
H       -1.61923128       0.31899116      -1.15522862
H       -1.91499451      -1.53077799       0.87480656
H       -1.25278817      -0.28197873       1.93293450
H        2.72077880       1.05685058       0.02473840
H        2.80401522      -0.65163498      -0.42588690
H        2.25599748       0.55440334      -1.59797851
13
Frame=4 idx=002832 GeodesicLength=0.3850648965591637 rxn_smarts="[C:1]([C:2]([C:3]#[C:4][C:5]([H:11])([H:12])[H:13])([H:9])[H:10])([H:6])([H:7])[H:8]>>[C:1]1([H:7])([H:8])[C:2]([H:9])([H:10])[C:3]1=[C:4]([C:5]([H:11])([H:12])[H:13])[H:6]"
C       -1.86092197       0.30388848      -0.09375745
C       -1.26322984      -0.64516739       0.91083130
C        0.04751142      -0.82738483       0.33981641
C        0.83067066       0.07944156      -0.10670700
C        2.23717798       0.26006515      -0.53844844
H       -0.06832322       1.01115560      -0.20379959
H       -2.95119258       0.35425600      -0.02217746
H       -1.65118338       0.35664587      -1.15526443
H       -1.90419806      -1.54247585       0.89094278
H       -1.23408436      -0.28085363       1.93756763
H        2.72398181       1.05229511       0.03400684
H        2.80438960      -0.66014251      -0.39960315
H        2.28940194       0.53827645      -1.59340745
13
Frame=5 idx=002832 GeodesicLength=0.48128790237751334 rxn_smarts="[C:1]([C:2]([C:3]#[C:4][C:5]([H:11])([H:12])[H:13])([H:9])[H:10])([H:6])([H:7])[H:8]>>[C:1]1([H:7])([H:8])[C:2]([H:9])([H:10])[C:3]1=[C:4]([C:5]([H:11])([H:12])[H:13])[H:6]"
C       -1.85818999       0.30077175      -0.08834314
C       -1.26233127      -0.65010127       0.91770732
C        0.03111349      -0.81171097       0.30123186
C        0.82891375       0.08944500      -0.12819438
C        2.24513629       0.25351610      -0.53207000
H       -0.09634568       1.03450797      -0.22951233
H       -2.94991808       0.32417063      -0.01497859
H       -1.68354366       0.39569850      -1.15348754
H       -1.89060033      -1.55498939       0.90557532
H       -1.21658654      -0.27997217       1.94143956
H        2.72729187       1.04734611       0.04232957
H        2.80311938      -0.66934608      -0.37313751
H        2.32194076       0.52066382      -1.58856016
13
Frame=6 idx=002832 GeodesicLength=0.5774778009765786 rxn_smarts="[C:1]([C:2]([C:3]#[C:4][C:5]([H:11])([H:12])[H:13])([H:9])[H:10])([H:6])([H:7])[H:8]>>[C:1]1([H:7])([H:8])[C:2]([H:9])([H:10])[C:3]1=[C:4]([C:5]([H:11])([H:12])[H:13])[H:6]"
C       -1.85526088       0.29726837      -0.08383947
C       -1.26054923      -0.65494217       0.92398452
C        0.01524342      -0.79436111       0.26487396
C        0.82735377       0.09973388      -0.14993115
C        2.25259959       0.24646146      -0.52582275
H       -0.12524697       1.05889838      -0.25428321
H       -2.94778325       0.29352602      -0.00865934
H       -1.71640620       0.43601170      -1.14966931
H       -1.87452453      -1.56816465       0.91874647
H       -1.20016010      -0.27912706       1.94461322
H        2.73056221       1.04214504       0.04970083
H        2.80043210      -0.67890491      -0.34632760
H        2.35374008       0.50145505      -1.58338615
13
Frame=7 idx=002832 GeodesicLength=0.6736746393128029 rxn_smarts="[C:1]([C:2]([C:3]#[C:4][C:5]([H:11])([H:12])[H:13])([H:9])[H:10])([H:6])([H:7])[H:8]>>[C:1]1([H:7])([H:8])[C:2]([H:9])([H:10])[C:3]1=[C:4]([C:5]([H:11])([H:12])[H:13])[H:6]"
C       -1.85209222       0.29340640      -0.08033547
C       -1.25797962      -0.65963030       0.92968474
C       -0.00000642      -0.77543185       0.23085716
C        0.82608294       0.11029554      -0.17179120
C        2.25959342       0.23891907      -0.51975418
H       -0.15508143       1.08432833      -0.27788477
H       -2.94475270       0.26228041      -0.00349906
H       -1.74967789       0.47728116      -1.14369759
H       -1.85605558      -1.58190087       0.93050842
H       -1.18499287      -0.27816408       1.94715447
H        2.73393489       1.03661538       0.05614405
H        2.79635914      -0.68882498      -0.31945453
H        2.38466835       0.48082577      -1.57793205
13
Frame=8 idx=002832 GeodesicLength=0.7698989721907915 rxn_smarts="[C:1]([C:2]([C:3]#[C:4][C:5]([H:11])([H:12])[H:13])([H:9])[H:10])([H:6])([H:7])[H:8]>>[C:1]1([H:7])([H:8])[C:2]([H:9])([H:10])[C:3]1=[C:4]([C:5]([H:11])([H:12])[H:13])[H:6]"
C       -1.84865625       0.28925663      -0.07786885
C       -1.25472219      -0.66413570       0.93480093
C       -0.01460118      -0.75509338       0.19917614
C        0.82516812       0.12104924      -0.19373443
C        2.26616544       0.23091474      -0.51391032
H       -0.18590036       1.11076224      -0.30004836
H       -2.94078405       0.23039575       0.00023421
H       -1.78336166       0.51936575      -1.13536565
H       -1.83530694      -1.59600639       0.94087820
H       -1.17117638      -0.27708016       1.94909147
H        2.73747108       1.03084347       0.06152825
H        2.79102652      -0.69895280      -0.29252042
H        2.41467785       0.45868061      -1.57226117
13
Frame=9 idx=002832 GeodesicLength=0.8663951056565644 rxn_smarts="[C:1]([C:2]([C:3]#[C:4][C:5]([H:11])([H:12])[H:13])([H:9])[H:10])([H:6])([H:7])[H:8]>>[C:1]1([H:7])([H:8])[C:2]([H:9])([H:10])[C:3]1=[C:4]([C:5]([H:11])([H:12])[H:13])[H:6]"
C       -1.84487463       0.28489414      -0.07640172
C       -1.25086990      -0.66839705       0.93942636
C       -0.02843545      -0.73314203       0.17009596
C        0.82472927       0.13208313      -0.21542576
C        2.27233268       0.22242903      -0.50834436
H       -0.21780164       1.13831272      -0.32056582
H       -2.93579925       0.19774185       0.00203685
H       -1.81734045       0.56185938      -1.12471007
H       -1.81229133      -1.61039946       0.94991703
H       -1.15903663      -0.27582676       1.95054613
H        2.74141987       1.02461585       0.06581492
H        2.78447536      -0.70944331      -0.26595297
H        2.44349212       0.43527251      -1.56643657
13
Frame=10 idx=002832 GeodesicLength=0.962884869745738 rxn_smarts="[C:1]([C:2]([C:3]#[C:4][C:5]([H:11])([H:12])[H:13])([H:9])[H:10])([H:6])([H:7])[H:8]>>[C:1]1([H:7])([H:8])[C:2]([H:9])([H:10])[C:3]1=[C:4]([C:5]([H:11])([H:12])[H:13])[H:6]"
C       -1.84081890       0.28035949      -0.07604227
C       -1.24653949      -0.67241039       0.94346002
C       -0.04150557      -0.71003334       0.14327451
C        0.82479864       0.14319441      -0.23707488
C        2.27819487       0.21352481      -0.50305533
H       -0.25078221       1.16681170      -0.33933356
H       -2.92981182       0.16445309       0.00202316
H       -1.85177679       0.60472231      -1.11138809
H       -1.78725457      -1.62489047       0.95762333
H       -1.14845904      -0.27433022       1.95150793
H        2.74570097       1.01820690       0.06892885
H        2.77693211      -0.71996251      -0.23942908
H        2.47132180       0.41035420      -1.56049459
13
Frame=11 idx=002832 GeodesicLength=1.0593851366934315 rxn_smarts="[C:1]([C:2]([C:3]#[C:4][C:5]([H:11])([H:12])[H:13])([H:9])[H:10])([H:6])([H:7])[H:8]>>[C:1]1([H:7])([H:8])[C:2]([H:9])([H:10])[C:3]1=[C:4]([C:5]([H:11])([H:12])[H:13])[H:6]"
C       -1.83646491       0.27569181      -0.07683681
C       -1.24184137      -0.67611687       0.94693683
C       -0.05374124      -0.68572734       0.11880156
C        0.82547306       0.15441399      -0.25846169
C        2.28380213       0.20420385      -0.49807865
H       -0.28490346       1.19628461      -0.35624699
H       -2.92277524       0.13051785      -0.00006137
H       -1.88663053       0.64759412      -1.09533069
H       -1.76024468      -1.63938781       0.96403927
H       -1.13967367      -0.27251124       1.95204696
H        2.75051720       1.01151131       0.07087013
H        2.76846799      -0.73053908      -0.21318002
H        2.49801470       0.38406480      -1.55449852
13
Frame=12 idx=002832 GeodesicLength=1.1559092398757698 rxn_smarts="[C:1]([C:2]([C:3]#[C:4][C:5]([H:11])([H:12])[H:13])([H:9])[H:10])([H:6])([H:7])[H:8]>>[C:1]1([H:7])([H:8])[C:2]([H:9])([H:10])[C:3]1=[C:4]([C:5]([H:11])([H:12])[H:13])[H:6]"
C       -1.83181076       0.27097405      -0.07880489
C       -1.23688608      -0.67949370       0.94985056
C       -0.06513197      -0.66025575       0.09666456
C        0.82682057       0.16571284      -0.27946684
C        2.28923589       0.19447554      -0.49343743
H       -0.32025472       1.22671800      -0.37119460
H       -2.91461659       0.09593326      -0.00443913
H       -1.92197276       0.69023277      -1.07636109
H       -1.73134763      -1.65372539       0.96919934
H       -1.13283827      -0.27039437       1.95218815
H        2.75602989       1.00453993       0.07153132
H        2.75923225      -0.74106517      -0.18722846
H        2.52354018       0.35634798      -1.54850149
13
Frame=13 idx=002832 GeodesicLength=1.2526166482508432 rxn_smarts="[C:1]([C:2]([C:3]#[C:4][C:5]([H:11])([H:12])[H:13])([H:9])[H:10])([H:6])([H:7])[H:8]>>[C:1]1([H:7])([H:8])[C:2]([H:9])([H:10])[C:3]1=[C:4]([C:5]([H:11])([H:12])[H:13])[H:6]"
C       -1.82683506       0.26634810      -0.08179375
C       -1.23171648      -0.68250833       0.95221119
C       -0.07560687      -0.63331637       0.07684742
C        0.82890091       0.17713621      -0.30008720
C        2.29454770       0.18430372      -0.48911924
H       -0.35698349       1.25820889      -0.38426898
H       -2.90525017       0.06074376      -0.01124185
H       -1.95797749       0.73222270      -1.05446803
H       -1.70054571      -1.66782150       0.97303050
H       -1.12807363      -0.26807363       1.95204160
H        2.76229533       0.99715766       0.07084839
H        2.74934890      -0.75157627      -0.16157472
H        2.54789607       0.32717505      -1.54242531
13
Frame=14 idx=002832 GeodesicLength=1.349241912310497 rxn_smarts="[C:1]([C:2]([C:3]#[C:4][C:5]([H:11])([H:12])[H:13])([H:9])[H:10])([H:6])([H:7])[H:8]>>[C:1]1([H:7])([H:8])[C:2]([H:9])([H:10])[C:3]1=[C:4]([C:5]([H:11])([H:12])[H:13])[H:6]"
C       -1.82154352       0.26184007      -0.08598953
C       -1.22648249      -0.68515826       0.95396156
C       -0.08517956      -0.60522275       0.05927689
C        0.83177917       0.18860256      -0.32016793
C        2.29984029       0.17374064      -0.48515287
H       -0.39512692       1.29065371      -0.39523560
H       -2.89461233       0.02506650      -0.02060059
H       -1.99470580       0.77347588      -1.02928731
H       -1.66797638      -1.68155392       0.97551943
H       -1.12552918      -0.26552773       1.95154562
H        2.76949598       0.98965936       0.06862706
H        2.73895292      -0.76186486      -0.13599640
H        2.57108783       0.29628881      -1.53650031
13
Frame=15 idx=002832 GeodesicLength=1.4457448359592466 rxn_smarts="[C:1]([C:2]([C:3]#[C:4][C:5]([H:11])([H:12])[H:13])([H:9])[H:10])([H:6])([H:7])[H:8]>>[C:1]1([H:7])([H:8])[C:2]([H:9])([H:10])[C:3]1=[C:4]([C:5]([H:11])([H:12])[H:13])[H:6]"
C       -1.81593014       0.25750562      -0.09140593
C       -1.22127725      -0.68736836       0.95512755
C       -0.09376852      -0.57576753       0.04403061
C        0.83554358       0.20018436      -0.33953360
C        2.30518791       0.16276058      -0.48154087
H       -0.43482737       1.32408939      -0.40418953
H       -2.88263126      -0.01105299      -0.03264429
H       -2.03221490       0.81345450      -1.00081310
H       -1.63363545      -1.69479799       0.97671152
H       -1.12545878      -0.26267078       1.95078534
H        2.77785970       0.98178812       0.06498080
H        2.72813283      -0.77204584      -0.11078335
H        2.59301965       0.26392093      -1.53072514
13
Frame=16 idx=002832 GeodesicLength=1.5421031293519856 rxn_smarts="[C:1]([C:2]([C:3]#[C:4][C:5]([H:11])([H:12])[H:13])([H:9])[H:10])([H:6])([H:7])[H:8]>>[C:1]1([H:7])([H:8])[C:2]([H:9])([H:10])[C:3]1=[C:4]([C:5]([H:11])([H:12])[H:13])[H:6]"
C       -1.80998955       0.25352243      -0.09797199
C       -1.21616859      -0.68919974       0.95560623
C       -0.10137697      -0.54479052       0.03103635
C        0.84022720       0.21191460      -0.35818803
C        2.31066774       0.15134686      -0.47828985
H       -0.47624480       1.35861213      -0.41093187
H       -2.86917527      -0.04751420      -0.04756548
H       -2.07069537       0.85205741      -0.96865683
H       -1.59749477      -1.70751522       0.97633786
H       -1.12799466      -0.25980152       1.94975626
H        2.78748960       0.97386700       0.05933627
H        2.71701702      -0.78182352      -0.08529168
H        2.61373842       0.22932429      -1.52517724
