9
Frame=0 idx=000857 GeodesicLength=0.0 rxn_smarts="[c:1]1([H:7])[c:2]([H:8])[n:3][n:4][n:5][c:6]1[H:9]>>[C:1]12([H:7])[C:2]([H:8])=[N:3][N:4]1[N:5]=[C:6]2[H:9]"
C       -0.00064713       0.78548815       0.27192257
C        1.19473317       0.07279360      -0.05917566
N        1.06729497      -1.24175589      -0.13154121
N        0.00086865      -1.37201051       0.63924484
N       -1.06493070      -1.24341370      -0.13252390
C       -1.19447496       0.07102471      -0.06007481
H       -0.00184860       1.86510224       0.33074918
H        2.10257097       0.53297224      -0.42912001
H       -2.10356633       0.52979919      -0.42948098
9
Frame=1 idx=000857 GeodesicLength=0.03553887937590558 rxn_smarts="[c:1]1([H:7])[c:2]([H:8])[n:3][n:4][n:5][c:6]1[H:9]>>[C:1]12([H:7])[C:2]([H:8])=[N:3][N:4]1[N:5]=[C:6]2[H:9]"
C       -0.00063797       0.77702586       0.26996892
C        1.19600627       0.07435609      -0.07734344
N        1.07342679      -1.24056427      -0.12099701
N        0.00083212      -1.36324251       0.64870652
N       -1.07102548      -1.24222498      -0.12213677
C       -1.19569969       0.07258784      -0.07840700
H       -0.00185280       1.85486854       0.35803117
H        2.10668282       0.53517574      -0.43881411
H       -2.10773206       0.53201770      -0.43900828
9
Frame=2 idx=000857 GeodesicLength=0.07110817417650953 rxn_smarts="[c:1]1([H:7])[c:2]([H:8])[n:3][n:4][n:5][c:6]1[H:9]>>[C:1]12([H:7])[C:2]([H:8])=[N:3][N:4]1[N:5]=[C:6]2[H:9]"
C       -0.00062913       0.76868080       0.26673499
C        1.19715452       0.07573611      -0.09585455
N        1.07966730      -1.23897817      -0.11092702
N        0.00078997      -1.35446785       0.65740082
N       -1.07723252      -1.24064219      -0.11223299
C       -1.19679427       0.07397022      -0.09708970
H       -0.00185516       1.84409368       0.38275147
H        2.11187321       0.53737998      -0.44538320
H       -2.11297392       0.53422743      -0.44539983
9
Frame=3 idx=000857 GeodesicLength=0.10673205562500487 rxn_smarts="[c:1]1([H:7])[c:2]([H:8])[n:3][n:4][n:5][c:6]1[H:9]>>[C:1]12([H:7])[C:2]([H:8])=[N:3][N:4]1[N:5]=[C:6]2[H:9]"
C       -0.00061746       0.76043521       0.26231558
C        1.19820476       0.07691703      -0.11474716
N        1.08600963      -1.23702987      -0.10127013
N        0.00075607      -1.34566855       0.66544377
N       -1.08356490      -1.23869619      -0.10268555
C       -1.19780235       0.07515812      -0.11608955
H       -0.00185072       1.83282574       0.40529414
H        2.11790810       0.53961431      -0.44917718
H       -2.11904312       0.53644422      -0.44908392
9
Frame=4 idx=000857 GeodesicLength=0.14241069391636496 rxn_smarts="[c:1]1([H:7])[c:2]([H:8])[n:3][n:4][n:5][c:6]1[H:9]>>[C:1]12([H:7])[C:2]([H:8])=[N:3][N:4]1[N:5]=[C:6]2[H:9]"
C       -0.00062594       0.75225874       0.25692888
C        1.19916860       0.07791474      -0.13385693
N        1.09245276      -1.23471008      -0.09189404
N        0.00074270      -1.33685439       0.67296905
N       -1.09000171      -1.23639747      -0.09338599
C       -1.19876849       0.07613259      -0.13528915
H       -0.00188081       1.82105330       0.42618586
H        2.12438820       0.54186731      -0.45092584
H       -2.12547531       0.53873526      -0.45073184
9
Frame=5 idx=000857 GeodesicLength=0.1780967996605119 rxn_smarts="[c:1]1([H:7])[c:2]([H:8])[n:3][n:4][n:5][c:6]1[H:9]>>[C:1]12([H:7])[C:2]([H:8])=[N:3][N:4]1[N:5]=[C:6]2[H:9]"
C       -0.00060898       0.74408256       0.25114718
C        1.20008131       0.07872242      -0.15279799
N        1.09893691      -1.23199355      -0.08268020
N        0.00073040      -1.32811674       0.68014210
N       -1.09653095      -1.23367953      -0.08413068
C       -1.19969282       0.07696048      -0.15413282
H       -0.00184830       1.80869017       0.44620365
H        2.13046220       0.54427356      -0.45192762
H       -2.13152978       0.54106063      -0.45182361
9
Frame=6 idx=000857 GeodesicLength=0.2137965668282079 rxn_smarts="[c:1]1([H:7])[c:2]([H:8])[n:3][n:4][n:5][c:6]1[H:9]>>[C:1]12([H:7])[C:2]([H:8])=[N:3][N:4]1[N:5]=[C:6]2[H:9]"
C       -0.00060145       0.73589198       0.24543331
C        1.20101408       0.07941478      -0.17107793
N        1.10551610      -1.22890155      -0.07356269
N        0.00072740      -1.31964182       0.68697109
N       -1.10313000      -1.23060198      -0.07500287
C       -1.20064126       0.07764740      -0.17235654
H       -0.00184152       1.79586223       0.46543966
H        2.13586958       0.54677707      -0.45295148
H       -2.13691292       0.54355189      -0.45289257
9
Frame=7 idx=000857 GeodesicLength=0.24952704715387325 rxn_smarts="[c:1]1([H:7])[c:2]([H:8])[n:3][n:4][n:5][c:6]1[H:9]>>[C:1]12([H:7])[C:2]([H:8])=[N:3][N:4]1[N:5]=[C:6]2[H:9]"
C       -0.00060435       0.72764629       0.24008995
C        1.20196709       0.07999353      -0.18845093
N        1.11217889      -1.22545711      -0.06444198
N        0.00073191      -1.31150741       0.69355460
N       -1.10980014      -1.22717648      -0.06590527
C       -1.20162857       0.07821390      -0.18970916
H       -0.00185105       1.78254748       0.48433901
H        2.14036705       0.54947291      -0.45476730
H       -2.14136083       0.54626690      -0.45470891
9
Frame=8 idx=000857 GeodesicLength=0.2852745896209005 rxn_smarts="[c:1]1([H:7])[c:2]([H:8])[n:3][n:4][n:5][c:6]1[H:9]>>[C:1]12([H:7])[C:2]([H:8])=[N:3][N:4]1[N:5]=[C:6]2[H:9]"
C       -0.00058935       0.71933992       0.23528768
C        1.20294916       0.08048241      -0.20485544
N        1.11890284      -1.22167541      -0.05531518
N        0.00072410      -1.30375379       0.69993899
N       -1.11654914      -1.22340642      -0.05676038
C       -1.20262431       0.07870971      -0.20602232
H       -0.00182441       1.76875699       0.50312924
H        2.14387168       0.55239461      -0.45769268
H       -2.14486056       0.54915197      -0.45770992
9
Frame=9 idx=000857 GeodesicLength=0.32107259327672155 rxn_smarts="[c:1]1([H:7])[c:2]([H:8])[n:3][n:4][n:5][c:6]1[H:9]>>[C:1]12([H:7])[C:2]([H:8])=[N:3][N:4]1[N:5]=[C:6]2[H:9]"
C       -0.00058788       0.71098382       0.23102104
C        1.20394643       0.08090182      -0.22027997
N        1.12571793      -1.21759347      -0.04614048
N        0.00072524      -1.29639326       0.70614490
N       -1.12338603      -1.21934133      -0.04757559
C       -1.20365500       0.07912459      -0.22139678
H       -0.00182065       1.75453932       0.52186990
H        2.14657343       0.55551344      -0.46179474
H       -2.14751347       0.55226507      -0.46184829
9
Frame=10 idx=000857 GeodesicLength=0.356915393550268 rxn_smarts="[c:1]1([H:7])[c:2]([H:8])[n:3][n:4][n:5][c:6]1[H:9]>>[C:1]12([H:7])[C:2]([H:8])=[N:3][N:4]1[N:5]=[C:6]2[H:9]"
C       -0.00057208       0.70260628       0.22719952
C        1.20496350       0.08127279      -0.23488553
N        1.13262757      -1.21322574      -0.03694116
N        0.00073467      -1.28939781       0.71216874
N       -1.13031829      -1.21499178      -0.03834233
C       -1.20469337       0.07949523      -0.23591336
H       -0.00178637       1.73992619       0.54052839
H        2.14858582       0.55878910      -0.46683309
H       -2.14954146       0.55552573      -0.46698118
9
Frame=11 idx=000857 GeodesicLength=0.3927902675435898 rxn_smarts="[c:1]1([H:7])[c:2]([H:8])[n:3][n:4][n:5][c:6]1[H:9]>>[C:1]12([H:7])[C:2]([H:8])=[N:3][N:4]1[N:5]=[C:6]2[H:9]"
C       -0.00056561       0.69418736       0.22378081
C        1.20596534       0.08159090      -0.24870716
N        1.13961099      -1.20857022      -0.02770700
N        0.00073768      -1.28273283       0.71800954
N       -1.13732858      -1.21034349      -0.02906550
C       -1.20570702       0.07981601      -0.24969690
H       -0.00178482       1.72489985       0.55906762
H        2.15003877       0.56221260      -0.47274245
H       -2.15096674       0.55893981      -0.47293898
9
Frame=12 idx=000857 GeodesicLength=0.42869405256497034 rxn_smarts="[c:1]1([H:7])[c:2]([H:8])[n:3][n:4][n:5][c:6]1[H:9]>>[C:1]12([H:7])[C:2]([H:8])=[N:3][N:4]1[N:5]=[C:6]2[H:9]"
C       -0.00055706       0.68572594       0.22073268
C        1.20695885       0.08186682      -0.26186741
N        1.14668079      -1.20367000      -0.01853835
N        0.00075228      -1.27644880       0.72358662
N       -1.14443860      -1.20545803      -0.01981963
C       -1.20673689       0.08008819      -0.26277357
H       -0.00175480       1.70963136       0.57710088
H        2.15110469       0.56578022      -0.47905871
H       -2.15200926       0.56248431      -0.47936251
9
Frame=13 idx=000857 GeodesicLength=0.4646283789702385 rxn_smarts="[c:1]1([H:7])[c:2]([H:8])[n:3][n:4][n:5][c:6]1[H:9]>>[C:1]12([H:7])[C:2]([H:8])=[N:3][N:4]1[N:5]=[C:6]2[H:9]"
C       -0.00054928       0.67722384       0.21802095
C        1.20796350       0.08209580      -0.27438570
N        1.15385286      -1.19855219      -0.00938758
N        0.00076489      -1.27054332       0.72892295
N       -1.15164411      -1.20034849      -0.01060553
C       -1.20776876       0.08031820      -0.27523344
H       -0.00173272       1.69414504       0.59470316
H        2.15177749       0.56948768      -0.48582427
H       -2.15266387       0.56617345      -0.48621053
9
Frame=14 idx=000857 GeodesicLength=0.5006132519359221 rxn_smarts="[c:1]1([H:7])[c:2]([H:8])[n:3][n:4][n:5][c:6]1[H:9]>>[C:1]12([H:7])[C:2]([H:8])=[N:3][N:4]1[N:5]=[C:6]2[H:9]"
C       -0.00053946       0.66867316       0.21558590
C        1.20897263       0.08227345      -0.28634606
N        1.16112659      -1.19321150      -0.00023691
N        0.00076830      -1.26498748       0.73402384
N       -1.15895095      -1.19501768      -0.00140124
C       -1.20879456       0.08049701      -0.28713725
H       -0.00170571       1.67843146       0.61190295
H        2.15210500       0.57334027      -0.49296503
H       -2.15298185       0.57000131      -0.49342620
9
Frame=15 idx=000857 GeodesicLength=0.5366430336159129 rxn_smarts="[c:1]1([H:7])[c:2]([H:8])[n:3][n:4][n:5][c:6]1[H:9]>>[C:1]12([H:7])[C:2]([H:8])=[N:3][N:4]1[N:5]=[C:6]2[H:9]"
C       -0.00052759       0.66008104       0.21337145
C        1.20996911       0.08240567      -0.29781131
N        1.16850136      -1.18764566       0.00892187
N        0.00078129      -1.25975241       0.73889106
N       -1.16635479      -1.18946134       0.00780318
C       -1.20980789       0.08062592      -0.29856902
H       -0.00168258       1.66249670       0.62871687
H        2.15213840       0.57729875      -0.50040029
H       -2.15301731       0.57395133      -0.50092380
9
Frame=16 idx=000857 GeodesicLength=0.5726878551639657 rxn_smarts="[c:1]1([H:7])[c:2]([H:8])[n:3][n:4][n:5][c:6]1[H:9]>>[C:1]12([H:7])[C:2]([H:8])=[N:3][N:4]1[N:5]=[C:6]2[H:9]"
C       -0.00051834       0.65143057       0.21143550
C        1.21095764       0.08250053      -0.30877954
N        1.17597365      -1.18188015       0.01805439
N        0.00078625      -1.25489236       0.74349009
N       -1.17385420      -1.18370468       0.01697061
C       -1.21081048       0.08072140      -0.30950506
H       -0.00165864       1.64644821       0.64499483
H        2.15191618       0.58136969      -0.50804310
H       -2.15279206       0.57800678      -0.50861771
