11
Frame=0 idx=009945 GeodesicLength=0.0 rxn_smarts="[C:1]([C:2](=[O:3])[C:4](=[O:5])[C:6](=[O:7])[H:11])([H:8])([H:9])[H:10]>>[C:1](=[C:2]([O:3][H:10])[C:4](=[O:5])[C:6](=[O:7])[H:11])([H:8])[H:9]"
C       -1.69611069      -0.31247269      -0.31573054
C       -0.44078760       0.31691728      -0.27933142
O       -0.23822686       0.99110718      -1.33827675
C        0.59246083       0.33336654       0.80511041
O        0.35996345       0.72691587       1.91501285
C        1.97685735      -0.22327942       0.45273487
O        2.16880531      -0.90296936      -0.50977383
H       -2.25546408      -0.55056227       0.58059594
H       -1.74152293      -1.07065227      -1.09752527
H       -1.47668343       0.66988939      -1.41672417
H        2.75070865       0.02173979       1.20390786
11
Frame=1 idx=009945 GeodesicLength=0.061328624476600826 rxn_smarts="[C:1]([C:2](=[O:3])[C:4](=[O:5])[C:6](=[O:7])[H:11])([H:8])([H:9])[H:10]>>[C:1](=[C:2]([O:3][H:10])[C:4](=[O:5])[C:6](=[O:7])[H:11])([H:8])[H:9]"
C       -1.71251711      -0.29586687      -0.30814289
C       -0.43315249       0.28551551      -0.29424731
O       -0.21878065       0.93511135      -1.36675957
C        0.59206979       0.30827196       0.79755113
O        0.34266394       0.67776770       1.91251205
C        1.99342553      -0.21212929       0.45939684
O        2.24218274      -0.81440967      -0.54086206
H       -2.26675734      -0.49238688       0.60140272
H       -1.80083255      -1.06701826      -1.07292046
H       -1.48266216       0.66703902      -1.42938127
H        2.74436032       0.00810544       1.24145081
11
Frame=2 idx=009945 GeodesicLength=0.12062009871876397 rxn_smarts="[C:1]([C:2](=[O:3])[C:4](=[O:5])[C:6](=[O:7])[H:11])([H:8])([H:9])[H:10]>>[C:1](=[C:2]([O:3][H:10])[C:4](=[O:5])[C:6](=[O:7])[H:11])([H:8])[H:9]"
C       -1.72765207      -0.27913652      -0.30084275
C       -0.42604480       0.25233462      -0.30869201
O       -0.20042431       0.87561165      -1.39504130
C        0.59193580       0.28350245       0.78952170
O        0.32693328       0.62927147       1.90886780
C        2.00860868      -0.20191826       0.46564158
O        2.31189191      -0.71865372      -0.56683336
H       -2.27501833      -0.43430142       0.62079189
H       -1.85966407      -1.06105553      -1.04764727
H       -1.48766477       0.66387033      -1.44199858
H        2.73709868      -0.00952506       1.27623230
11
Frame=3 idx=009945 GeodesicLength=0.17857006605328274 rxn_smarts="[C:1]([C:2](=[O:3])[C:4](=[O:5])[C:6](=[O:7])[H:11])([H:8])([H:9])[H:10]>>[C:1](=[C:2]([O:3][H:10])[C:4](=[O:5])[C:6](=[O:7])[H:11])([H:8])[H:9]"
C       -1.74169301      -0.26229373      -0.29362234
C       -0.41954693       0.21707297      -0.32288661
O       -0.18357176       0.81183921      -1.42362278
C        0.59216901       0.25950128       0.78080338
O        0.31289285       0.58226502       1.90397965
C        2.02305897      -0.19090789       0.47053515
O        2.37899668      -0.61257583      -0.58803990
H       -2.28064724      -0.37507323       0.63911404
H       -1.91802321      -1.05341286      -1.02086592
H       -1.49189581       0.65944165      -1.45516688
H        2.72826045      -0.03585659       1.30977221
11
Frame=4 idx=009945 GeodesicLength=0.23541972091908314 rxn_smarts="[C:1]([C:2](=[O:3])[C:4](=[O:5])[C:6](=[O:7])[H:11])([H:8])([H:9])[H:10]>>[C:1](=[C:2]([O:3][H:10])[C:4](=[O:5])[C:6](=[O:7])[H:11])([H:8])[H:9]"
C       -1.75469981      -0.24509496      -0.28617618
C       -0.41351041       0.17848700      -0.33700543
O       -0.16789853       0.74150935      -1.45292512
C        0.59266967       0.23618452       0.77116469
O        0.30046574       0.53692698       1.89754715
C        2.03708025      -0.17704773       0.47343775
O        2.44444091      -0.49127740      -0.60377557
H       -2.28388793      -0.31273662       0.65648485
H       -1.97670102      -1.04411563      -0.99141682
H       -1.49474624       0.65280180      -1.46917880
H        2.71678737      -0.07563730       1.34184348
11
Frame=5 idx=009945 GeodesicLength=0.2908173913170622 rxn_smarts="[C:1]([C:2](=[O:3])[C:4](=[O:5])[C:6](=[O:7])[H:11])([H:8])([H:9])[H:10]>>[C:1](=[C:2]([O:3][H:10])[C:4](=[O:5])[C:6](=[O:7])[H:11])([H:8])[H:9]"
C       -1.76675409      -0.22673688      -0.27896996
C       -0.40812364       0.13675767      -0.35008428
O       -0.15237820       0.66339479      -1.48213573
C        0.59312061       0.21257144       0.76170935
O        0.28946148       0.49069431       1.89125399
C        2.05021133      -0.16141766       0.47476020
O        2.50520423      -0.35551225      -0.61176677
H       -2.28509036      -0.24627585       0.67194104
H       -2.03544577      -1.03233683      -0.95953264
H       -1.49479351       0.64341368      -1.48499750
H        2.70458792      -0.12455242       1.36782230
11
Frame=6 idx=009945 GeodesicLength=0.3446068916155127 rxn_smarts="[C:1]([C:2](=[O:3])[C:4](=[O:5])[C:6](=[O:7])[H:11])([H:8])([H:9])[H:10]>>[C:1](=[C:2]([O:3][H:10])[C:4](=[O:5])[C:6](=[O:7])[H:11])([H:8])[H:9]"
C       -1.77792931      -0.20607696      -0.27247066
C       -0.40340798       0.09124416      -0.36140295
O       -0.13596052       0.57522657      -1.51048133
C        0.59323972       0.18720396       0.75332959
O        0.27947376       0.43906170       1.88661600
C        2.06263774      -0.14209472       0.47440440
O        2.55775605      -0.20728665      -0.61001770
H       -2.28429162      -0.17404918       0.68457965
H       -2.09502293      -1.01645098      -0.92552002
H       -1.49036653       0.63092775      -1.50331135
H        2.69387161      -0.17770566       1.38427436
11
Frame=7 idx=009945 GeodesicLength=0.39696441473139144 rxn_smarts="[C:1]([C:2](=[O:3])[C:4](=[O:5])[C:6](=[O:7])[H:11])([H:8])([H:9])[H:10]>>[C:1](=[C:2]([O:3][H:10])[C:4](=[O:5])[C:6](=[O:7])[H:11])([H:8])[H:9]"
C       -1.78819801      -0.18142087      -0.26701138
C       -0.39944530       0.03955585      -0.37036246
O       -0.11768324       0.47280420      -1.53693388
C        0.59265095       0.15744424       0.74667732
O        0.27002724       0.37569476       1.88471531
C        2.07429607      -0.11655280       0.47232582
O        2.59941317      -0.04582896      -0.59761637
H       -2.28140063      -0.09208011       0.69328490
H       -2.15722814      -0.99377612      -0.88904873
H       -1.47914747       0.61441846      -1.52482159
H        2.68671536      -0.23025866       1.38879106
11
Frame=8 idx=009945 GeodesicLength=0.4476557437460902 rxn_smarts="[C:1]([C:2](=[O:3])[C:4](=[O:5])[C:6](=[O:7])[H:11])([H:8])([H:9])[H:10]>>[C:1](=[C:2]([O:3][H:10])[C:4](=[O:5])[C:6](=[O:7])[H:11])([H:8])[H:9]"
C       -1.79697759      -0.15080884      -0.26356706
C       -0.39667240      -0.01881916      -0.37604771
O       -0.09729648       0.35475288      -1.55959371
C        0.59105489       0.12058849       0.74292341
O        0.26078351       0.29155455       1.88711570
C        2.08436733      -0.08286598       0.46953149
O        2.62377979       0.12206834      -0.57581794
H       -2.27454604       0.00181122       0.69670781
H       -2.22234709      -0.96087803      -0.85116591
H       -1.45908729       0.59328479      -1.55048187
H        2.68694136      -0.27068826       1.38039578
11
Frame=9 idx=009945 GeodesicLength=0.4963358899896238 rxn_smarts="[C:1]([C:2](=[O:3])[C:4](=[O:5])[C:6](=[O:7])[H:11])([H:8])([H:9])[H:10]>>[C:1](=[C:2]([O:3][H:10])[C:4](=[O:5])[C:6](=[O:7])[H:11])([H:8])[H:9]"
C       -1.80251770      -0.11313231      -0.26271977
C       -0.39545287      -0.08568651      -0.37814834
O       -0.07561225       0.22025370      -1.57651161
C        0.58819021       0.07397316       0.74244307
O        0.25242402       0.18488718       1.89271286
C        2.09069158      -0.04046209       0.46707993
O        2.62534626       0.29484140      -0.54662498
H       -2.25937532       0.10757363       0.69452299
H       -2.29004726      -0.91391868      -0.81311847
H       -1.42860582       0.56677802      -1.58001635
H        2.69495915      -0.29510750       1.36038067
11
Frame=10 idx=009945 GeodesicLength=0.5440868442894646 rxn_smarts="[C:1]([C:2](=[O:3])[C:4](=[O:5])[C:6](=[O:7])[H:11])([H:8])([H:9])[H:10]>>[C:1](=[C:2]([O:3][H:10])[C:4](=[O:5])[C:6](=[O:7])[H:11])([H:8])[H:9]"
C       -1.80227286      -0.06930737      -0.26483353
C       -0.39639769      -0.16061786      -0.37659759
O       -0.05455678       0.07475059      -1.58563203
C        0.58423481       0.01684679       0.74503576
O        0.24622485       0.06164076       1.89928720
C        2.09030281       0.00823472       0.46575688
O        2.59960962       0.46536127      -0.51285866
H       -2.23102694       0.21905964       0.68765876
H       -2.35674159      -0.85083448      -0.77784199
H       -1.38821470       0.53583150      -1.61159856
H        2.70883848      -0.30096556       1.33162376
11
Frame=11 idx=009945 GeodesicLength=0.5933881154999867 rxn_smarts="[C:1]([C:2](=[O:3])[C:4](=[O:5])[C:6](=[O:7])[H:11])([H:8])([H:9])[H:10]>>[C:1](=[C:2]([O:3][H:10])[C:4](=[O:5])[C:6](=[O:7])[H:11])([H:8])[H:9]"
C       -1.79422685      -0.02562047      -0.26930578
C       -0.39969345      -0.23793387      -0.37223913
O       -0.03658845      -0.06414141      -1.58620671
C        0.58007386      -0.04678183       0.74914496
O        0.24273614      -0.05495826       1.90421023
C        2.08148114       0.05469839       0.46511543
O        2.54908939       0.61981428      -0.47733031
H       -2.18862710       0.32141501       0.67866653
H       -2.41430351      -0.77792324      -0.74948606
H       -1.34336700       0.50488842      -1.64066848
H        2.72342582      -0.29345702       1.29809932
11
Frame=12 idx=009945 GeodesicLength=0.6463074738724244 rxn_smarts="[C:1]([C:2](=[O:3])[C:4](=[O:5])[C:6](=[O:7])[H:11])([H:8])([H:9])[H:10]>>[C:1](=[C:2]([O:3][H:10])[C:4](=[O:5])[C:6](=[O:7])[H:11])([H:8])[H:9]"
C       -1.77941343       0.01387017      -0.27482321
C       -0.40521215      -0.31305938      -0.36663270
O       -0.02277679      -0.18729077      -1.58147083
C        0.57719408      -0.11505481       0.75286479
O        0.24129965      -0.15268856       1.90759904
C        2.06631327       0.09261400       0.46332227
O        2.48149680       0.75085642      -0.44269868
H       -2.13658759       0.40682171       0.67027313
H       -2.45975091      -0.70115810      -0.72927054
H       -1.29857378       0.47912870      -1.66482818
H        2.73601085      -0.27403938       1.26566490
11
Frame=13 idx=009945 GeodesicLength=0.7029323515174879 rxn_smarts="[C:1]([C:2](=[O:3])[C:4](=[O:5])[C:6](=[O:7])[H:11])([H:8])([H:9])[H:10]>>[C:1](=[C:2]([O:3][H:10])[C:4](=[O:5])[C:6](=[O:7])[H:11])([H:8])[H:9]"
C       -1.75936110       0.04851889      -0.28056687
C       -0.41227271      -0.38294571      -0.36022143
O       -0.01217470      -0.29525246      -1.57369912
C        0.57560740      -0.18168088       0.75582455
O        0.24080231      -0.23407556       1.91012392
C        2.04654620       0.12373803       0.46018722
O        2.40320325       0.86215720      -0.40839168
H       -2.07855683       0.47844150       0.66232438
H       -2.49310711      -0.62537737      -0.71379325
H       -1.25561838       0.45697731      -1.68547951
H        2.74493167      -0.25050095       1.23369179
11
Frame=14 idx=009945 GeodesicLength=0.7622957281566921 rxn_smarts="[C:1]([C:2](=[O:3])[C:4](=[O:5])[C:6](=[O:7])[H:11])([H:8])([H:9])[H:10]>>[C:1](=[C:2]([O:3][H:10])[C:4](=[O:5])[C:6](=[O:7])[H:11])([H:8])[H:9]"
C       -1.73623422       0.07833593      -0.28631687
C       -0.42033931      -0.44575889      -0.35310144
O       -0.00381284      -0.38913682      -1.56397583
C        0.57478446      -0.24152259       0.75830873
O        0.24067804      -0.30208232       1.91233399
C        2.02400509       0.15013526       0.45619482
O        2.32062461       0.95571613      -0.37469975
H       -2.01836776       0.53792506       0.65468965
H       -2.51592667      -0.55382516      -0.70130435
H       -1.21569305       0.43771623      -1.70368640
H        2.75028164      -0.22750282       1.20155745
11
Frame=15 idx=009945 GeodesicLength=0.8236913084126096 rxn_smarts="[C:1]([C:2](=[O:3])[C:4](=[O:5])[C:6](=[O:7])[H:11])([H:8])([H:9])[H:10]>>[C:1](=[C:2]([O:3][H:10])[C:4](=[O:5])[C:6](=[O:7])[H:11])([H:8])[H:9]"
C       -1.71151596       0.10400389      -0.29200664
C       -0.42904986      -0.50171536      -0.34539381
O        0.00299104      -0.47149599      -1.55294801
C        0.57428270      -0.29369305       0.76057879
O        0.24073187      -0.35958003       1.91444119
C        2.00004824       0.17289134       0.45153398
O        2.23720999       1.03456428      -0.34160658
H       -1.95828599       0.58727288       0.64736981
H       -2.53050865      -0.48713289      -0.69089649
H       -1.17870721       0.42106524      -1.72013453
H        2.75280384      -0.20618031       1.16906229
11
Frame=16 idx=009945 GeodesicLength=0.8862398894817849 rxn_smarts="[C:1]([C:2](=[O:3])[C:4](=[O:5])[C:6](=[O:7])[H:11])([H:8])([H:9])[H:10]>>[C:1](=[C:2]([O:3][H:10])[C:4](=[O:5])[C:6](=[O:7])[H:11])([H:8])[H:9]"
C       -1.68638916       0.12592890      -0.29754092
C       -0.43821528      -0.55143775      -0.33708735
O        0.00865837      -0.54430096      -1.54084670
C        0.57376179      -0.33805277       0.76281393
O        0.24089964      -0.40769257       1.91662776
C        1.97572670       0.19257258       0.44607541
O        2.15581833       1.10121695      -0.30906369
H       -1.90036634       0.62731304       0.64069651
H       -2.53881565      -0.42532990      -0.68265927
H       -1.14428535       0.40707506      -1.73498451
H        2.75320695      -0.18729257       1.13596883
