12
Frame=0 idx=004366 GeodesicLength=0.0 rxn_smarts="[O:1]=[C:2]([C@@:3]1([H:8])[C:4]([H:9])([H:10])[C:5]([H:11])([H:12])[O:6]1)[H:7]>>[O-:1][C:2](=[C+:3][C:4]([C:5]([O:6][H:8])([H:11])[H:12])([H:9])[H:10])[H:7]"
O        2.67501003      -0.70538207      -0.17420882
C        1.87305547      -0.00748616       0.41072388
C        0.65275241       0.42096083      -0.21058993
C       -0.37604683      -0.51145841      -0.80530209
C       -1.44072442       0.03048751       0.14427600
O       -0.55502431       0.83903036       0.98720281
H        2.06955034       0.39708747       1.42404468
H       -0.06152197       1.49520039       0.26230470
H       -0.14828331      -1.56666205      -0.64379935
H       -0.57098386      -0.34690666      -1.86439062
H       -1.91681749      -0.70761892       0.78530601
H       -2.20096609       0.66274766      -0.31556724
12
Frame=1 idx=004366 GeodesicLength=0.05409221540730433 rxn_smarts="[O:1]=[C:2]([C@@:3]1([H:8])[C:4]([H:9])([H:10])[C:5]([H:11])([H:12])[O:6]1)[H:7]>>[O-:1][C:2](=[C+:3][C:4]([C:5]([O:6][H:8])([H:11])[H:12])([H:9])[H:10])[H:7]"
O        2.66959706      -0.71007235      -0.16878521
C        1.86911229      -0.00959778       0.41480471
C        0.64902472       0.42207490      -0.20729432
C       -0.37659898      -0.51088352      -0.80798065
C       -1.43916679       0.02665637       0.14645196
O       -0.54843740       0.84187630       0.97747736
H        2.06393721       0.39079430       1.43026499
H       -0.05632182       1.51413714       0.24863886
H       -0.14493114      -1.56598380      -0.65207530
H       -0.57386761      -0.34060517      -1.86568176
H       -1.90624356      -0.71214939       0.79349234
H       -2.20610397       0.65375302      -0.30931299
12
Frame=2 idx=004366 GeodesicLength=0.1081931507005096 rxn_smarts="[O:1]=[C:2]([C@@:3]1([H:8])[C:4]([H:9])([H:10])[C:5]([H:11])([H:12])[O:6]1)[H:7]>>[O-:1][C:2](=[C+:3][C:4]([C:5]([O:6][H:8])([H:11])[H:12])([H:9])[H:10])[H:7]"
O        2.66416706      -0.71464450      -0.16337772
C        1.86511482      -0.01161091       0.41882675
C        0.64529078       0.42330324      -0.20415820
C       -0.37715382      -0.51029057      -0.81064121
C       -1.43757821       0.02280737       0.14866205
O       -0.54205288       0.84475942       0.96774618
H        2.05803234       0.38435032       1.43654618
H       -0.05071359       1.53286278       0.23495116
H       -0.14151743      -1.56522501      -0.66029411
H       -0.57686664      -0.33440229      -1.86691784
H       -1.89558861      -0.71664828       0.80162544
H       -2.21113381       0.64473843      -0.30296867
12
Frame=3 idx=004366 GeodesicLength=0.1622908272458324 rxn_smarts="[O:1]=[C:2]([C@@:3]1([H:8])[C:4]([H:9])([H:10])[C:5]([H:11])([H:12])[O:6]1)[H:7]>>[O-:1][C:2](=[C+:3][C:4]([C:5]([O:6][H:8])([H:11])[H:12])([H:9])[H:10])[H:7]"
O        2.65871331      -0.71911411      -0.15796744
C        1.86105727      -0.01354123       0.42280207
C        0.64154933       0.42463491      -0.20117211
C       -0.37771472      -0.50967594      -0.81328345
C       -1.43596077       0.01893648       0.15090439
O       -0.53586812       0.84765375       0.95801482
H        2.05185932       0.37780818       1.44286029
H       -0.04469029       1.55137830       0.22124132
H       -0.13804811      -1.56437945      -0.66846711
H       -0.57998252      -0.32828438      -1.86809329
H       -1.88485834      -0.72112163       0.80968949
H       -2.21605637       0.63570512      -0.29652898
12
Frame=4 idx=004366 GeodesicLength=0.21640698609463205 rxn_smarts="[O:1]=[C:2]([C@@:3]1([H:8])[C:4]([H:9])([H:10])[C:5]([H:11])([H:12])[O:6]1)[H:7]>>[O-:1][C:2](=[C+:3][C:4]([C:5]([O:6][H:8])([H:11])[H:12])([H:9])[H:10])[H:7]"
O        2.65322144      -0.72350781      -0.15252222
C        1.85693931      -0.01536667       0.42673244
C        0.63780845       0.42608558      -0.19835519
C       -0.37828081      -0.50902777      -0.81592383
C       -1.43429707       0.01503172       0.15319723
O       -0.52987287       0.85060802       0.94825865
H        2.04535114       0.37109404       1.44925485
H       -0.03824173       1.56973549       0.20743490
H       -0.13451393      -1.56343992      -0.67663187
H       -0.58323544      -0.32222576      -1.86922320
H       -1.87398298      -0.72558789       0.81774091
H       -2.22089550       0.62660096      -0.28996269
12
Frame=5 idx=004366 GeodesicLength=0.27054924816979364 rxn_smarts="[O:1]=[C:2]([C@@:3]1([H:8])[C:4]([H:9])([H:10])[C:5]([H:11])([H:12])[O:6]1)[H:7]>>[O-:1][C:2](=[C+:3][C:4]([C:5]([O:6][H:8])([H:11])[H:12])([H:9])[H:10])[H:7]"
O        2.64766373      -0.72787881      -0.14698041
C        1.85275853      -0.01707142       0.43062356
C        0.63407520       0.42766455      -0.19572465
C       -0.37885328      -0.50832681      -0.81857990
C       -1.43256785       0.01107926       0.15555916
O       -0.52405767       0.85365928       0.93844128
H        2.03845274       0.36417459       1.45576070
H       -0.03135707       1.58796624       0.19345358
H       -0.13090573      -1.56238681      -0.68484001
H       -0.58665224      -0.31618135      -1.87031404
H       -1.86287920      -0.73006881       0.82582465
H       -2.22567715       0.61737008      -0.28322393
12
Frame=6 idx=004366 GeodesicLength=0.32469680644010274 rxn_smarts="[O:1]=[C:2]([C@@:3]1([H:8])[C:4]([H:9])([H:10])[C:5]([H:11])([H:12])[O:6]1)[H:7]>>[O-:1][C:2](=[C+:3][C:4]([C:5]([O:6][H:8])([H:11])[H:12])([H:9])[H:10])[H:7]"
O        2.64201381      -0.73227739      -0.14128357
C        1.84850492      -0.01865434       0.43449313
C        0.63036136       0.42937975      -0.19329452
C       -0.37943241      -0.50755165      -0.82127162
C       -1.43075354       0.00706533       0.15800916
O       -0.51841569       0.85685764       0.92852576
H        2.03110344       0.35702173       1.46239827
H       -0.02402300       1.60609987       0.17922533
H       -0.12721558      -1.56120126      -0.69314841
H       -0.59025840      -0.31010419      -1.87137715
H       -1.85145653      -0.73458565       0.83399403
H       -2.23042839       0.60795015      -0.27627041
12
Frame=7 idx=004366 GeodesicLength=0.3788889111593033 rxn_smarts="[O:1]=[C:2]([C@@:3]1([H:8])[C:4]([H:9])([H:10])[C:5]([H:11])([H:12])[O:6]1)[H:7]>>[O-:1][C:2](=[C+:3][C:4]([C:5]([O:6][H:8])([H:11])[H:12])([H:9])[H:10])[H:7]"
O        2.63628677      -0.73664558      -0.13548363
C        1.84416469      -0.02014737       0.43835347
C        0.62665018       0.43121157      -0.19103529
C       -0.38002395      -0.50672250      -0.82398253
C       -1.42887001       0.00299762       0.16052900
O       -0.51295415       0.86012442       0.91856330
H        2.02337583       0.34971576       1.46912391
H       -0.01622609       1.62411921       0.16480474
H       -0.12346447      -1.55989877      -0.70152039
H       -0.59403227      -0.30403324      -1.87240060
H       -1.83979759      -0.73912237       0.84218214
H       -2.23510894       0.59840125      -0.26913413
12
Frame=8 idx=004366 GeodesicLength=0.4331092678186288 rxn_smarts="[O:1]=[C:2]([C@@:3]1([H:8])[C:4]([H:9])([H:10])[C:5]([H:11])([H:12])[O:6]1)[H:7]>>[O-:1][C:2](=[C+:3][C:4]([C:5]([O:6][H:8])([H:11])[H:12])([H:9])[H:10])[H:7]"
O        2.63047166      -0.74101788      -0.12953445
C        1.83973759      -0.02154079       0.44221554
C        0.62295239       0.43317070      -0.18896412
C       -0.38063019      -0.50582126      -0.82673089
C       -1.42690355      -0.00113528       0.16313711
O       -0.50766879       0.86351030       0.90851651
H        2.01520493       0.34220841       1.47597340
H       -0.00794633       1.64205053       0.15011743
H       -0.11964373      -1.55846519      -0.71000152
H       -0.59799977      -0.29792916      -1.87339595
H       -1.82782425      -0.74369942       0.85044000
H       -2.23974998       0.58866905      -0.26177305
12
Frame=9 idx=004366 GeodesicLength=0.4873666830275236 rxn_smarts="[O:1]=[C:2]([C@@:3]1([H:8])[C:4]([H:9])([H:10])[C:5]([H:11])([H:12])[O:6]1)[H:7]>>[O-:1][C:2](=[C+:3][C:4]([C:5]([O:6][H:8])([H:11])[H:12])([H:9])[H:10])[H:7]"
O        2.62454293      -0.74541897      -0.12339076
C        1.83522020      -0.02280808       0.44608006
C        0.61927497       0.43527654      -0.18709648
C       -0.38124916      -0.50482775      -0.82952588
C       -1.42482764      -0.00534458       0.16584983
O       -0.50255445       0.86705630       0.89834098
H        2.00650054       0.33440544       1.48297484
H        0.00082598       1.65992483       0.13508489
H       -0.11573705      -1.55687092      -0.71862226
H       -0.60218898      -0.29176329      -1.87436100
H       -1.81544073      -0.74831749       0.85881282
H       -2.24436659       0.57868796      -0.25414704
12
Frame=10 idx=004366 GeodesicLength=0.5416722438121901 rxn_smarts="[O:1]=[C:2]([C@@:3]1([H:8])[C:4]([H:9])([H:10])[C:5]([H:11])([H:12])[O:6]1)[H:7]>>[O-:1][C:2](=[C+:3][C:4]([C:5]([O:6][H:8])([H:11])[H:12])([H:9])[H:10])[H:7]"
O        2.61849217      -0.74985253      -0.11705012
C        1.83060774      -0.02395024       0.44995508
C        0.61561599       0.43752748      -0.18543103
C       -0.38188429      -0.50374435      -0.83237418
C       -1.42264082      -0.00963424       0.16867160
O       -0.49761232       0.87075450       0.88804843
H        1.99725679       0.32633380       1.49013082
H        0.01011478       1.67774658       0.11969717
H       -0.11174926      -1.55512219      -0.72739766
H       -0.60660420      -0.28553253      -1.87530251
H       -1.80264667      -0.75298630       0.86729700
H       -2.24894989       0.56846002      -0.24624460
12
Frame=11 idx=004366 GeodesicLength=0.5960009510452783 rxn_smarts="[O:1]=[C:2]([C@@:3]1([H:8])[C:4]([H:9])([H:10])[C:5]([H:11])([H:12])[O:6]1)[H:7]>>[O-:1][C:2](=[C+:3][C:4]([C:5]([O:6][H:8])([H:11])[H:12])([H:9])[H:10])[H:7]"
O        2.61231366      -0.75430745      -0.11050838
C        1.82589662      -0.02496384       0.45384144
C        0.61197110       0.43991738      -0.18396690
C       -0.38253747      -0.50256733      -0.83527184
C       -1.42033866      -0.01400467       0.17160401
O       -0.49284562       0.87459393       0.87763197
H        1.98745310       0.31799161       1.49743787
H        0.01993958       1.69549765       0.10393864
H       -0.10767657      -1.55320630      -0.73633011
H       -0.61125315      -0.27923241      -1.87620368
H       -1.78943025      -0.75770137       0.87588010
H       -2.25349235       0.55798280      -0.23805313
12
Frame=12 idx=004366 GeodesicLength=0.6503982134337717 rxn_smarts="[O:1]=[C:2]([C@@:3]1([H:8])[C:4]([H:9])([H:10])[C:5]([H:11])([H:12])[O:6]1)[H:7]>>[O-:1][C:2](=[C+:3][C:4]([C:5]([O:6][H:8])([H:11])[H:12])([H:9])[H:10])[H:7]"
O        2.60597866      -0.75882653      -0.10371119
C        1.82107098      -0.02585756       0.45777119
C        0.60834957       0.44245987      -0.18270577
C       -0.38321213      -0.50127783      -0.83823748
C       -1.41790054      -0.01847172       0.17466143
O       -0.48825315       0.87860872       0.86706252
H        1.97704253       0.30936180       1.50489421
H        0.03032067       1.71321599       0.08774657
H       -0.10352093      -1.55110565      -0.74546984
H       -0.61615761      -0.27282056      -1.87708010
H       -1.77570793      -0.76247624       0.88460280
H       -2.25801011       0.54718970      -0.22953434
12
Frame=13 idx=004366 GeodesicLength=0.7048395366449457 rxn_smarts="[O:1]=[C:2]([C@@:3]1([H:8])[C:4]([H:9])([H:10])[C:5]([H:11])([H:12])[O:6]1)[H:7]>>[O-:1][C:2](=[C+:3][C:4]([C:5]([O:6][H:8])([H:11])[H:12])([H:9])[H:10])[H:7]"
O        2.59949381      -0.76337570      -0.09669466
C        1.81613060      -0.02663446       0.46173810
C        0.60473993       0.44514422      -0.18163216
C       -0.38391117      -0.49988989      -0.84125843
C       -1.41533991      -0.02303017       0.17783246
O       -0.48384472       0.88274446       0.85637582
H        1.96605938       0.30050516       1.51247008
H        0.04128355       1.73086613       0.07117092
H       -0.09928824      -1.54883005      -0.75478850
H       -0.62130604      -0.26632634      -1.87791932
H       -1.76154356      -0.76730201       0.89341317
H       -2.26247362       0.53612864      -0.22070748
12
Frame=14 idx=004366 GeodesicLength=0.7593309814770267 rxn_smarts="[O:1]=[C:2]([C@@:3]1([H:8])[C:4]([H:9])([H:10])[C:5]([H:11])([H:12])[O:6]1)[H:7]>>[O-:1][C:2](=[C+:3][C:4]([C:5]([O:6][H:8])([H:11])[H:12])([H:9])[H:10])[H:7]"
O        2.59286234      -0.76793656      -0.08948367
C        1.81107014      -0.02731535       0.46575131
C        0.60113061       0.44795645      -0.18071834
C       -0.38463931      -0.49841505      -0.84432351
C       -1.41267324      -0.02767810       0.18110210
O       -0.47962782       0.88694158       0.84561346
H        1.95457016       0.29151601       1.52011044
H        0.05284798       1.74842348       0.05426668
H       -0.09499242      -1.54638876      -0.76426362
H       -0.62668174      -0.25976671      -1.87871342
H       -1.74700651      -0.77217608       0.90225747
H       -2.26686020       0.52483909      -0.21159890
12
Frame=15 idx=004366 GeodesicLength=0.8138635425222323 rxn_smarts="[O:1]=[C:2]([C@@:3]1([H:8])[C:4]([H:9])([H:10])[C:5]([H:11])([H:12])[O:6]1)[H:7]>>[O-:1][C:2](=[C+:3][C:4]([C:5]([O:6][H:8])([H:11])[H:12])([H:9])[H:10])[H:7]"
O        2.58609097      -0.77248560      -0.08210853
C        1.80588589      -0.02791711       0.46981493
C        0.59751099       0.45088424      -0.17994012
C       -0.38540044      -0.49686515      -0.84742093
C       -1.40991661      -0.03241219       0.18445616
O       -0.47561048       0.89114878       0.83481369
H        1.94263455       0.28247209       1.52776977
H        0.06503212       1.76586432       0.03708853
H       -0.09064571      -1.54379146      -0.77386992
H       -0.63226734      -0.25316163      -1.87945448
H       -1.73216325      -0.77709410       0.91108837
H       -2.27115069       0.51335781      -0.20223748
12
Frame=16 idx=004366 GeodesicLength=0.8684292723288598 rxn_smarts="[O:1]=[C:2]([C@@:3]1([H:8])[C:4]([H:9])([H:10])[C:5]([H:11])([H:12])[O:6]1)[H:7]>>[O-:1][C:2](=[C+:3][C:4]([C:5]([O:6][H:8])([H:11])[H:12])([H:9])[H:10])[H:7]"
O        2.57918756      -0.77699843      -0.07460035
C        1.80057580      -0.02845189       0.47392982
C        0.59387044       0.45391762      -0.17927526
C       -0.38619805      -0.49525125      -0.85053903
C       -1.40708571      -0.03722927       0.18788167
O       -0.47179976       0.89532092       0.82401307
H        1.93030693       0.27343770       1.53541078
H        0.07785364       1.78316719       0.01968386
H       -0.08625855      -1.54104718      -0.78358200
H       -0.63804620      -0.24653059      -1.88013501
H       -1.71707649      -0.78205288       0.91986430
H       -2.27532961       0.50171807      -0.19265186
