15
Frame=0 idx=009341 GeodesicLength=0.0 rxn_smarts="[C:1]([n:2]1[c:3]([H:11])[c:4]([C:5]([H:12])([H:13])[H:14])[c:6]([H:15])[n:7]1)([H:8])([H:9])[H:10]>>[C:1]([C@:3]1([H:11])[N:2]=[N:7][C:6]([H:15])=[C:4]1[C:5]([H:12])([H:13])[H:14])([H:8])([H:9])[H:10]"
C       -1.85314090      -0.72356324      -0.20463677
N       -1.37031247       0.68039049       0.91763614
C       -0.32058141      -0.24798234       0.85516456
C        0.73349297       0.29060150       0.11377359
C        2.05372308      -0.33041824      -0.20684007
C        0.22831203       1.52699105      -0.25621161
N       -1.01917981       1.73712935       0.19276023
H       -1.67522996      -0.25187901      -1.16351348
H       -2.88451233      -0.65610899       0.11906296
H       -1.52792105      -1.76251655      -0.19732506
H       -0.30191049      -1.07436260       1.55118030
H        1.95246968      -1.13164481      -0.94358790
H        2.52158657      -0.75914723       0.68127560
H        2.73987914       0.40949768      -0.61933530
H        0.72332501       2.29301294      -0.83940319
15
Frame=1 idx=009341 GeodesicLength=0.04379540279947822 rxn_smarts="[C:1]([n:2]1[c:3]([H:11])[c:4]([C:5]([H:12])([H:13])[H:14])[c:6]([H:15])[n:7]1)([H:8])([H:9])[H:10]>>[C:1]([C@:3]1([H:11])[N:2]=[N:7][C:6]([H:15])=[C:4]1[C:5]([H:12])([H:13])[H:14])([H:8])([H:9])[H:10]"
C       -1.85504104      -0.73311550      -0.19337090
N       -1.37091885       0.68816043       0.90196555
C       -0.32080661      -0.24003654       0.85346404
C        0.73945204       0.30038533       0.11884760
C        2.05406377      -0.32833775      -0.20778334
C        0.23565049       1.53375954      -0.25983320
N       -1.01803998       1.74183806       0.17855900
H       -1.68761957      -0.28187709      -1.16442535
H       -2.88697928      -0.66585494       0.13008070
H       -1.53337217      -1.77315285      -0.17497535
H       -0.29889988      -1.04899826       1.56979388
H        1.96039430      -1.06422492      -1.01057711
H        2.48501775      -0.84087248       0.65418394
H        2.77450238       0.42234940      -0.53386432
H        0.72259666       2.28997756      -0.86206515
15
Frame=2 idx=009341 GeodesicLength=0.08921846608291484 rxn_smarts="[C:1]([n:2]1[c:3]([H:11])[c:4]([C:5]([H:12])([H:13])[H:14])[c:6]([H:15])[n:7]1)([H:8])([H:9])[H:10]>>[C:1]([C@:3]1([H:11])[N:2]=[N:7][C:6]([H:15])=[C:4]1[C:5]([H:12])([H:13])[H:14])([H:8])([H:9])[H:10]"
C       -1.86215723      -0.74196053      -0.18009187
N       -1.36897662       0.69487824       0.88614948
C       -0.32062857      -0.23520666       0.84679653
C        0.74380441       0.30558498       0.11510317
C        2.05783753      -0.32505437      -0.20794971
C        0.24240641       1.53719452      -0.26943747
N       -1.01533494       1.74520795       0.16332291
H       -1.70865930      -0.31180442      -1.16345410
H       -2.89306939      -0.67257302       0.14768351
H       -1.54634538      -1.78368626      -0.15189313
H       -0.29424994      -1.02610958       1.58313494
H        1.98449673      -0.99187759      -1.07068703
H        2.44792440      -0.91494496       0.62342878
H        2.80725166       0.43202769      -0.44142824
H        0.72570022       2.28832401      -0.88067777
15
Frame=3 idx=009341 GeodesicLength=0.13489959961483122 rxn_smarts="[C:1]([n:2]1[c:3]([H:11])[c:4]([C:5]([H:12])([H:13])[H:14])[c:6]([H:15])[n:7]1)([H:8])([H:9])[H:10]>>[C:1]([C@:3]1([H:11])[N:2]=[N:7][C:6]([H:15])=[C:4]1[C:5]([H:12])([H:13])[H:14])([H:8])([H:9])[H:10]"
C       -1.86873719      -0.75202032      -0.16641463
N       -1.36783513       0.70196468       0.86806037
C       -0.32070492      -0.22937216       0.84005233
C        0.74785152       0.31122676       0.11076774
C        2.06079187      -0.32218076      -0.20934535
C        0.24927118       1.54109709      -0.27991028
N       -1.01350612       1.74817676       0.14463088
H       -1.72924782      -0.34488073      -1.16210483
H       -2.89872046      -0.68052913       0.16532511
H       -1.55817346      -1.79505941      -0.12641901
H       -0.28950962      -1.00046992       1.59720524
H        2.01099037      -0.91608529      -1.12521863
H        2.40881422      -0.98637669       0.58376356
H        2.83520792       0.43311867      -0.34919945
H        0.73350764       2.29139045      -0.89119304
15
Frame=4 idx=009341 GeodesicLength=0.18071958657074597 rxn_smarts="[C:1]([n:2]1[c:3]([H:11])[c:4]([C:5]([H:12])([H:13])[H:14])[c:6]([H:15])[n:7]1)([H:8])([H:9])[H:10]>>[C:1]([C@:3]1([H:11])[N:2]=[N:7][C:6]([H:15])=[C:4]1[C:5]([H:12])([H:13])[H:14])([H:8])([H:9])[H:10]"
C       -1.87600622      -0.76250551      -0.15230342
N       -1.36671128       0.70876110       0.84851735
C       -0.32089079      -0.22381614       0.83211298
C        0.75141713       0.31614224       0.10432699
C        2.06397189      -0.31943355      -0.21115342
C        0.25614052       1.54464446      -0.29178210
N       -1.01185603       1.75053665       0.12391991
H       -1.75139056      -0.37960310      -1.16003392
H       -2.90479904      -0.68842931       0.18406734
H       -1.57080479      -1.80670100      -0.09974770
H       -0.28434429      -0.97400284       1.61006532
H        2.04227244      -0.83882769      -1.17212554
H        2.36989734      -1.05188174       0.53798031
H        2.85812864       0.42706629      -0.25859134
H        0.74497503       2.29805012      -0.89525275
15
Frame=5 idx=009341 GeodesicLength=0.22649827880279028 rxn_smarts="[C:1]([n:2]1[c:3]([H:11])[c:4]([C:5]([H:12])([H:13])[H:14])[c:6]([H:15])[n:7]1)([H:8])([H:9])[H:10]>>[C:1]([C@:3]1([H:11])[N:2]=[N:7][C:6]([H:15])=[C:4]1[C:5]([H:12])([H:13])[H:14])([H:8])([H:9])[H:10]"
C       -1.88419947      -0.77269546      -0.13796404
N       -1.36522639       0.71489407       0.82845050
C       -0.32107896      -0.21920932       0.82288107
C        0.75462724       0.32001148       0.09597674
C        2.06782333      -0.31670463      -0.21277682
C        0.26327319       1.54788229      -0.30397551
N       -1.00986875       1.75243893       0.10295155
H       -1.77546464      -0.41446734      -1.15707182
H       -2.91144885      -0.69541630       0.20390118
H       -1.58480890      -1.81801345      -0.07297798
H       -0.27868857      -0.94802387       1.62093881
H        2.07898223      -0.76036296      -1.21102460
H        2.33255825      -1.11095839       0.48743552
H        2.87598525       0.41512677      -0.16934363
H        0.75753507       2.30549817      -0.89740096
15
Frame=6 idx=009341 GeodesicLength=0.2735302592420484 rxn_smarts="[C:1]([n:2]1[c:3]([H:11])[c:4]([C:5]([H:12])([H:13])[H:14])[c:6]([H:15])[n:7]1)([H:8])([H:9])[H:10]>>[C:1]([C@:3]1([H:11])[N:2]=[N:7][C:6]([H:15])=[C:4]1[C:5]([H:12])([H:13])[H:14])([H:8])([H:9])[H:10]"
C       -1.89446593      -0.78303318      -0.12220472
N       -1.36287189       0.72055989       0.80698927
C       -0.32098572      -0.21558219       0.81079690
C        0.75685575       0.32192585       0.08214605
C        2.07298331      -0.31342402      -0.21479569
C        0.27009646       1.54998890      -0.31965169
N       -1.00772125       1.75341820       0.07962304
H       -1.80391036      -0.45073749      -1.15232203
H       -2.91921692      -0.70156587       0.22757779
H       -1.60140195      -1.82940399      -0.04445508
H       -0.27149306      -0.92177777       1.62887863
H        2.12484575      -0.67929996      -1.24265353
H        2.29488284      -1.16483061       0.43098383
H        2.88928841       0.39760452      -0.07678325
H        0.77311456       2.31615772      -0.89412953
15
Frame=7 idx=009341 GeodesicLength=0.3200971268269281 rxn_smarts="[C:1]([n:2]1[c:3]([H:11])[c:4]([C:5]([H:12])([H:13])[H:14])[c:6]([H:15])[n:7]1)([H:8])([H:9])[H:10]>>[C:1]([C@:3]1([H:11])[N:2]=[N:7][C:6]([H:15])=[C:4]1[C:5]([H:12])([H:13])[H:14])([H:8])([H:9])[H:10]"
C       -1.90387454      -0.79319102      -0.10673765
N       -1.36085120       0.72584829       0.78491439
C       -0.32092397      -0.21189848       0.79896946
C        0.75937437       0.32439850       0.06933163
C        2.07775427      -0.31044421      -0.21668197
C        0.27777488       1.55328200      -0.33301990
N       -1.00556709       1.75436866       0.05631893
H       -1.83142864      -0.48726327      -1.14691896
H       -2.92624895      -0.70755210       0.25041244
H       -1.61693444      -1.84033131      -0.01574235
H       -0.26425257      -0.89508298       1.63627055
H        2.17209335      -0.59647005      -1.26643393
H        2.25803929      -1.21409847       0.36815993
H        2.89734216       0.37263406       0.01354080
H        0.78770306       2.32580037      -0.89238338
15
Frame=8 idx=009341 GeodesicLength=0.36655129158174105 rxn_smarts="[C:1]([n:2]1[c:3]([H:11])[c:4]([C:5]([H:12])([H:13])[H:14])[c:6]([H:15])[n:7]1)([H:8])([H:9])[H:10]>>[C:1]([C@:3]1([H:11])[N:2]=[N:7][C:6]([H:15])=[C:4]1[C:5]([H:12])([H:13])[H:14])([H:8])([H:9])[H:10]"
C       -1.91415785      -0.80269183      -0.09105561
N       -1.35823808       0.73028281       0.76273943
C       -0.32065666      -0.20944358       0.78561016
C        0.76168384       0.32588761       0.05445170
C        2.08341545      -0.30718476      -0.21809026
C        0.28563327       1.55631564      -0.34660819
N       -1.00290633       1.75502418       0.03364292
H       -1.86128014      -0.52304303      -1.14028904
H       -2.93359017      -0.71236746       0.27473769
H       -1.63376042      -1.85058517       0.01253762
H       -0.25616694      -0.86965763       1.64098329
H        2.22416992      -0.51340403      -1.28110984
H        2.22399144      -1.25653300       0.30164135
H        2.90008089       0.34253342       0.10220823
H        0.80178178       2.33486682      -0.89139945
15
Frame=9 idx=009341 GeodesicLength=0.41272392734219265 rxn_smarts="[C:1]([n:2]1[c:3]([H:11])[c:4]([C:5]([H:12])([H:13])[H:14])[c:6]([H:15])[n:7]1)([H:8])([H:9])[H:10]>>[C:1]([C@:3]1([H:11])[N:2]=[N:7][C:6]([H:15])=[C:4]1[C:5]([H:12])([H:13])[H:14])([H:8])([H:9])[H:10]"
C       -1.92292901      -0.81279208      -0.07548409
N       -1.35648528       0.73475194       0.73874728
C       -0.32046708      -0.20592547       0.77277920
C        0.76426110       0.32873477       0.04070543
C        2.08797461      -0.30448083      -0.22025384
C        0.29411956       1.56099456      -0.35845772
N       -1.00088987       1.75553098       0.00896563
H       -1.88913023      -0.56091375      -1.13302722
H       -2.93971191      -0.71802079       0.29795413
H       -1.64831932      -1.86086781       0.04240987
H       -0.24816617      -0.84198259       1.64606654
H        2.27555211      -0.43037593      -1.28842927
H        2.18937772      -1.29415827       0.22861884
H        2.89805975       0.30373317       0.18696905
H        0.81675400       2.34577212      -0.88756385
15
Frame=10 idx=009341 GeodesicLength=0.4598789838483133 rxn_smarts="[C:1]([n:2]1[c:3]([H:11])[c:4]([C:5]([H:12])([H:13])[H:14])[c:6]([H:15])[n:7]1)([H:8])([H:9])[H:10]>>[C:1]([C@:3]1([H:11])[N:2]=[N:7][C:6]([H:15])=[C:4]1[C:5]([H:12])([H:13])[H:14])([H:8])([H:9])[H:10]"
C       -1.93490242      -0.82176214      -0.05845286
N       -1.35289539       0.73792868       0.71489627
C       -0.31971795      -0.20524114       0.75579488
C        0.76584120       0.32824197       0.01999209
C        2.09511164      -0.30066536      -0.22153309
C        0.30194841       1.56327019      -0.37471850
N       -0.99784281       1.75521498      -0.01533022
H       -1.92386734      -0.59739709      -1.12318449
H       -2.94740816      -0.72085111       0.32631840
H       -1.66742667      -1.87033104       0.07239979
H       -0.23786390      -0.81729455       1.64572881
H        2.33756702      -0.34563319      -1.28496937
H        2.16049873      -1.32396059       0.15257237
H        2.88897715       0.26212934       0.27384773
H        0.83198047       2.35635105      -0.88336181
15
Frame=11 idx=009341 GeodesicLength=0.5046539337748005 rxn_smarts="[C:1]([n:2]1[c:3]([H:11])[c:4]([C:5]([H:12])([H:13])[H:14])[c:6]([H:15])[n:7]1)([H:8])([H:9])[H:10]>>[C:1]([C@:3]1([H:11])[N:2]=[N:7][C:6]([H:15])=[C:4]1[C:5]([H:12])([H:13])[H:14])([H:8])([H:9])[H:10]"
C       -1.94109204      -0.83158578      -0.04420115
N       -1.35212441       0.74154180       0.68966628
C       -0.31961252      -0.20122894       0.74425745
C        0.76956471       0.33351591       0.01057235
C        2.09829576      -0.29874699      -0.22355365
C        0.31169115       1.57056672      -0.38135311
N       -0.99582753       1.75598948      -0.03924740
H       -1.94807463      -0.63588568      -1.11511503
H       -2.95154160      -0.72661620       0.34628164
H       -1.67877068      -1.87958121       0.10210426
H       -0.23074851      -0.78871522       1.65037107
H        2.38536534      -0.26656920      -1.27611501
H        2.12893775      -1.34884619       0.07274572
H        2.87896329       0.21007870       0.34591432
H        0.84497393       2.36608279      -0.88232774
15
Frame=12 idx=009341 GeodesicLength=0.5500762433606028 rxn_smarts="[C:1]([n:2]1[c:3]([H:11])[c:4]([C:5]([H:12])([H:13])[H:14])[c:6]([H:15])[n:7]1)([H:8])([H:9])[H:10]>>[C:1]([C@:3]1([H:11])[N:2]=[N:7][C:6]([H:15])=[C:4]1[C:5]([H:12])([H:13])[H:14])([H:8])([H:9])[H:10]"
C       -1.95086569      -0.83998060      -0.02859608
N       -1.34915133       0.74351486       0.66516030
C       -0.31882721      -0.20072150       0.72805444
C        0.77227963       0.33498054      -0.00637311
C        2.10436158      -0.29534520      -0.22453581
C        0.32058366       1.57489526      -0.39284330
N       -0.99245299       1.75602485      -0.06156997
H       -1.98025031      -0.67183209      -1.10429241
H       -2.95727636      -0.72935241       0.37205518
H       -1.69514213      -1.88784622       0.13089584
H       -0.22114255      -0.76439939       1.64874568
H        2.44301347      -0.18722827      -1.25621362
H        2.10527572      -1.36510100      -0.00734221
H        2.86180485       0.15755718       0.41888743
H        0.85778965       2.37483399      -0.88203234
15
Frame=13 idx=009341 GeodesicLength=0.5946303033508888 rxn_smarts="[C:1]([n:2]1[c:3]([H:11])[c:4]([C:5]([H:12])([H:13])[H:14])[c:6]([H:15])[n:7]1)([H:8])([H:9])[H:10]>>[C:1]([C@:3]1([H:11])[N:2]=[N:7][C:6]([H:15])=[C:4]1[C:5]([H:12])([H:13])[H:14])([H:8])([H:9])[H:10]"
C       -1.95775460      -0.84896460      -0.01413536
N       -1.34767659       0.74561203       0.63911587
C       -0.31832039      -0.19843218       0.71420753
C        0.77604186       0.33953659      -0.01815461
C        2.10860729      -0.29284506      -0.22612142
C        0.33031562       1.58198695      -0.39982504
N       -0.98973487       1.75651503      -0.08464614
H       -2.00739820      -0.70967772      -1.09373364
H       -2.96113367      -0.73352091       0.39415208
H       -1.70750132      -1.89595641       0.16040273
H       -0.21315497      -0.73749546       1.64923258
H        2.49451774      -0.11216450      -1.23047062
H        2.08058690      -1.37571176      -0.09058009
H        2.84259703       0.09695452       0.48268455
H        0.87000818       2.38416348      -0.88212842
15
Frame=14 idx=009341 GeodesicLength=0.6383613583459322 rxn_smarts="[C:1]([n:2]1[c:3]([H:11])[c:4]([C:5]([H:12])([H:13])[H:14])[c:6]([H:15])[n:7]1)([H:8])([H:9])[H:10]>>[C:1]([C@:3]1([H:11])[N:2]=[N:7][C:6]([H:15])=[C:4]1[C:5]([H:12])([H:13])[H:14])([H:8])([H:9])[H:10]"
C       -1.96381989      -0.85730344      -0.00075779
N       -1.34627315       0.74690313       0.61369119
C       -0.31784742      -0.19671960       0.70120512
C        0.78061924       0.34507633      -0.02664682
C        2.11269443      -0.29044979      -0.22687269
C        0.34065343       1.59002935      -0.40314934
N       -0.98642139       1.75744238      -0.10500185
H       -2.03318116      -0.74627022      -1.08305620
H       -2.96442663      -0.73710262       0.41434139
H       -1.71926621      -1.90328715       0.18844350
H       -0.20615308      -0.71194714       1.64935111
H        2.54289076      -0.04029237      -1.19754630
H        2.05924079      -1.37958859      -0.17392896
H        2.82156496       0.03317768       0.53871010
H        0.87972532       2.39033207      -0.88878246
15
Frame=15 idx=009341 GeodesicLength=0.6819875230017844 rxn_smarts="[C:1]([n:2]1[c:3]([H:11])[c:4]([C:5]([H:12])([H:13])[H:14])[c:6]([H:15])[n:7]1)([H:8])([H:9])[H:10]>>[C:1]([C@:3]1([H:11])[N:2]=[N:7][C:6]([H:15])=[C:4]1[C:5]([H:12])([H:13])[H:14])([H:8])([H:9])[H:10]"
C       -1.96854201      -0.86589598       0.01221900
N       -1.34538953       0.74793560       0.58708367
C       -0.31735267      -0.19429352       0.68897527
C        0.78573774       0.35219665      -0.03295732
C        2.11607227      -0.28821216      -0.22796372
C        0.35131371       1.59949946      -0.40428779
N       -0.98320507       1.75856653      -0.12566944
H       -2.05696435      -0.78406112      -1.07180697
H       -2.96667090      -0.74125995       0.43336422
H       -1.72911352      -1.91031713       0.21709248
H       -0.19993108      -0.68510575       1.64984447
H        2.58952652       0.02814556      -1.15807512
H        2.03809067      -1.37679878      -0.25962025
H        2.79747851      -0.03691949       0.58821199
H        0.88894971       2.39652009      -0.89641048
15
Frame=16 idx=009341 GeodesicLength=0.7252265065365742 rxn_smarts="[C:1]([n:2]1[c:3]([H:11])[c:4]([C:5]([H:12])([H:13])[H:14])[c:6]([H:15])[n:7]1)([H:8])([H:9])[H:10]>>[C:1]([C@:3]1([H:11])[N:2]=[N:7][C:6]([H:15])=[C:4]1[C:5]([H:12])([H:13])[H:14])([H:8])([H:9])[H:10]"
C       -1.97373656      -0.87359807       0.02472711
N       -1.34388057       0.74794211       0.56136166
C       -0.31668756      -0.19337154       0.67617429
C        0.79116947       0.35892661      -0.03869854
C        2.12020023      -0.28556520      -0.22807856
C        0.36217410       1.60882398      -0.40385408
N       -0.97912555       1.75997065      -0.14339932
H       -2.08206263      -0.81991594      -1.05977692
H       -2.96898112      -0.74405974       0.45260860
H       -1.74005344      -1.91655257       0.24426041
H       -0.19388289      -0.66080260       1.64855027
H        2.63572815       0.09422955      -1.11060778
H        2.02237664      -1.36681476      -0.34453041
H        2.77079149      -0.10832087       0.63168489
H        0.89597024       2.39910840      -0.91042162
