12
Frame=0 idx=005641 GeodesicLength=0.0 rxn_smarts="[C:1]1([H:7])([H:8])[C@@:2]2([H:9])[C@@:3]3([H:10])[O:4][C@:5]1([H:11])[C@@:6]23[H:12]>>[C:1]1([H:7])([H:8])[C@:2]([C:3](=[O:4])[H:10])([H:9])[C:6]([H:12])=[C:5]1[H:11]"
C        1.10061883      -0.38451889      -0.45317112
C        0.30763128       0.89696586      -0.14718224
C       -1.08333615       0.50660488      -0.46296404
O       -1.37589323      -0.70032592      -0.86103200
C        0.07344454      -1.04214366       0.41840868
C       -0.26614741       0.18403972       1.07384654
H        2.05870376      -0.34258607       0.06636987
H        1.20739336      -0.71792927      -1.48423067
H        0.66544613       1.91784420      -0.21199512
H       -1.82187735       1.30492108      -0.57741262
H       -0.08914067      -2.08302876       0.66036714
H       -0.77684305       0.46015686       1.97899558
12
Frame=1 idx=005641 GeodesicLength=0.03559095429609667 rxn_smarts="[C:1]1([H:7])([H:8])[C@@:2]2([H:9])[C@@:3]3([H:10])[O:4][C@:5]1([H:11])[C@@:6]23[H:12]>>[C:1]1([H:7])([H:8])[C@:2]([C:3](=[O:4])[H:10])([H:9])[C:6]([H:12])=[C:5]1[H:11]"
C        1.10147116      -0.38572258      -0.45091999
C        0.30520815       0.89428761      -0.14782618
C       -1.08874763       0.51197755      -0.46959494
O       -1.37580678      -0.69441952      -0.87377089
C        0.07235883      -1.04567183       0.41974511
C       -0.26916529       0.18220264       1.07288005
H        2.06214602      -0.34298866       0.06355160
H        1.20488188      -0.72034426      -1.48205983
H        0.66358155       1.91529880      -0.20671381
H       -1.82726812       1.31093398      -0.57948074
H       -0.07904021      -2.08630592       0.67084647
H       -0.76961955       0.46075217       1.98334315
12
Frame=2 idx=005641 GeodesicLength=0.07118508671272288 rxn_smarts="[C:1]1([H:7])([H:8])[C@@:2]2([H:9])[C@@:3]3([H:10])[O:4][C@:5]1([H:11])[C@@:6]23[H:12]>>[C:1]1([H:7])([H:8])[C@:2]([C:3](=[O:4])[H:10])([H:9])[C:6]([H:12])=[C:5]1[H:11]"
C        1.10225681      -0.38696501      -0.44865491
C        0.30272813       0.89156237      -0.14844008
C       -1.09416665       0.51746415      -0.47633714
O       -1.37571056      -0.68833474      -0.88667522
C        0.07116776      -1.04928899       0.42103032
C       -0.27232082       0.18026478       1.07188033
H        2.06551566      -0.34344263       0.06070097
H        1.20233269      -0.72276663      -1.47987311
H        0.66168762       1.91266891      -0.20135789
H       -1.83267174       1.31704017      -0.58158513
H       -0.06856725      -2.08945220       0.68164899
H       -0.76225165       0.46124984       1.98766287
12
Frame=3 idx=005641 GeodesicLength=0.10675142736761759 rxn_smarts="[C:1]1([H:7])([H:8])[C@@:2]2([H:9])[C@@:3]3([H:10])[O:4][C@:5]1([H:11])[C@@:6]23[H:12]>>[C:1]1([H:7])([H:8])[C@:2]([C:3](=[O:4])[H:10])([H:9])[C:6]([H:12])=[C:5]1[H:11]"
C        1.10297358      -0.38824969      -0.44637527
C        0.30018884       0.88878552      -0.14902119
C       -1.09958717       0.52306776      -0.48318673
O       -1.37559713      -0.68206348      -0.89973822
C        0.06987158      -1.05299671       0.42226123
C       -0.27561718       0.17822385       1.07084325
H        2.06880834      -0.34395128       0.05781544
H        1.19974536      -0.72519718      -1.47766775
H        0.65975945       1.90994575      -0.19593095
H       -1.83808500       1.32323837      -0.58371780
H       -0.05771447      -2.09244469       0.69277687
H       -0.75474620       0.46164178       1.99194113
12
Frame=4 idx=005641 GeodesicLength=0.1423184590999838 rxn_smarts="[C:1]1([H:7])([H:8])[C@@:2]2([H:9])[C@@:3]3([H:10])[O:4][C@:5]1([H:11])[C@@:6]23[H:12]>>[C:1]1([H:7])([H:8])[C@:2]([C:3](=[O:4])[H:10])([H:9])[C:6]([H:12])=[C:5]1[H:11]"
C        1.10361874      -0.38957863      -0.44407881
C        0.29758898       0.88595673      -0.14957072
C       -1.10501133       0.52879045      -0.49015201
O       -1.37547049      -0.67560507      -0.91297306
C        0.06846340      -1.05680259       0.42344046
C       -0.27905979       0.17607510       1.06977072
H        2.07202260      -0.34451422       0.05489996
H        1.19711706      -0.72764099      -1.47544386
H        0.65779890       1.90713105      -0.19042758
H       -1.84351114       1.32953021      -0.58588131
H       -0.04647003      -2.09526324       0.70423457
H       -0.74708691       0.46192121       1.99618163
12
Frame=5 idx=005641 GeodesicLength=0.177884808950756 rxn_smarts="[C:1]1([H:7])([H:8])[C@@:2]2([H:9])[C@@:3]3([H:10])[O:4][C@:5]1([H:11])[C@@:6]23[H:12]>>[C:1]1([H:7])([H:8])[C@:2]([C:3](=[O:4])[H:10])([H:9])[C:6]([H:12])=[C:5]1[H:11]"
C        1.10418782      -0.39095563      -0.44176577
C        0.29492408       0.88307271      -0.15008754
C       -1.11043774       0.53463713      -0.49723656
O       -1.37532399      -0.66895136      -0.92639045
C        0.06693629      -1.06071287       0.42456221
C       -0.28265955       0.17381294       1.06865807
H        2.07515185      -0.34513611       0.05195498
H        1.19444625      -0.73010336      -1.47320127
H        0.65580214       1.90422025      -0.18483930
H       -1.84895127       1.33591769      -0.58807432
H       -0.03481496      -2.09788384       0.71603717
H       -0.73926093       0.46208246       2.00038278
12
Frame=6 idx=005641 GeodesicLength=0.21345411499265277 rxn_smarts="[C:1]1([H:7])([H:8])[C@@:2]2([H:9])[C@@:3]3([H:10])[O:4][C@:5]1([H:11])[C@@:6]23[H:12]>>[C:1]1([H:7])([H:8])[C@:2]([C:3](=[O:4])[H:10])([H:9])[C:6]([H:12])=[C:5]1[H:11]"
C        1.10467741      -0.39238339      -0.43943552
C        0.29219226       0.88013031      -0.15057019
C       -1.11586516       0.54061226      -0.50444411
O       -1.37515610      -0.66209508      -0.93999747
C        0.06528575      -1.06473351       0.42562292
C       -0.28642258       0.17143103       1.06750104
H        2.07819392      -0.34582083       0.04897962
H        1.19172900      -0.73258819      -1.47093816
H        0.65376811       1.90120865      -0.17915783
H       -1.85440733       1.34240121      -0.59029474
H       -0.02273429      -2.10027656       0.72819947
H       -0.73126100       0.46211410       2.00453497
12
Frame=7 idx=005641 GeodesicLength=0.24902776085389494 rxn_smarts="[C:1]1([H:7])([H:8])[C@@:2]2([H:9])[C@@:3]3([H:10])[O:4][C@:5]1([H:11])[C@@:6]23[H:12]>>[C:1]1([H:7])([H:8])[C@:2]([C:3](=[O:4])[H:10])([H:9])[C:6]([H:12])=[C:5]1[H:11]"
C        1.10508692      -0.39386603      -0.43708936
C        0.28939080       0.87712696      -0.15101762
C       -1.12129259       0.54671839      -0.51177368
O       -1.37496067      -0.65503261      -0.95379683
C        0.06350791      -1.06887199       0.42662316
C       -0.29035975       0.16892488       1.06629973
H        2.08114881      -0.34656963       0.04596700
H        1.18896801      -0.73510262      -1.46865652
H        0.65169378       1.89809445      -0.17337783
H       -1.85987802       1.34898162      -0.59254457
H       -0.01022219      -2.10241110       0.74072604
H       -0.72308300       0.46200765       2.00864049
12
Frame=8 idx=005641 GeodesicLength=0.2846095707533896 rxn_smarts="[C:1]1([H:7])([H:8])[C@@:2]2([H:9])[C@@:3]3([H:10])[O:4][C@:5]1([H:11])[C@@:6]23[H:12]>>[C:1]1([H:7])([H:8])[C@:2]([C:3](=[O:4])[H:10])([H:9])[C:6]([H:12])=[C:5]1[H:11]"
C        1.10540508      -0.39540654      -0.43472190
C        0.28651466       0.87405816      -0.15142851
C       -1.12671512       0.55296090      -0.51923382
O       -1.37473553      -0.64775266      -0.96779724
C        0.06159665      -1.07313114       0.42756481
C       -0.29447480       0.16629135       1.06505108
H        2.08400471      -0.34738809       0.04292165
H        1.18614586      -0.73765089      -1.46634960
H        0.64957323       1.89486878      -0.16748862
H       -1.86535916       1.35566324      -0.59483359
H        0.00275262      -2.10425327       0.75362803
H       -0.71470821       0.46174014       2.01268770
12
Frame=9 idx=005641 GeodesicLength=0.32017879231684315 rxn_smarts="[C:1]1([H:7])([H:8])[C@@:2]2([H:9])[C@@:3]3([H:10])[O:4][C@:5]1([H:11])[C@@:6]23[H:12]>>[C:1]1([H:7])([H:8])[C@:2]([C:3](=[O:4])[H:10])([H:9])[C:6]([H:12])=[C:5]1[H:11]"
C        1.10563457      -0.39700545      -0.43233560
C        0.28356728       0.87091833      -0.15179900
C       -1.13212360       0.55933275      -0.52681846
O       -1.37447303      -0.64026058      -0.98198327
C        0.05956803      -1.07751461       0.42845405
C       -0.29875877       0.16352342       1.06375887
H        2.08676622      -0.34826779       0.03983301
H        1.18325698      -0.74022488      -1.46402320
H        0.64740719       1.89152312      -0.16148949
H       -1.87084168       1.36242991      -0.59715541
H        0.01615324      -2.10576181       0.76689522
H       -0.70615643       0.46130760       2.01666327
12
Frame=10 idx=005641 GeodesicLength=0.3557621127376503 rxn_smarts="[C:1]1([H:7])([H:8])[C@@:2]2([H:9])[C@@:3]3([H:10])[O:4][C@:5]1([H:11])[C@@:6]23[H:12]>>[C:1]1([H:7])([H:8])[C@:2]([C:3](=[O:4])[H:10])([H:9])[C:6]([H:12])=[C:5]1[H:11]"
C        1.10577734      -0.39866950      -0.42993027
C        0.28054685       0.86771098      -0.15212710
C       -1.13752001       0.56584123      -0.53452505
O       -1.37417490      -0.63255759      -0.99635179
C        0.05741662      -1.08203281       0.42929786
C       -0.30322332       0.16062360       1.06242642
H        2.08943969      -0.34921397       0.03669560
H        1.18030497      -0.74284119      -1.46167672
H        0.64519609       1.88806642      -0.15537783
H       -1.87633125       1.36929358      -0.59951354
H        0.02999930      -2.10692173       0.78052027
H       -0.69743138       0.46070097       2.02056216
12
Frame=11 idx=005641 GeodesicLength=0.3913580443142833 rxn_smarts="[C:1]1([H:7])([H:8])[C@@:2]2([H:9])[C@@:3]3([H:10])[O:4][C@:5]1([H:11])[C@@:6]23[H:12]>>[C:1]1([H:7])([H:8])[C@:2]([C:3](=[O:4])[H:10])([H:9])[C:6]([H:12])=[C:5]1[H:11]"
C        1.10582847      -0.40040012      -0.42750332
C        0.27744912       0.86442898      -0.15241139
C       -1.14290080       0.57248432      -0.54235624
O       -1.37383217      -0.62463892      -1.01090987
C        0.05514331      -1.08669129       0.43009716
C       -0.30787278       0.15758279       1.06105158
H        2.09201872      -0.35022562       0.03351019
H        1.17728513      -0.74549737      -1.45930817
H        0.64293336       1.88448820      -0.14914273
H       -1.88182588       1.37624434      -0.60191307
H        0.04428214      -2.10768989       0.79450262
H       -0.68850861       0.45991458       2.02438324
12
Frame=12 idx=005641 GeodesicLength=0.42699860187036354 rxn_smarts="[C:1]1([H:7])([H:8])[C@@:2]2([H:9])[C@@:3]3([H:10])[O:4][C@:5]1([H:11])[C@@:6]23[H:12]>>[C:1]1([H:7])([H:8])[C@:2]([C:3](=[O:4])[H:10])([H:9])[C:6]([H:12])=[C:5]1[H:11]"
C        1.10578582      -0.40220004      -0.42505174
C        0.27427251       0.86107151      -0.15264817
C       -1.14826779       0.57926198      -0.55031331
O       -1.37344731      -0.61650717      -1.02565856
C        0.05275088      -1.09149924       0.43086371
C       -0.31270947       0.15439529       1.05964194
H        2.09450497      -0.35130300       0.03027324
H        1.17418976      -0.74819778      -1.45691673
H        0.64062154       1.88078865      -0.14277635
H       -1.88732542       1.38328415      -0.60436848
H        0.05900389      -2.10802848       0.80883302
H       -0.67937936       0.45893414       2.02812143
12
Frame=13 idx=005641 GeodesicLength=0.4626075043675378 rxn_smarts="[C:1]1([H:7])([H:8])[C@@:2]2([H:9])[C@@:3]3([H:10])[O:4][C@:5]1([H:11])[C@@:6]23[H:12]>>[C:1]1([H:7])([H:8])[C@:2]([C:3](=[O:4])[H:10])([H:9])[C:6]([H:12])=[C:5]1[H:11]"
C        1.10564453      -0.40407222      -0.42257797
C        0.27100756       0.85762690      -0.15283756
C       -1.15360410       0.58617591      -0.55838381
O       -1.37298924      -0.60815117      -1.04058014
C        0.05024417      -1.09645312       0.43159309
C       -0.31774358       0.15106397       1.05818213
H        2.09689121      -0.35243942       0.02696964
H        1.17101886      -0.75095222      -1.45449621
H        0.63824086       1.87694419      -0.13626951
H       -1.89281523       1.39040572      -0.60686598
H        0.07415170      -2.10789785       0.82350931
H       -0.67004673       0.45774932       2.03175702
12
Frame=14 idx=005641 GeodesicLength=0.4982560610574821 rxn_smarts="[C:1]1([H:7])([H:8])[C@@:2]2([H:9])[C@@:3]3([H:10])[O:4][C@:5]1([H:11])[C@@:6]23[H:12]>>[C:1]1([H:7])([H:8])[C@:2]([C:3](=[O:4])[H:10])([H:9])[C:6]([H:12])=[C:5]1[H:11]"
C        1.10541402      -0.40601458      -0.42007540
C        0.26766232       0.85410196      -0.15297738
C       -1.15891454       0.59321889      -0.56656966
O       -1.37247071      -0.59958991      -1.05566671
C        0.04764318      -1.10156091       0.43231452
C       -0.32295725       0.14758698       1.05669428
H        2.09919271      -0.35362817       0.02360301
H        1.16776982      -0.75376171      -1.45204553
H        0.63580170       1.87297193      -0.12963595
H       -1.89830645       1.39759968      -0.60941324
H        0.08967814      -2.10727867       0.83848241
H       -0.66051295       0.45635451       2.03528966
12
Frame=15 idx=005641 GeodesicLength=0.5339212476630103 rxn_smarts="[C:1]1([H:7])([H:8])[C@@:2]2([H:9])[C@@:3]3([H:10])[O:4][C@:5]1([H:11])[C@@:6]23[H:12]>>[C:1]1([H:7])([H:8])[C@:2]([C:3](=[O:4])[H:10])([H:9])[C:6]([H:12])=[C:5]1[H:11]"
C        1.10510058      -0.40802513      -0.41754128
C        0.26423820       0.85049477      -0.15306666
C       -1.16418834       0.60038420      -0.57485884
O       -1.37187727      -0.59083268      -1.07089081
C        0.04496982      -1.10681777       0.43304774
C       -0.32833839       0.14397208       1.05518511
H        2.10141609      -0.35485923       0.02016662
H        1.16444355      -0.75662914      -1.44955947
H        0.63329870       1.86886839      -0.12289015
H       -1.90379635       1.40484891      -0.61199913
H        0.10552796      -2.10615340       0.85370191
H       -0.65079455       0.45474899       2.03870496
12
Frame=16 idx=005641 GeodesicLength=0.5695921251403812 rxn_smarts="[C:1]1([H:7])([H:8])[C@@:2]2([H:9])[C@@:3]3([H:10])[O:4][C@:5]1([H:11])[C@@:6]23[H:12]>>[C:1]1([H:7])([H:8])[C@:2]([C:3](=[O:4])[H:10])([H:9])[C:6]([H:12])=[C:5]1[H:11]"
C        1.10471314      -0.41010017      -0.41497298
C        0.26073845       0.84680585      -0.15310597
C       -1.16941645       0.60766437      -0.58323985
O       -1.37119856      -0.58189252      -1.08622310
C        0.04224985      -1.11221839       0.43381526
C       -0.33387013       0.14022796       1.05366367
H        2.10357183      -0.35611952       0.01665355
H        1.16104210      -0.75955781      -1.44703316
H        0.63072900       1.86463473      -0.11604830
H       -1.90928432       1.41213646      -0.61461305
H        0.12163671      -2.10451432       0.86911388
H       -0.64091162       0.45293336       2.04199004
