15
Frame=0 idx=004795 GeodesicLength=0.0 rxn_smarts="[C:1]([N:2]([C:3]([H:10])([H:11])[H:12])[C:4](=[O:5])[C:6]([H:13])([H:14])[H:15])([H:7])([H:8])[H:9]>>[C:1]([N+:2](=[C:3]([H:10])[H:11])[C:4]([O-:5])=[C:6]([H:13])[H:14])([H:7])([H:8])[H:9].[H:12][H:15]"
C       -0.80618411       1.38634114       0.14730894
N       -0.59524205      -0.01284342       0.49002850
C       -1.22839444      -0.92481799      -0.20669963
C        0.72601692      -0.50602016       0.96256075
O        0.73676703      -1.49421519       1.66388596
C        1.70333085       0.04661992       0.12091124
H       -1.84809220       1.64231299       0.33616574
H       -0.17842123       2.01136167       0.77630466
H       -0.57400322       1.57134827      -0.90556725
H       -2.07994609      -0.63649396      -0.81078487
H       -1.10182987      -1.95871188       0.07838472
H        0.07767651      -1.05262141      -1.44619946
H        2.68079305      -0.41449627       0.13735201
H        1.65087491       1.07131395      -0.21500727
H        0.83665394      -0.72907766      -1.12864410
15
Frame=1 idx=004795 GeodesicLength=0.07274946485246526 rxn_smarts="[C:1]([N:2]([C:3]([H:10])([H:11])[H:12])[C:4](=[O:5])[C:6]([H:13])([H:14])[H:15])([H:7])([H:8])[H:9]>>[C:1]([N+:2](=[C:3]([H:10])[H:11])[C:4]([O-:5])=[C:6]([H:13])[H:14])([H:7])([H:8])[H:9].[H:12][H:15]"
C       -0.80915071       1.38526517       0.14828429
N       -0.59530169      -0.01396075       0.48806611
C       -1.22838242      -0.92622089      -0.21378581
C        0.72926859      -0.50223594       0.96066380
O        0.74043154      -1.49998593       1.64909682
C        1.70788487       0.04668965       0.11389800
H       -1.85143853       1.63712999       0.34124457
H       -0.17479420       2.01073542       0.77015634
H       -0.58278740       1.57690822      -0.90458979
H       -2.08111604      -0.63727245      -0.81655673
H       -1.13258118      -1.95505975       0.10187160
H        0.07504915      -1.06928457      -1.44300097
H        2.68758516      -0.40900509       0.14693459
H        1.66170066       1.07863055      -0.20087184
H        0.85363221      -0.72233363      -1.14141100
15
Frame=2 idx=004795 GeodesicLength=0.14528428877923583 rxn_smarts="[C:1]([N:2]([C:3]([H:10])([H:11])[H:12])[C:4](=[O:5])[C:6]([H:13])([H:14])[H:15])([H:7])([H:8])[H:9]>>[C:1]([N+:2](=[C:3]([H:10])[H:11])[C:4]([O-:5])=[C:6]([H:13])[H:14])([H:7])([H:8])[H:9].[H:12][H:15]"
C       -0.81215285       1.38404438       0.14923340
N       -0.59528300      -0.01517678       0.48611201
C       -1.22826035      -0.92795774      -0.22066334
C        0.73261705      -0.49855219       0.95876190
O        0.74415295      -1.50589954       1.63389742
C        1.71250004       0.04688526       0.10694295
H       -1.85482110       1.63165934       0.34631729
H       -0.17126160       2.01002389       0.76383129
H       -0.59178880       1.58225711      -0.90361685
H       -2.08189901      -0.63826487      -0.82248431
H       -1.16403494      -1.94993749       0.12569701
H        0.07263930      -1.08604727      -1.43953581
H        2.69412512      -0.40348501       0.15623667
H        1.67259092       1.08567127      -0.18636695
H        0.87087628      -0.71522037      -1.15436268
15
Frame=3 idx=004795 GeodesicLength=0.21768898131647807 rxn_smarts="[C:1]([N:2]([C:3]([H:10])([H:11])[H:12])[C:4](=[O:5])[C:6]([H:13])([H:14])[H:15])([H:7])([H:8])[H:9]>>[C:1]([N+:2](=[C:3]([H:10])[H:11])[C:4]([O-:5])=[C:6]([H:13])[H:14])([H:7])([H:8])[H:9].[H:12][H:15]"
C       -0.81519135       1.38267833       0.15014904
N       -0.59518669      -0.01648618       0.48417587
C       -1.22804964      -0.93004646      -0.22727591
C        0.73605428      -0.49496982       0.95687731
O        0.74790974      -1.51193094       1.61832243
C        1.71717571       0.04720861       0.10007500
H       -1.85823489       1.62590714       0.35138115
H       -0.16781634       2.00923335       0.75730327
H       -0.60101720       1.58737158      -0.90265973
H       -2.08231776      -0.63949188      -0.82851394
H       -1.19603894      -1.94331076       0.14971278
H        0.07034981      -1.10286314      -1.43583745
H        2.70040770      -0.39798058       0.16526055
H        1.68354014       1.09241040      -0.17150753
H        0.88841543      -0.70772965      -1.16746285
15
Frame=4 idx=004795 GeodesicLength=0.2900337831697721 rxn_smarts="[C:1]([N:2]([C:3]([H:10])([H:11])[H:12])[C:4](=[O:5])[C:6]([H:13])([H:14])[H:15])([H:7])([H:8])[H:9]>>[C:1]([N+:2](=[C:3]([H:10])[H:11])[C:4]([O-:5])=[C:6]([H:13])[H:14])([H:7])([H:8])[H:9].[H:12][H:15]"
C       -0.81826577       1.38116916       0.15102378
N       -0.59501448      -0.01788239       0.48226555
C       -1.22777774      -0.93249848      -0.23356912
C        0.73957082      -0.49149176       0.95502687
O        0.75168179      -1.51805440       1.60240834
C        1.72191110       0.04766189       0.09332261
H       -1.86167370       1.61988562       0.35643520
H       -0.16444987       2.00837060       0.75054580
H       -0.61048180       1.59223049      -0.90173103
H       -2.08240150      -0.64096915      -0.83459007
H       -1.22843819      -1.93516864       0.17376875
H        0.06807872      -1.11970811      -1.43193343
H        2.70643317      -0.39253422       0.17401104
H        1.69454498       1.09882928      -0.15630265
H        0.90628246      -0.69983988      -1.18068163
15
Frame=5 idx=004795 GeodesicLength=0.36232827439531595 rxn_smarts="[C:1]([N:2]([C:3]([H:10])([H:11])[H:12])[C:4](=[O:5])[C:6]([H:13])([H:14])[H:15])([H:7])([H:8])[H:9]>>[C:1]([N+:2](=[C:3]([H:10])[H:11])[C:4]([O-:5])=[C:6]([H:13])[H:14])([H:7])([H:8])[H:9].[H:12][H:15]"
C       -0.82137548       1.37952140       0.15185102
N       -0.59477012      -0.01935699       0.48039111
C       -1.22747671      -0.93531895      -0.23949261
C        0.74315562      -0.48812051       0.95322502
O        0.75544951      -1.52424004       1.58619830
C        1.72670336       0.04824566       0.08670963
H       -1.86513089       1.61361118       0.36148069
H       -0.16115199       2.00744334       0.74353334
H       -0.62019170       1.59681554      -0.90084243
H       -2.08218321      -0.64270567      -0.84066154
H       -1.26107324      -1.92552602       0.19771538
H        0.06573293      -1.13657012      -1.42784338
H        2.71220288      -0.38719146       0.18249061
H        1.70560288       1.10491219      -0.14076079
H        0.92450617      -0.69151954      -1.19399435
15
Frame=6 idx=004795 GeodesicLength=0.4346779630820343 rxn_smarts="[C:1]([N:2]([C:3]([H:10])([H:11])[H:12])[C:4](=[O:5])[C:6]([H:13])([H:14])[H:15])([H:7])([H:8])[H:9]>>[C:1]([N+:2](=[C:3]([H:10])[H:11])[C:4]([O-:5])=[C:6]([H:13])[H:14])([H:7])([H:8])[H:9].[H:12][H:15]"
C       -0.82451583       1.37774114       0.15262131
N       -0.59445526      -0.02090155       0.47855451
C       -1.22718723      -0.93850704      -0.24499906
C        0.74679785      -0.48486416       0.95147521
O        0.75919735      -1.53046236       1.56972716
C        1.73155498       0.04896785       0.08026487
H       -1.86859321       1.60710602       0.36651875
H       -0.15791128       2.00645713       0.73624090
H       -0.63015028       1.60111123      -0.90000697
H       -2.08170688      -0.64470514      -0.84667380
H       -1.29379727      -1.91441869       0.22140964
H        0.06319947      -1.15349405      -1.42357511
H        2.71772341      -0.38198557       0.19071004
H        1.71671590       1.11065399      -0.12487550
H        0.94312828      -0.68269881      -1.20739198
15
Frame=7 idx=004795 GeodesicLength=0.5071008216505435 rxn_smarts="[C:1]([N:2]([C:3]([H:10])([H:11])[H:12])[C:4](=[O:5])[C:6]([H:13])([H:14])[H:15])([H:7])([H:8])[H:9]>>[C:1]([N+:2](=[C:3]([H:10])[H:11])[C:4]([O-:5])=[C:6]([H:13])[H:14])([H:7])([H:8])[H:9].[H:12][H:15]"
C       -0.82768283       1.37583576       0.15332818
N       -0.59407407      -0.02250726       0.47675894
C       -1.22695027      -0.94205621      -0.25004951
C        0.75048593      -0.48172932       0.94977844
O        0.76291138      -1.53669491       1.55303282
C        1.73646587       0.04983345       0.07401118
H       -1.87204952       1.60039407       0.37155351
H       -0.15471568       2.00541789       0.72864528
H       -0.64036182       1.60510675      -0.89923601
H       -2.08101521      -0.64696376      -0.85258443
H       -1.32647230      -1.90190202       0.24472696
H        0.06038744      -1.17053129      -1.41912872
H        2.72300086      -0.37695250       0.19867399
H        1.72788583       1.11604943      -0.10864235
H        0.96218440      -0.67330007      -1.22086825
15
Frame=8 idx=004795 GeodesicLength=0.5797089141038979 rxn_smarts="[C:1]([N:2]([C:3]([H:10])([H:11])[H:12])[C:4](=[O:5])[C:6]([H:13])([H:14])[H:15])([H:7])([H:8])[H:9]>>[C:1]([N+:2](=[C:3]([H:10])[H:11])[C:4]([O-:5])=[C:6]([H:13])[H:14])([H:7])([H:8])[H:9].[H:12][H:15]"
C       -0.83086974       1.37381376       0.15396095
N       -0.59362876      -0.02416565       0.47500063
C       -1.22681365      -0.94595535      -0.25460774
C        0.75420922      -0.47872740       0.94812414
O        0.76658410      -1.54291929       1.53614026
C        1.74143961       0.05085397       0.06796974
H       -1.87548399       1.59350351       0.37658737
H       -0.15155284       2.00432932       0.72072435
H       -0.65082616       1.60879365      -0.89854216
H       -2.08015557      -0.64947326      -0.85835473
H       -1.35898136      -1.88804240       0.26755352
H        0.05718611      -1.18779359      -1.41447813
H        2.72804940      -0.37211903       0.20639068
H        1.73911925       1.12110651      -0.09203443
H        0.98172438      -0.66320473      -1.23443446
15
Frame=9 idx=004795 GeodesicLength=0.6525879643662909 rxn_smarts="[C:1]([N:2]([C:3]([H:10])([H:11])[H:12])[C:4](=[O:5])[C:6]([H:13])([H:14])[H:15])([H:7])([H:8])[H:9]>>[C:1]([N+:2](=[C:3]([H:10])[H:11])[C:4]([O-:5])=[C:6]([H:13])[H:14])([H:7])([H:8])[H:9].[H:12][H:15]"
C       -0.83405780       1.37168580       0.15449308
N       -0.59311910      -0.02587074       0.47324807
C       -1.22682615      -0.95015568      -0.25870320
C        0.75795421      -0.47589131       0.94646406
O        0.77019282      -1.54915807       1.51901930
C        1.74649507       0.05202882       0.06217370
H       -1.87886932       1.58647152       0.38160057
H       -0.14840407       2.00318826       0.71245367
H       -0.66152153       1.61217629      -0.89794861
H       -2.07923820      -0.65221976      -0.86392665
H       -1.39127382      -1.87300881       0.28998218
H        0.05354063      -1.20539869      -1.40965543
H        2.73288487      -0.36747574       0.21388220
H        1.75042710       1.12586741      -0.07497909
H        1.00181529      -0.65223930      -1.24810385
15
Frame=10 idx=004795 GeodesicLength=0.7256075406471791 rxn_smarts="[C:1]([N:2]([C:3]([H:10])([H:11])[H:12])[C:4](=[O:5])[C:6]([H:13])([H:14])[H:15])([H:7])([H:8])[H:9]>>[C:1]([N+:2](=[C:3]([H:10])[H:11])[C:4]([O-:5])=[C:6]([H:13])[H:14])([H:7])([H:8])[H:9].[H:12][H:15]"
C       -0.83725266       1.36945953       0.15493467
N       -0.59255350      -0.02761420       0.47151751
C       -1.22702095      -0.95466722      -0.26227444
C        0.76171251      -0.47320750       0.94481849
O        0.77375111      -1.55535525       1.50174017
C        1.75161990       0.05338015       0.05662168
H       -1.88220466       1.57931588       0.38662308
H       -0.14526415       2.00200116       0.70382053
H       -0.67246786       1.61524974      -0.89745084
H       -2.07824678      -0.65519639      -0.86930286
H       -1.42322688      -1.85679258       0.31177518
H        0.04935926      -1.22346245      -1.40455868
H        2.73751302      -0.36308671       0.22112959
H        1.76180714       1.13029727      -0.05749753
H        1.02247448      -0.64032143      -1.26189655
15
Frame=11 idx=004795 GeodesicLength=0.7987492754497296 rxn_smarts="[C:1]([N:2]([C:3]([H:10])([H:11])[H:12])[C:4](=[O:5])[C:6]([H:13])([H:14])[H:15])([H:7])([H:8])[H:9]>>[C:1]([N+:2](=[C:3]([H:10])[H:11])[C:4]([O-:5])=[C:6]([H:13])[H:14])([H:7])([H:8])[H:9].[H:12][H:15]"
C       -0.84044651       1.36714294       0.15527568
N       -0.59193558      -0.02939211       0.46979350
C       -1.22743623      -0.95946924      -0.26532003
C        0.76547392      -0.47068999       0.94316436
O        0.77725935      -1.56150491       1.48430916
C        1.75681904       0.05491730       0.05132633
H       -1.88547298       1.57206154       0.39165777
H       -0.14212190       2.00076669       0.69480924
H       -0.68365977       1.61801830      -0.89705828
H       -2.07722803      -0.65838796      -0.87446882
H       -1.45479200      -1.83947743       0.33290773
H        0.04457696      -1.24213616      -1.39913754
H        2.74195063      -0.35897142       0.22813782
H        1.77326591       1.13440416      -0.03955637
H        1.04374718      -0.62728172      -1.27584055
15
Frame=12 idx=004795 GeodesicLength=0.8719784542761164 rxn_smarts="[C:1]([N:2]([C:3]([H:10])([H:11])[H:12])[C:4](=[O:5])[C:6]([H:13])([H:14])[H:15])([H:7])([H:8])[H:9]>>[C:1]([N+:2](=[C:3]([H:10])[H:11])[C:4]([O-:5])=[C:6]([H:13])[H:14])([H:7])([H:8])[H:9].[H:12][H:15]"
C       -0.84363085       1.36474377       0.15550532
N       -0.59126874      -0.03120118       0.46805843
C       -1.22810911      -0.96453864      -0.26784211
C        0.76922876      -0.46835306       0.94147571
O        0.78071967      -1.56760663       1.46672480
C        1.76209891       0.05665136       0.04629966
H       -1.88865837       1.56473348       0.39670648
H       -0.13896572       1.99948228       0.68540186
H       -0.69509241       1.62048735      -0.89678089
H       -2.07622503      -0.66178097      -0.87941300
H       -1.48593250      -1.82114304       0.35336603
H        0.03912754      -1.26158152      -1.39332970
H        2.74621261      -0.35514805       0.23490754
H        1.78480998       1.13819376      -0.02111593
H        1.06568526      -0.61293890      -1.28996420
15
Frame=13 idx=004795 GeodesicLength=0.9452271156771752 rxn_smarts="[C:1]([N:2]([C:3]([H:10])([H:11])[H:12])[C:4](=[O:5])[C:6]([H:13])([H:14])[H:15])([H:7])([H:8])[H:9]>>[C:1]([N+:2](=[C:3]([H:10])[H:11])[C:4]([O-:5])=[C:6]([H:13])[H:14])([H:7])([H:8])[H:9].[H:12][H:15]"
C       -0.84679737       1.36226751       0.15561041
N       -0.59055496      -0.03303948       0.46629399
C       -1.22907647      -0.96985589      -0.26984280
C        0.77296901      -0.46621168       0.93972536
O        0.78413621      -1.57366576       1.44897741
C        1.76746576       0.05859510       0.04154864
H       -1.89174488       1.55735396       0.40177158
H       -0.13578397       1.99814383       0.67557711
H       -0.70676249       1.62265908      -0.89663068
H       -2.07528058      -0.66536228      -0.88412678
H       -1.51662961      -1.80185565       0.37315041
H        0.03295391      -1.28196823      -1.38706676
H        2.75031648      -0.35163440       0.24144207
H        1.79644784       1.14166890      -0.00212930
H        1.08834112      -0.59709499      -1.30430067
15
Frame=14 idx=004795 GeodesicLength=1.0184387570425555 rxn_smarts="[C:1]([N:2]([C:3]([H:10])([H:11])[H:12])[C:4](=[O:5])[C:6]([H:13])([H:14])[H:15])([H:7])([H:8])[H:9]>>[C:1]([N+:2](=[C:3]([H:10])[H:11])[C:4]([O-:5])=[C:6]([H:13])[H:14])([H:7])([H:8])[H:9].[H:12][H:15]"
C       -0.84993658       1.35971763       0.15557567
N       -0.58979468      -0.03490815       0.46447541
C       -1.23037364      -0.97540438      -0.27132539
C        0.77668805      -0.46428406       0.93788106
O        0.78751617      -1.57969391       1.43104665
C        1.77292961       0.06076278       0.03708568
H       -1.89471463       1.54994259       0.40685225
H       -0.13256529       1.99674383       0.66531279
H       -0.71866388       1.62453615      -0.89662041
H       -2.07443119      -0.66912308      -0.88860614
H       -1.54688195      -1.78166743       0.39227723
H        0.02598408      -1.30348055      -1.38026977
H        2.75428008      -0.34844357       0.24774306
H        1.80818612       1.14483052       0.01745464
H        1.11177773      -0.57952837      -1.31888274
15
Frame=15 idx=004795 GeodesicLength=1.0915247862529835 rxn_smarts="[C:1]([N:2]([C:3]([H:10])([H:11])[H:12])[C:4](=[O:5])[C:6]([H:13])([H:14])[H:15])([H:7])([H:8])[H:9]>>[C:1]([N+:2](=[C:3]([H:10])[H:11])[C:4]([O-:5])=[C:6]([H:13])[H:14])([H:7])([H:8])[H:9].[H:12][H:15]"
C       -0.85303801       1.35709628       0.15538230
N       -0.58898749      -0.03680901       0.46257761
C       -1.23203991      -0.98116999      -0.27228879
C        0.78038010      -0.46259105       0.93590839
O        0.79086667      -1.58570750       1.41290496
C        1.77850141       0.06316858       0.03292124
H       -1.89754886       1.54251872       0.41194612
H       -0.12929645       1.99527418       0.65458013
H       -0.73079167       1.62611652      -0.89676715
H       -2.07371624      -0.67305558      -0.89284420
H       -1.57669821      -1.76062424       0.41077292
H        0.01815346      -1.32630722      -1.37286027
H        2.75812227      -0.34558947       0.25381354
H        1.82003266       1.14767438       0.03769328
H        1.13606027      -0.55999462      -1.33374009
15
Frame=16 idx=004795 GeodesicLength=1.16437759060528 rxn_smarts="[C:1]([N:2]([C:3]([H:10])([H:11])[H:12])[C:4](=[O:5])[C:6]([H:13])([H:14])[H:15])([H:7])([H:8])[H:9]>>[C:1]([N+:2](=[C:3]([H:10])[H:11])[C:4]([O-:5])=[C:6]([H:13])[H:14])([H:7])([H:8])[H:9].[H:12][H:15]"
C       -0.85609053       1.35440369       0.15500828
N       -0.58813198      -0.03874559       0.46057244
C       -1.23411339      -0.98714198      -0.27273017
C        0.78404002      -0.46115426       0.93377226
O        0.79419560      -1.59172753       1.39451732
C        1.78419312       0.06582545       0.02906664
H       -1.90022744       1.53509980       0.41704803
H       -0.12596329       1.99372481       0.64334577
H       -0.74314123       1.62739601      -0.89709064
H       -2.07317498      -0.67715682      -0.89683219
H       -1.60609175      -1.73875977       0.42867089
H        0.00938950      -1.35063347      -1.36475544
H        2.76186187      -0.34308547       0.25965724
H        1.83199388       1.15019023       0.05864696
H        1.16126060      -0.53823511      -1.34889738
