14
Frame=0 idx=010168 GeodesicLength=0.0 rxn_smarts="[N:1]([C:2](=[O:3])[C:4]([C@@:5]1([H:12])[C:6]([H:13])([H:14])[O:7]1)([H:10])[H:11])([H:8])[H:9]>>[N:1]([C:2](=[O:3])[C:4]([C@@:5]([C:6][H:13])([O:7][H:14])[H:12])([H:10])[H:11])([H:8])[H:9]"
N        1.79011980       0.46648289       1.67824046
C        0.63252785       0.61652849       0.98601049
O       -0.11935783       1.54863358       1.16944761
C        0.36093323      -0.45649936      -0.05616477
C       -1.09289750      -0.47260830      -0.44409591
C       -1.64516537       0.55188877      -1.34552965
O       -1.27460870      -1.13749016      -1.70992601
H        2.04600750       1.17769852       2.33951572
H        2.41718296      -0.29711298       1.51226117
H        0.67643497      -1.43639665       0.31191255
H        0.96249524      -0.23223692      -0.94252837
H       -1.74888458      -0.85872998       0.33513700
H       -0.83112405       1.10163286      -1.83241348
H       -2.17366346      -0.57179073      -2.00186678
14
Frame=1 idx=010168 GeodesicLength=0.05666698749512734 rxn_smarts="[N:1]([C:2](=[O:3])[C:4]([C@@:5]1([H:12])[C:6]([H:13])([H:14])[O:7]1)([H:10])[H:11])([H:8])[H:9]>>[N:1]([C:2](=[O:3])[C:4]([C@@:5]([C:6][H:13])([O:7][H:14])[H:12])([H:10])[H:11])([H:8])[H:9]"
N        1.80405310       0.47987374       1.66280259
C        0.62185107       0.60347208       1.00753716
O       -0.14920686       1.51103894       1.23048346
C        0.35183212      -0.46355604      -0.04079223
C       -1.09676639      -0.46783180      -0.44759621
C       -1.62812008       0.55169580      -1.36615338
O       -1.27254496      -1.13064539      -1.71527397
H        2.06033955       1.19057855       2.32448742
H        2.44752456      -0.26353072       1.47012303
H        0.65153433      -1.44652496       0.33235824
H        0.96630565      -0.24815268      -0.92036331
H       -1.76683952      -0.84514470       0.32373466
H       -0.80612153       1.09434445      -1.84719098
H       -2.18384104      -0.56561728      -2.01415649
14
Frame=2 idx=010168 GeodesicLength=0.11325675672383492 rxn_smarts="[N:1]([C:2](=[O:3])[C:4]([C@@:5]1([H:12])[C:6]([H:13])([H:14])[O:7]1)([H:10])[H:11])([H:8])[H:9]>>[N:1]([C:2](=[O:3])[C:4]([C@@:5]([C:6][H:13])([O:7][H:14])[H:12])([H:10])[H:11])([H:8])[H:9]"
N        1.81693556       0.49433151       1.64634172
C        0.61256329       0.59080185       1.02754795
O       -0.17674544       1.47145045       1.29111759
C        0.34342198      -0.47065772      -0.02627632
C       -1.09996786      -0.46273887      -0.45069240
C       -1.61072667       0.55135179      -1.38591547
O       -1.27101371      -1.12406642      -1.71974870
H        2.07205674       1.20281839       2.31086099
H        2.47469667      -0.22932284       1.42841606
H        0.62735158      -1.45639273       0.35195608
H        0.97000697      -0.26474423      -0.89944165
H       -1.78341176      -0.83077045       0.31316706
H       -0.78106993       1.08656442      -1.86170909
H       -2.19409742      -0.55862515      -2.02562382
14
Frame=3 idx=010168 GeodesicLength=0.17012349016194053 rxn_smarts="[N:1]([C:2](=[O:3])[C:4]([C@@:5]1([H:12])[C:6]([H:13])([H:14])[O:7]1)([H:10])[H:11])([H:8])[H:9]>>[N:1]([C:2](=[O:3])[C:4]([C@@:5]([C:6][H:13])([O:7][H:14])[H:12])([H:10])[H:11])([H:8])[H:9]"
N        1.82815044       0.50904257       1.62993201
C        0.60399797       0.57800400       1.04694285
O       -0.20279852       1.42850896       1.35327091
C        0.33532062      -0.47800874      -0.01210949
C       -1.10271662      -0.45724019      -0.45350901
C       -1.59261697       0.55103316      -1.40517636
O       -1.26975775      -1.11759762      -1.72359515
H        2.08301154       1.21652727       2.29563263
H        2.49905113      -0.19411656       1.38649998
H        0.60325716      -1.46633823       0.37105498
H        0.97360333      -0.28203828      -0.87895540
H       -1.79923228      -0.81555394       0.30294477
H       -0.75529611       1.07826351      -1.87604041
H       -2.20397392      -0.55048590      -2.03689231
14
Frame=4 idx=010168 GeodesicLength=0.22684437704009372 rxn_smarts="[N:1]([C:2](=[O:3])[C:4]([C@@:5]1([H:12])[C:6]([H:13])([H:14])[O:7]1)([H:10])[H:11])([H:8])[H:9]>>[N:1]([C:2](=[O:3])[C:4]([C@@:5]([C:6][H:13])([O:7][H:14])[H:12])([H:10])[H:11])([H:8])[H:9]"
N        1.83844793       0.52513600       1.61231656
C        0.59663075       0.56579337       1.06480023
O       -0.22606464       1.38382746       1.41438302
C        0.32788028      -0.48533720       0.00123450
C       -1.10486334      -0.45135513      -0.45593432
C       -1.57424394       0.55043997      -1.42382315
O       -1.26915690      -1.11152393      -1.72649143
H        2.09100667       1.22844017       2.28330903
H        2.52087952      -0.15777262       1.34455877
H        0.57981042      -1.47592488       0.38944161
H        0.97710140      -0.29998587      -0.85968511
H       -1.81378013      -0.79923741       0.29365962
H       -0.72952988       1.06916753      -1.89051576
H       -2.21411814      -0.54166745      -2.04725358
14
Frame=5 idx=010168 GeodesicLength=0.2836748810162347 rxn_smarts="[N:1]([C:2](=[O:3])[C:4]([C@@:5]1([H:12])[C:6]([H:13])([H:14])[O:7]1)([H:10])[H:11])([H:8])[H:9]>>[N:1]([C:2](=[O:3])[C:4]([C@@:5]([C:6][H:13])([O:7][H:14])[H:12])([H:10])[H:11])([H:8])[H:9]"
N        1.84747000       0.54221345       1.59407220
C        0.58998443       0.55382824       1.08177604
O       -0.24694360       1.33660233       1.47565340
C        0.32085703      -0.49272719       0.01407886
C       -1.10654584      -0.44500028      -0.45804627
C       -1.55539004       0.54963341      -1.44213185
O       -1.26904840      -1.10578567      -1.72856244
H        2.09728343       1.23971277       2.27212231
H        2.54024368      -0.12007941       1.30222250
H        0.55665217      -1.48533373       0.40727180
H        0.98049479      -0.31849044      -0.84110091
H       -1.82744143      -0.78172911       0.28501334
H       -0.70337129       1.05917282      -1.90526526
H       -2.22424493      -0.53201717      -2.05710372
14
Frame=6 idx=010168 GeodesicLength=0.34049915709577183 rxn_smarts="[N:1]([C:2](=[O:3])[C:4]([C@@:5]1([H:12])[C:6]([H:13])([H:14])[O:7]1)([H:10])[H:11])([H:8])[H:9]>>[N:1]([C:2](=[O:3])[C:4]([C@@:5]([C:6][H:13])([O:7][H:14])[H:12])([H:10])[H:11])([H:8])[H:9]"
N        1.85484362       0.55981972       1.57581544
C        0.58363163       0.54137810       1.09855137
O       -0.26557830       1.28636314       1.53706058
C        0.31413982      -0.50054307       0.02664920
C       -1.10778850      -0.43835091      -0.45989417
C       -1.53589060       0.54880020      -1.45986742
O       -1.26929735      -1.10006082      -1.73013141
H        2.10260807       1.25223942       2.25981122
H        2.55700322      -0.08119666       1.25992002
H        0.53359219      -1.49504233       0.42451713
H        0.98384881      -0.33762765      -0.82278515
H       -1.84039773      -0.76332379       0.27674759
H       -0.67655317       1.04857419      -1.91972616
H       -2.23416172      -0.52102953      -2.06666825
14
Frame=7 idx=010168 GeodesicLength=0.39754211517956045 rxn_smarts="[N:1]([C:2](=[O:3])[C:4]([C@@:5]1([H:12])[C:6]([H:13])([H:14])[O:7]1)([H:10])[H:11])([H:8])[H:9]>>[N:1]([C:2](=[O:3])[C:4]([C@@:5]([C:6][H:13])([O:7][H:14])[H:12])([H:10])[H:11])([H:8])[H:9]"
N        1.86032351       0.57745846       1.55801427
C        0.57725658       0.52777509       1.11577411
O       -0.28217340       1.23190137       1.59969619
C        0.30753154      -0.50911091       0.03923968
C       -1.10864894      -0.43134154      -0.46148571
C       -1.51534646       0.54815658      -1.47706714
O       -1.26982803      -1.09413479      -1.73130417
H        2.10733994       1.26804822       2.24414624
H        2.57112180      -0.04093707       1.21735630
H        0.51023318      -1.50550663       0.44123756
H        0.98716618      -0.35760426      -0.80426351
H       -1.85293632      -0.74386200       0.26864340
H       -0.64847149       1.03736119      -1.93375555
H       -2.24356810      -0.50820372      -2.07623164
14
Frame=8 idx=010168 GeodesicLength=0.4545112646356466 rxn_smarts="[N:1]([C:2](=[O:3])[C:4]([C@@:5]1([H:12])[C:6]([H:13])([H:14])[O:7]1)([H:10])[H:11])([H:8])[H:9]>>[N:1]([C:2](=[O:3])[C:4]([C@@:5]([C:6][H:13])([O:7][H:14])[H:12])([H:10])[H:11])([H:8])[H:9]"
N        1.86441527       0.59618106       1.53965185
C        0.57141866       0.51407407       1.13241035
O       -0.29567617       1.17537112       1.66117599
C        0.30136130      -0.51791154       0.05138715
C       -1.10900431      -0.42388261      -0.46272195
C       -1.49424599       0.54719339      -1.49393919
O       -1.27103810      -1.08855637      -1.73157249
H        2.10980424       1.28245183       2.23070353
H        2.58291608       0.00152664       1.17384610
H        0.48714227      -1.51601583       0.45730156
H        0.99044404      -0.37814294      -0.78630846
H       -1.86454338      -0.72280625       0.26135836
H       -0.61989654       1.02487512      -1.94819629
H       -2.25309738      -0.49435770      -2.08509651
14
Frame=9 idx=010168 GeodesicLength=0.5115236760083273 rxn_smarts="[N:1]([C:2](=[O:3])[C:4]([C@@:5]1([H:12])[C:6]([H:13])([H:14])[O:7]1)([H:10])[H:11])([H:8])[H:9]>>[N:1]([C:2](=[O:3])[C:4]([C@@:5]([C:6][H:13])([O:7][H:14])[H:12])([H:10])[H:11])([H:8])[H:9]"
N        1.86675863       0.61540750       1.52133294
C        0.56576667       0.49936883       1.14926030
O       -0.30635588       1.11586451       1.72221508
C        0.29545448      -0.52737081       0.06339300
C       -1.10887938      -0.41603070      -0.46361490
C       -1.47221666       0.54614094      -1.51034417
O       -1.27281257      -1.08300906      -1.73115391
H        2.11064256       1.29778319       2.21678445
H        2.59208465       0.04625212       1.12940403
H        0.46397630      -1.52715360       0.47267794
H        0.99371724      -0.39943347      -0.76840946
H       -1.87544055      -0.70019455       0.25464078
H       -0.59028302       1.01123526      -1.96262766
H       -2.26241247      -0.47886014      -2.09355841
14
Frame=10 idx=010168 GeodesicLength=0.5685143587873138 rxn_smarts="[N:1]([C:2](=[O:3])[C:4]([C@@:5]1([H:12])[C:6]([H:13])([H:14])[O:7]1)([H:10])[H:11])([H:8])[H:9]>>[N:1]([C:2](=[O:3])[C:4]([C@@:5]([C:6][H:13])([O:7][H:14])[H:12])([H:10])[H:11])([H:8])[H:9]"
N        1.86704974       0.63428930       1.50379726
C        0.56013172       0.48242864       1.16712984
O       -0.31432078       1.05293818       1.78274484
C        0.28976564      -0.53807482       0.07544917
C       -1.10820163      -0.40797876      -0.46412101
C       -1.44895230       0.54532380      -1.52582243
O       -1.27504749      -1.07701859      -1.73034533
H        2.10981671       1.31710399       2.19923849
H        2.59825860       0.09274482       1.08465253
H        0.44053977      -1.53970743       0.48709752
H        0.99709087      -0.42170375      -0.75020115
H       -1.88564559      -0.67629122       0.24835800
H       -0.55923106       0.99682332      -1.97626414
H       -2.27125420      -0.46087749      -2.10171360
14
Frame=11 idx=010168 GeodesicLength=0.6255629515588995 rxn_smarts="[N:1]([C:2](=[O:3])[C:4]([C@@:5]1([H:12])[C:6]([H:13])([H:14])[O:7]1)([H:10])[H:11])([H:8])[H:9]>>[N:1]([C:2](=[O:3])[C:4]([C@@:5]([C:6][H:13])([O:7][H:14])[H:12])([H:10])[H:11])([H:8])[H:9]"
N        1.86560965       0.65389914       1.48603310
C        0.55494424       0.46437555       1.18511743
O       -0.31905033       0.98773620       1.84202699
C        0.28442953      -0.54948629       0.08731216
C       -1.10691410      -0.39947303      -0.46419494
C       -1.42466071       0.54423297      -1.54089127
O       -1.27804223      -1.07115450      -1.72860249
H        2.10659176       1.33606921       2.18274919
H        2.60138542       0.14226953       1.03831146
H        0.41706909      -1.55293890       0.50072847
H        1.00050695      -0.44479726      -0.73214631
H       -1.89484613      -0.65031512       0.24294865
H       -0.52709778       0.98073230      -1.99019614
H       -2.27992536      -0.44114979      -2.10919628
14
Frame=12 idx=010168 GeodesicLength=0.6825333535964626 rxn_smarts="[N:1]([C:2](=[O:3])[C:4]([C@@:5]1([H:12])[C:6]([H:13])([H:14])[O:7]1)([H:10])[H:11])([H:8])[H:9]>>[N:1]([C:2](=[O:3])[C:4]([C@@:5]([C:6][H:13])([O:7][H:14])[H:12])([H:10])[H:11])([H:8])[H:9]"
N        1.86219946       0.67350183       1.46863195
C        0.55021662       0.44398533       1.20389431
O       -0.32074831       0.92036485       1.89954302
C        0.27947455      -0.56220201       0.09909866
C       -1.10489290      -0.39079464      -0.46378161
C       -1.39914378       0.54316881      -1.55497729
O       -1.28169386      -1.06491365      -1.72625581
H        2.10079400       1.35745527       2.16444485
H        2.60103605       0.19411038       0.99129201
H        0.39344822      -1.56761080       0.51328026
H        1.00410719      -0.46896479      -0.71399459
H       -1.90291505      -0.62268499       0.23834025
H       -0.49366825       0.96342646      -2.00352811
H       -2.28821395      -0.41884205      -2.11598789
14
Frame=13 idx=010168 GeodesicLength=0.7394757001023714 rxn_smarts="[N:1]([C:2](=[O:3])[C:4]([C@@:5]1([H:12])[C:6]([H:13])([H:14])[O:7]1)([H:10])[H:11])([H:8])[H:9]>>[N:1]([C:2](=[O:3])[C:4]([C@@:5]([C:6][H:13])([O:7][H:14])[H:12])([H:10])[H:11])([H:8])[H:9]"
N        1.85693197       0.69367457       1.45108985
C        0.54626376       0.42200874       1.22287468
O       -0.31925949       0.85186829       1.95475704
C        0.27499434      -0.57586503       0.11065764
C       -1.10208699      -0.38184100      -0.46288302
C       -1.37261015       0.54174970      -1.56840370
O       -1.28613147      -1.05863913      -1.72303289
H        2.09240676       1.37842195       2.14721441
H        2.59688340       0.24900121       0.94290262
H        0.36984340      -1.58321978       0.52487893
H        1.00789302      -0.49404552      -0.69602036
H       -1.90958279      -0.59301948       0.23477388
H       -0.45928930       0.94434752      -2.01689859
H       -2.29625647      -0.39444205      -2.12191048
14
Frame=14 idx=010168 GeodesicLength=0.7962914262992501 rxn_smarts="[N:1]([C:2](=[O:3])[C:4]([C@@:5]1([H:12])[C:6]([H:13])([H:14])[O:7]1)([H:10])[H:11])([H:8])[H:9]>>[N:1]([C:2](=[O:3])[C:4]([C@@:5]([C:6][H:13])([O:7][H:14])[H:12])([H:10])[H:11])([H:8])[H:9]"
N        1.84974813       0.71448487       1.43332841
C        0.54330443       0.39840203       1.24193988
O       -0.31477471       0.78309548       2.00703236
C        0.27110294      -0.59047549       0.12187743
C       -1.09840318      -0.37277513      -0.46151219
C       -1.34526950       0.53990428      -1.58101966
O       -1.29131845      -1.05224541      -1.71903533
H        2.08158370       1.39895425       2.13098746
H        2.58861501       0.30617765       0.89401669
H        0.34641666      -1.59973965       0.53540649
H        1.01196002      -0.51988358      -0.67835640
H       -1.91456881      -0.56160382       0.23231082
H       -0.42431978       0.92360921      -2.03014396
H       -2.30407645      -0.36790469      -2.12683200
14
Frame=15 idx=010168 GeodesicLength=0.8532581466908722 rxn_smarts="[N:1]([C:2](=[O:3])[C:4]([C@@:5]1([H:12])[C:6]([H:13])([H:14])[O:7]1)([H:10])[H:11])([H:8])[H:9]>>[N:1]([C:2](=[O:3])[C:4]([C@@:5]([C:6][H:13])([O:7][H:14])[H:12])([H:10])[H:11])([H:8])[H:9]"
N        1.84049207       0.73612665       1.41516032
C        0.54138733       0.37362927       1.26090457
O       -0.30734172       0.71436455       2.05667208
C        0.26766341      -0.60589329       0.13294042
C       -1.09382236      -0.36341636      -0.45966600
C       -1.31686678       0.53731139      -1.59325667
O       -1.29727802      -1.04601496      -1.71395416
H        2.06912251       1.41624132       2.11814618
H        2.57519002       0.36806490       0.84224224
H        0.32289594      -1.61689386       0.54534090
H        1.01622673      -0.54670387      -0.66080051
H       -1.91780571      -0.52781511       0.23097771
H       -0.38847464       0.90044146      -2.04383804
H       -2.31138878      -0.33944207      -2.13086904
14
Frame=16 idx=010168 GeodesicLength=0.9100724680910657 rxn_smarts="[N:1]([C:2](=[O:3])[C:4]([C@@:5]1([H:12])[C:6]([H:13])([H:14])[O:7]1)([H:10])[H:11])([H:8])[H:9]>>[N:1]([C:2](=[O:3])[C:4]([C@@:5]([C:6][H:13])([O:7][H:14])[H:12])([H:10])[H:11])([H:8])[H:9]"
N        1.82918768       0.75764690       1.39723046
C        0.54078198       0.34723200       1.27970766
O       -0.29735036       0.64614215       2.10298074
C        0.26493266      -0.62224039       0.14356854
C       -1.08818436      -0.35412632      -0.45736917
C       -1.28793967       0.53426643      -1.60445927
O       -1.30373437      -1.03939838      -1.70822821
H        2.05449832       1.43420272       2.10469884
H        2.55685783       0.43063501       0.79144461
H        0.29969797      -1.63487420       0.55412383
H        1.02090837      -0.57396392      -0.64359144
H       -1.91883907      -0.49278089       0.23072791
H       -0.35259371       0.87592323      -2.05705034
H       -2.31822328      -0.30866436      -2.13378415
