12
Frame=0 idx=010755 GeodesicLength=0.0 rxn_smarts="[N:1]([c:2]1[c:3]([H:10])[o:4][n:5][c:6]1[N:7]([H:11])[H:12])([H:8])[H:9]>>[N+:1]([c:2]1[c-:3][o:4][n:5][c:6]1[N:7]([H:11])[H:12])([H:8])([H:9])[H:10]"
N        0.78665004       1.59473862      -0.06219988
C        0.44929685       0.19012987      -0.06565219
C        1.62037793      -0.46084785      -0.25420007
O        1.35897102      -1.76593844      -0.20501559
N       -0.01268020      -1.96709857       0.01425381
C       -0.55928319      -0.78195015       0.11529251
N       -1.90125236      -0.63208978       0.42636552
H        0.42291845       2.15554393      -0.82421768
H        0.67704836       2.07934304       0.82168312
H        1.92815099       1.03094852      -0.25111894
H       -2.37592568       0.06944157      -0.11800077
H       -2.39427226      -1.51222075       0.40281016
12
Frame=1 idx=010755 GeodesicLength=0.04969070368121922 rxn_smarts="[N:1]([c:2]1[c:3]([H:10])[o:4][n:5][c:6]1[N:7]([H:11])[H:12])([H:8])[H:9]>>[N+:1]([c:2]1[c-:3][o:4][n:5][c:6]1[N:7]([H:11])[H:12])([H:8])([H:9])[H:10]"
N        0.78051271       1.59348810      -0.06431138
C        0.45650580       0.18750247      -0.02845213
C        1.62596325      -0.46290328      -0.23607896
O        1.35841100      -1.76808629      -0.20951347
N       -0.01232603      -1.96962755       0.01165586
C       -0.55683443      -0.78454817       0.11695009
N       -1.90028137      -0.62705752       0.41889500
H        0.36580530       2.14113353      -0.80969786
H        0.71002410       2.09009388       0.81688272
H        1.93595481       1.02847276      -0.27539674
H       -2.36626985       0.07629372      -0.13096022
H       -2.39746529      -1.50476165       0.39002708
12
Frame=2 idx=010755 GeodesicLength=0.099055891963436 rxn_smarts="[N:1]([c:2]1[c:3]([H:10])[o:4][n:5][c:6]1[N:7]([H:11])[H:12])([H:8])[H:9]>>[N+:1]([c:2]1[c-:3][o:4][n:5][c:6]1[N:7]([H:11])[H:12])([H:8])([H:9])[H:10]"
N        0.77320171       1.59136119      -0.06757371
C        0.46382878       0.18470578       0.00811908
C        1.63234098      -0.46500217      -0.21339562
O        1.35711608      -1.76953230      -0.21956156
N       -0.01193315      -1.97175465       0.00761167
C       -0.55395811      -0.78670881       0.11788135
N       -1.89832983      -0.62189719       0.41277340
H        0.31185012       2.12459554      -0.79577792
H        0.73822713       2.10186303       0.80769220
H        1.94359025       1.02490661      -0.29470193
H       -2.35600472       0.08440726      -0.14055652
H       -2.39992923      -1.49694429       0.37748957
12
Frame=3 idx=010755 GeodesicLength=0.14864799506551957 rxn_smarts="[N:1]([c:2]1[c:3]([H:10])[o:4][n:5][c:6]1[N:7]([H:11])[H:12])([H:8])[H:9]>>[N+:1]([c:2]1[c-:3][o:4][n:5][c:6]1[N:7]([H:11])[H:12])([H:8])([H:9])[H:10]"
N        0.76497931       1.58851758      -0.07143617
C        0.47050123       0.18195951       0.04063175
C        1.63857914      -0.46706437      -0.19183153
O        1.35734315      -1.77065651      -0.22230218
N       -0.01196764      -1.97330507      -0.00146949
C       -0.55090114      -0.78836234       0.11745638
N       -1.89569704      -0.61656482       0.40738255
H        0.25910210       2.10885521      -0.77903019
H        0.76501073       2.11193935       0.79681825
H        1.95064362       1.02030418      -0.31385384
H       -2.34589680       0.09321663      -0.14787124
H       -2.40169669      -1.48883934       0.36550571
12
Frame=4 idx=010755 GeodesicLength=0.1984173843340939 rxn_smarts="[N:1]([c:2]1[c:3]([H:10])[o:4][n:5][c:6]1[N:7]([H:11])[H:12])([H:8])[H:9]>>[N+:1]([c:2]1[c-:3][o:4][n:5][c:6]1[N:7]([H:11])[H:12])([H:8])([H:9])[H:10]"
N        0.75628607       1.58537085      -0.07513126
C        0.47643770       0.17940540       0.06856924
C        1.64430611      -0.46897004      -0.17375965
O        1.35834254      -1.77169333      -0.22152680
N       -0.01154206      -1.97450923      -0.00839718
C       -0.54783080      -0.78956156       0.11607851
N       -1.89297545      -0.61073300       0.40152293
H        0.20769447       2.09523237      -0.75810976
H        0.79125230       2.11970487       0.78573391
H        1.95738218       1.01500820      -0.33327557
H       -2.33629446       0.10120261      -0.15681883
H       -2.40305860      -1.48045713       0.35511447
12
Frame=5 idx=010755 GeodesicLength=0.2478675726841788 rxn_smarts="[N:1]([c:2]1[c:3]([H:10])[o:4][n:5][c:6]1[N:7]([H:11])[H:12])([H:8])[H:9]>>[N+:1]([c:2]1[c-:3][o:4][n:5][c:6]1[N:7]([H:11])[H:12])([H:8])([H:9])[H:10]"
N        0.74727169       1.58200655      -0.07923035
C        0.48163657       0.17709185       0.09287605
C        1.64973489      -0.47070181      -0.15624274
O        1.35940558      -1.77245220      -0.22032655
N       -0.01097561      -1.97542025      -0.01484961
C       -0.54477069      -0.79046033       0.11375597
N       -1.88996455      -0.60480110       0.39599644
H        0.15888129       2.08262527      -0.73544489
H        0.81542244       2.12636679       0.77329606
H        1.96443624       1.00911973      -0.35058094
H       -2.32711925       0.10873957      -0.16542992
H       -2.40395860      -1.47211405       0.34618049
12
Frame=6 idx=010755 GeodesicLength=0.29744318749471776 rxn_smarts="[N:1]([c:2]1[c:3]([H:10])[o:4][n:5][c:6]1[N:7]([H:11])[H:12])([H:8])[H:9]>>[N+:1]([c:2]1[c-:3][o:4][n:5][c:6]1[N:7]([H:11])[H:12])([H:8])([H:9])[H:10]"
N        0.73789151       1.57857813      -0.08341840
C        0.48621583       0.17500444       0.11416598
C        1.65481954      -0.47226874      -0.14045537
O        1.36072262      -1.77314304      -0.21766435
N       -0.01012370      -1.97615899      -0.01985410
C       -0.54174315      -0.79111396       0.11103759
N       -1.88693493      -0.59865927       0.39022881
H        0.11155278       2.07142030      -0.70975799
H        0.83893310       2.13178612       0.76009971
H        1.97153537       1.00274095      -0.36761699
H       -2.31829856       0.11555114      -0.17508478
H       -2.40457041      -1.46373709       0.33831989
12
Frame=7 idx=010755 GeodesicLength=0.34698029443535205 rxn_smarts="[N:1]([c:2]1[c:3]([H:10])[o:4][n:5][c:6]1[N:7]([H:11])[H:12])([H:8])[H:9]>>[N+:1]([c:2]1[c-:3][o:4][n:5][c:6]1[N:7]([H:11])[H:12])([H:8])([H:9])[H:10]"
N        0.72820725       1.57515436      -0.08786252
C        0.49023733       0.17314249       0.13295394
C        1.65961341      -0.47366986      -0.12573410
O        1.36220079      -1.77377828      -0.21397078
N       -0.00912005      -1.97679541      -0.02409200
C       -0.53877894      -0.79160627       0.10779369
N       -1.88387259      -0.59249011       0.38443378
H        0.06598019       2.06136280      -0.68170263
H        0.86149628       2.13637659       0.74583452
H        1.97889130       0.99596462      -0.38391500
H       -2.30988577       0.12182141      -0.18508999
H       -2.40496920      -1.45548233       0.33135109
12
Frame=8 idx=010755 GeodesicLength=0.39642052085192325 rxn_smarts="[N:1]([c:2]1[c:3]([H:10])[o:4][n:5][c:6]1[N:7]([H:11])[H:12])([H:8])[H:9]>>[N+:1]([c:2]1[c-:3][o:4][n:5][c:6]1[N:7]([H:11])[H:12])([H:8])([H:9])[H:10]"
N        0.71823008       1.57170074      -0.09269092
C        0.49370183       0.17150896       0.14974360
C        1.66412148      -0.47488988      -0.11150636
O        1.36374443      -1.77429378      -0.20975694
N       -0.00805445      -1.97730832      -0.02809854
C       -0.53588238      -0.79197913       0.10401438
N       -1.88074905      -0.58642578       0.37880450
H        0.02243255       2.05212952      -0.65191350
H        0.88278296       2.14045159       0.73025641
H        1.98670706       0.98882538      -0.39907553
H       -2.30185212       0.12771079      -0.19485250
H       -2.40518238      -1.44743010       0.32507540
12
Frame=9 idx=010755 GeodesicLength=0.4458528419720633 rxn_smarts="[N:1]([c:2]1[c:3]([H:10])[o:4][n:5][c:6]1[N:7]([H:11])[H:12])([H:8])[H:9]>>[N+:1]([c:2]1[c-:3][o:4][n:5][c:6]1[N:7]([H:11])[H:12])([H:8])([H:9])[H:10]"
N        0.70789268       1.56828914      -0.09796992
C        0.49668789       0.17011475       0.16466424
C        1.66848482      -0.47596834      -0.09754761
O        1.36532252      -1.77466153      -0.20526936
N       -0.00693350      -1.97767876      -0.03230408
C       -0.53311954      -0.79220390       0.09965110
N       -1.87758554      -0.58048462       0.37348876
H       -0.01917739       2.04332785      -0.62113046
H        0.90272845       2.14410792       0.71345725
H        1.99521120       0.98137062      -0.41254149
H       -2.29431125       0.13336989      -0.20398910
H       -2.40520035      -1.43958301       0.31949067
12
Frame=10 idx=010755 GeodesicLength=0.4951785809089714 rxn_smarts="[N:1]([c:2]1[c:3]([H:10])[o:4][n:5][c:6]1[N:7]([H:11])[H:12])([H:8])[H:9]>>[N+:1]([c:2]1[c-:3][o:4][n:5][c:6]1[N:7]([H:11])[H:12])([H:8])([H:9])[H:10]"
N        0.69722257       1.56487022      -0.10365040
C        0.49922499       0.16888808       0.17833353
C        1.67254949      -0.47689835      -0.08391640
O        1.36690939      -1.77492501      -0.20050131
N       -0.00575835      -1.97799560      -0.03621998
C       -0.53039860      -0.79237123       0.09501482
N       -1.87442797      -0.57471583       0.36826435
H       -0.05889226       2.03528885      -0.58853887
H        0.92156549       2.14748380       0.69524344
H        2.00416919       0.97363847      -0.42528616
H       -2.28702813       0.13873831      -0.21296222
H       -2.40513581      -1.43200171       0.31421921
12
Frame=11 idx=010755 GeodesicLength=0.5445022497570092 rxn_smarts="[N:1]([c:2]1[c:3]([H:10])[o:4][n:5][c:6]1[N:7]([H:11])[H:12])([H:8])[H:9]>>[N+:1]([c:2]1[c-:3][o:4][n:5][c:6]1[N:7]([H:11])[H:12])([H:8])([H:9])[H:10]"
N        0.68615915       1.56144574      -0.10974149
C        0.50134646       0.16791813       0.19074137
C        1.67645400      -0.47764685      -0.07030896
O        1.36847632      -1.77498902      -0.19593519
N       -0.00454213      -1.97815139      -0.04047086
C       -0.52778527      -0.79243834       0.09002129
N       -1.87126847      -0.56912930       0.36340687
H       -0.09673924       2.02728720      -0.55549467
H        0.93907746       2.15066963       0.67581963
H        2.01393138       0.96562944      -0.43628951
H       -2.28016952       0.14400951      -0.22106859
H       -2.40494015      -1.42460476       0.30932011
12
Frame=12 idx=010755 GeodesicLength=0.5937579355654896 rxn_smarts="[N:1]([c:2]1[c:3]([H:10])[o:4][n:5][c:6]1[N:7]([H:11])[H:12])([H:8])[H:9]>>[N+:1]([c:2]1[c-:3][o:4][n:5][c:6]1[N:7]([H:11])[H:12])([H:8])([H:9])[H:10]"
N        0.67461690       1.55806736      -0.11614801
C        0.50311294       0.16709917       0.20218462
C        1.68013698      -0.47825582      -0.05710417
O        1.37008447      -1.77497145      -0.19088249
N       -0.00324449      -1.97827812      -0.04438689
C       -0.52525387      -0.79243789       0.08489938
N       -1.86819112      -0.56371165       0.35852475
H       -0.13293435       2.02000894      -0.52049022
H        0.95590869       2.15352798       0.65503837
H        2.02402558       0.95742907      -0.44693942
H       -2.27357447       0.14902225      -0.22922093
H       -2.40468726      -1.41749983       0.30452501
12
Frame=13 idx=010755 GeodesicLength=0.642884455409879 rxn_smarts="[N:1]([c:2]1[c:3]([H:10])[o:4][n:5][c:6]1[N:7]([H:11])[H:12])([H:8])[H:9]>>[N+:1]([c:2]1[c-:3][o:4][n:5][c:6]1[N:7]([H:11])[H:12])([H:8])([H:9])[H:10]"
N        0.66263030       1.55458832      -0.12290488
C        0.50451455       0.16647380       0.21291393
C        1.68354719      -0.47861117      -0.04389154
O        1.37161485      -1.77468769      -0.18587139
N       -0.00194824      -1.97824214      -0.04852317
C       -0.52277580      -0.79240604       0.07971640
N       -1.86513082      -0.55858873       0.35390090
H       -0.16720007       2.01285008      -0.48460652
H        0.97155622       2.15626404       0.63283075
H        2.03470440       0.94899640      -0.45658011
H       -2.26710915       0.15401654      -0.23655464
H       -2.40440342      -1.41065341       0.29957027
12
Frame=14 idx=010755 GeodesicLength=0.6920505050218229 rxn_smarts="[N:1]([c:2]1[c:3]([H:10])[o:4][n:5][c:6]1[N:7]([H:11])[H:12])([H:8])[H:9]>>[N+:1]([c:2]1[c-:3][o:4][n:5][c:6]1[N:7]([H:11])[H:12])([H:8])([H:9])[H:10]"
N        0.65002604       1.55112644      -0.12981237
C        0.50562835       0.16601361       0.22307035
C        1.68674836      -0.47877432      -0.03105204
O        1.37321009      -1.77432699      -0.18043789
N       -0.00052602      -1.97819437      -0.05229628
C       -0.52032492      -0.79235946       0.07468763
N       -1.86218131      -0.55366566       0.34923294
H       -0.19988356       2.00612617      -0.44689494
H        0.98658660       2.15881383       0.60927137
H        2.04558850       0.94033121      -0.46619552
H       -2.26074002       0.15896092      -0.24378571
H       -2.40413211      -1.40405138       0.29421246
12
Frame=15 idx=010755 GeodesicLength=0.741145885427365 rxn_smarts="[N:1]([c:2]1[c:3]([H:10])[o:4][n:5][c:6]1[N:7]([H:11])[H:12])([H:8])[H:9]>>[N+:1]([c:2]1[c-:3][o:4][n:5][c:6]1[N:7]([H:11])[H:12])([H:8])([H:9])[H:10]"
N        0.63682383       1.54761461      -0.13700501
C        0.50643836       0.16571635       0.23263370
C        1.68974995      -0.47873207      -0.01834531
O        1.37482085      -1.77380428      -0.17482134
N        0.00096520      -1.97806578      -0.05614624
C       -0.51794001      -0.79229348       0.06965160
N       -1.85930352      -0.54903289       0.34475624
H       -0.23071679       1.99963390      -0.40810772
H        1.00059613       2.16117886       0.58425784
H        2.05695350       0.93149417      -0.47506054
H       -2.25452585       0.16401496      -0.25026488
H       -2.40386166      -1.39772436       0.28845168
12
Frame=16 idx=010755 GeodesicLength=0.790208752803089 rxn_smarts="[N:1]([c:2]1[c:3]([H:10])[o:4][n:5][c:6]1[N:7]([H:11])[H:12])([H:8])[H:9]>>[N+:1]([c:2]1[c-:3][o:4][n:5][c:6]1[N:7]([H:11])[H:12])([H:8])([H:9])[H:10]"
N        0.62296367       1.54403455      -0.14441313
C        0.50696289       0.16557154       0.24174638
C        1.69253817      -0.47847030      -0.00577725
O        1.37644856      -1.77312183      -0.16901056
N        0.00253809      -1.97786877      -0.06003927
C       -0.51559989      -0.79222988       0.06473358
N       -1.85650539      -0.54471591       0.34046529
H       -0.25967487       1.99332779      -0.36826249
H        1.01356915       2.16339241       0.55777097
H        2.06874826       0.92248469      -0.48334442
H       -2.24836141       0.16927088      -0.25593226
H       -2.40362724      -1.39167516       0.28206317
