13
Frame=0 idx=003438 GeodesicLength=0.0 rxn_smarts="[N:1]([C:2](=[O:3])[C:4]1([H:9])[C:5]([H:10])([H:11])[C:6]1([H:12])[H:13])([H:7])[H:8]>>[N:1](=[C:2]1\[O:3][C@:4]1([C:6]([C:5]([H:7])([H:10])[H:11])([H:12])[H:13])[H:9])\[H:8]"
N        1.79935603      -0.09041622      -0.74352695
C        1.33000961       0.67994589       0.19889158
O        1.68039139       1.70809524       0.78665039
C        0.01312366       0.11605014       0.73624082
C       -0.84841938      -0.87929519      -0.40220400
C       -1.28032346       0.48868908       0.29357768
H        0.32187199      -1.01378230      -0.50866565
H        2.69185269       0.24268218      -1.09022189
H        0.08294752      -0.46375116       1.65227566
H       -0.97547185      -0.71367749      -1.46801411
H       -1.33742213      -1.75370914       0.00385191
H       -2.12631656       0.37875112       0.95982722
H       -1.35159957       1.30041790      -0.41868271
13
Frame=1 idx=003438 GeodesicLength=0.1121484724766876 rxn_smarts="[N:1]([C:2](=[O:3])[C:4]1([H:9])[C:5]([H:10])([H:11])[C:6]1([H:12])[H:13])([H:7])[H:8]>>[N:1](=[C:2]1\[O:3][C@:4]1([C:6]([C:5]([H:7])([H:10])[H:11])([H:12])[H:13])[H:9])\[H:8]"
N        1.81508665      -0.10375199      -0.73455807
C        1.34178458       0.65872332       0.21217690
O        1.62754787       1.72780328       0.76254434
C        0.01948914       0.11609550       0.74336267
C       -0.85355339      -0.87399407      -0.40589330
C       -1.27667576       0.48830355       0.29444372
H        0.34053930      -1.02918009      -0.52641349
H        2.69733990       0.24711785      -1.08981136
H        0.08551137      -0.46822085       1.65693654
H       -0.99234862      -0.70848093      -1.47037015
H       -1.34484351      -1.74732268       0.00098865
H       -2.11969289       0.38435041       0.96558222
H       -1.34018463       1.30855670      -0.40898868
13
Frame=2 idx=003438 GeodesicLength=0.22413972568435026 rxn_smarts="[N:1]([C:2](=[O:3])[C:4]1([H:9])[C:5]([H:10])([H:11])[C:6]1([H:12])[H:13])([H:7])[H:8]>>[N:1](=[C:2]1\[O:3][C@:4]1([C:6]([C:5]([H:7])([H:10])[H:11])([H:12])[H:13])[H:9])\[H:8]"
N        1.83042231      -0.11575157      -0.72542286
C        1.35205643       0.64068647       0.22386006
O        1.57678743       1.74343348       0.73753111
C        0.02557579       0.11731590       0.74999277
C       -0.85877620      -0.86830521      -0.40963394
C       -1.27397263       0.48780123       0.29557355
H        0.35979452      -1.04371147      -0.54545043
H        2.70472528       0.24912747      -1.08635100
H        0.08883332      -0.47160093       1.66096458
H       -1.00989515      -0.70296780      -1.47257504
H       -1.35093143      -1.74119652      -0.00157618
H       -2.11345314       0.38887090       0.97206963
H       -1.33116653       1.31629806      -0.39898224
13
Frame=3 idx=003438 GeodesicLength=0.33604906676038293 rxn_smarts="[N:1]([C:2](=[O:3])[C:4]1([H:9])[C:5]([H:10])([H:11])[C:6]1([H:12])[H:13])([H:7])[H:8]>>[N:1](=[C:2]1\[O:3][C@:4]1([C:6]([C:5]([H:7])([H:10])[H:11])([H:12])[H:13])[H:9])\[H:8]"
N        1.84549612      -0.12673353      -0.71613144
C        1.36076904       0.62548668       0.23367815
O        1.52815263       1.75567647       0.71176684
C        0.03135699       0.11958998       0.75611218
C       -0.86420299      -0.86224082      -0.41342721
C       -1.27218492       0.48717127       0.29700722
H        0.37966783      -1.05742523      -0.56582309
H        2.71411046       0.24889913      -1.07977393
H        0.09290662      -0.47399085       1.66431083
H       -1.02820371      -0.69715510      -1.47459605
H       -1.35584204      -1.73529419      -0.00387008
H       -2.10757973       0.39235256       0.97932266
H       -1.32444630       1.32366364      -0.38857607
13
Frame=4 idx=003438 GeodesicLength=0.44795916340271413 rxn_smarts="[N:1]([C:2](=[O:3])[C:4]1([H:9])[C:5]([H:10])([H:11])[C:6]1([H:12])[H:13])([H:7])[H:8]>>[N:1](=[C:2]1\[O:3][C@:4]1([C:6]([C:5]([H:7])([H:10])[H:11])([H:12])[H:13])[H:9])\[H:8]"
N        1.86045364      -0.13706330      -0.70651319
C        1.36808082       0.61263465       0.24187800
O        1.48162216       1.76510512       0.68554428
C        0.03681111       0.12277393       0.76185814
C       -0.86987838      -0.85586302      -0.41725047
C       -1.27120406       0.48646404       0.29868380
H        0.40024351      -1.07048079      -0.58747890
H        2.72505895       0.24699881      -1.07082449
H        0.09754135      -0.47551438       1.66715579
H       -1.04721513      -0.69114632      -1.47642884
H       -1.35976294      -1.72962174      -0.00591598
H       -2.10207280       0.39499096       0.98715921
H       -1.31967825       1.33072203      -0.37786736
13
Frame=5 idx=003438 GeodesicLength=0.5598057208021804 rxn_smarts="[N:1]([C:2](=[O:3])[C:4]1([H:9])[C:5]([H:10])([H:11])[C:6]1([H:12])[H:13])([H:7])[H:8]>>[N:1](=[C:2]1\[O:3][C@:4]1([C:6]([C:5]([H:7])([H:10])[H:11])([H:12])[H:13])[H:9])\[H:8]"
N        1.87545914      -0.14698107      -0.69637713
C        1.37427806       0.60152057       0.24877815
O        1.43708443       1.77200757       0.65876627
C        0.04194048       0.12669173       0.76732076
C       -0.87581050      -0.84918730      -0.42106184
C       -1.27091265       0.48573178       0.30054968
H        0.42159492      -1.08313537      -0.61026100
H        2.73697913       0.24420243      -1.06003118
H        0.10251968      -0.47631796       1.66955229
H       -1.06682512      -0.68498704      -1.47799475
H       -1.36286097      -1.72407933      -0.00773091
H       -2.09696127       0.39700046       0.99537859
H       -1.31648533       1.33753352      -0.36688893
13
Frame=6 idx=003438 GeodesicLength=0.67175753740534 rxn_smarts="[N:1]([C:2](=[O:3])[C:4]1([H:9])[C:5]([H:10])([H:11])[C:6]1([H:12])[H:13])([H:7])[H:8]>>[N:1](=[C:2]1\[O:3][C@:4]1([C:6]([C:5]([H:7])([H:10])[H:11])([H:12])[H:13])[H:9])\[H:8]"
N        1.89046392      -0.15660681      -0.68576496
C        1.37943833       0.59192890       0.25461324
O        1.39446600       1.77687996       0.63183074
C        0.04674257       0.13129740       0.77263917
C       -0.88204690      -0.84229433      -0.42484854
C       -1.27123684       0.48501882       0.30255777
H        0.44383603      -1.09541922      -0.63431189
H        2.74971376       0.24055034      -1.04790528
H        0.10775676      -0.47646489       1.67173469
H       -1.08704153      -0.67879336      -1.47933909
H       -1.36522299      -1.71877999      -0.00931231
H       -2.09220967       0.39851634       1.00388015
H       -1.31465943       1.34416685      -0.35577369
13
Frame=7 idx=003438 GeodesicLength=0.7838368580312 rxn_smarts="[N:1]([C:2](=[O:3])[C:4]1([H:9])[C:5]([H:10])([H:11])[C:6]1([H:12])[H:13])([H:7])[H:8]>>[N:1](=[C:2]1\[O:3][C@:4]1([C:6]([C:5]([H:7])([H:10])[H:11])([H:12])[H:13])[H:9])\[H:8]"
N        1.90547905      -0.16598533      -0.67469286
C        1.38370306       0.58352714       0.25955383
O        1.35364668       1.77992676       0.60470696
C        0.05122129       0.13649716       0.77785997
C       -0.88862129      -0.83519615      -0.42857973
C       -1.27210748       0.48435377       0.30468954
H        0.46709204      -1.10743921      -0.65961488
H        2.76302664       0.23632503      -1.03463088
H        0.11314656      -0.47603882       1.67373681
H       -1.10784497      -0.67260069      -1.48041394
H       -1.36694196      -1.71368781      -0.01065589
H       -2.08781176       0.39966446       1.01258240
H       -1.31398786       1.35065369      -0.34454134
13
Frame=8 idx=003438 GeodesicLength=0.8960421736675277 rxn_smarts="[N:1]([C:2](=[O:3])[C:4]1([H:9])[C:5]([H:10])([H:11])[C:6]1([H:12])[H:13])([H:7])[H:8]>>[N:1](=[C:2]1\[O:3][C@:4]1([C:6]([C:5]([H:7])([H:10])[H:11])([H:12])[H:13])[H:9])\[H:8]"
N        1.92049766      -0.17517259      -0.66314399
C        1.38713700       0.57611044       0.26372836
O        1.31454596       1.78131350       0.57744523
C        0.05536699       0.14223206       0.78303516
C       -0.89557729      -0.82791691      -0.43222142
C       -1.27347893       0.48375726       0.30693314
H        0.49149279      -1.11922105      -0.68622541
H        2.77680736       0.23168191      -1.02043382
H        0.11859903      -0.47508648       1.67561862
H       -1.12922141      -0.66645862      -1.48118757
H       -1.36809183      -1.70879235      -0.01175882
H       -2.08375881       0.40054247       1.02143224
H       -1.31431852       1.35701037      -0.33322171
13
Frame=9 idx=003438 GeodesicLength=1.0087427895168484 rxn_smarts="[N:1]([C:2](=[O:3])[C:4]1([H:9])[C:5]([H:10])([H:11])[C:6]1([H:12])[H:13])([H:7])[H:8]>>[N:1](=[C:2]1\[O:3][C@:4]1([C:6]([C:5]([H:7])([H:10])[H:11])([H:12])[H:13])[H:9])\[H:8]"
N        1.93554148      -0.18412584      -0.65125716
C        1.38976577       0.56959960       0.26690000
O        1.27699401       1.78102056       0.55032497
C        0.05922612       0.14852756       0.78807577
C       -0.90303507      -0.82046515      -0.43570233
C       -1.27534485       0.48328178       0.30928896
H        0.51719174      -1.13093351      -0.71432337
H        2.79103161       0.22665584      -1.00508076
H        0.12420269      -0.47360246       1.67728870
H       -1.15114561      -0.66044673      -1.48161711
H       -1.36875806      -1.70407256      -0.01251518
H       -2.08000123       0.40128845       1.03050168
H       -1.31566861       1.36327246      -0.32188418
13
Frame=10 idx=003438 GeodesicLength=1.1215534018264053 rxn_smarts="[N:1]([C:2](=[O:3])[C:4]1([H:9])[C:5]([H:10])([H:11])[C:6]1([H:12])[H:13])([H:7])[H:8]>>[N:1](=[C:2]1\[O:3][C@:4]1([C:6]([C:5]([H:7])([H:10])[H:11])([H:12])[H:13])[H:9])\[H:8]"
N        1.95054246      -0.19293839      -0.63896659
C        1.39173631       0.56360570       0.26955297
O        1.24090171       1.77936326       0.52303151
C        0.06275303       0.15524090       0.79315293
C       -0.91094824      -0.81285972      -0.43903662
C       -1.27762086       0.48292185       0.31175028
H        0.54435085      -1.14247550      -0.74381750
H        2.80550490       0.22148447      -0.98904525
H        0.12971066      -0.47169618       1.67893039
H       -1.17364161      -0.65453998      -1.48169184
H       -1.36898989      -1.69950860      -0.01301440
H       -2.07656002       0.40195419       1.03965447
H       -1.31773929       1.36944799      -0.31050037
13
Frame=11 idx=003438 GeodesicLength=1.2344673690323524 rxn_smarts="[N:1]([C:2](=[O:3])[C:4]1([H:9])[C:5]([H:10])([H:11])[C:6]1([H:12])[H:13])([H:7])[H:8]>>[N:1](=[C:2]1\[O:3][C@:4]1([C:6]([C:5]([H:7])([H:10])[H:11])([H:12])[H:13])[H:9])\[H:8]"
N        1.96548536      -0.20161491      -0.62632004
C        1.39310851       0.55797783       0.27171266
O        1.20612494       1.77643657       0.49551738
C        0.06596411       0.16234310       0.79827817
C       -0.91935876      -0.80510338      -0.44219986
C       -1.28028127       0.48270073       0.31432658
H        0.57312094      -1.15388807      -0.77481407
H        2.82017410       0.21621161      -0.97226762
H        0.13510735      -0.46940810       1.68055539
H       -1.19674075      -0.64874556      -1.48138382
H       -1.36883133      -1.69509121      -0.01323535
H       -2.07341810       0.40260868       1.04890094
H       -1.32045510       1.37557270      -0.29907035
13
Frame=12 idx=003438 GeodesicLength=1.3474320601740337 rxn_smarts="[N:1]([C:2](=[O:3])[C:4]1([H:9])[C:5]([H:10])([H:11])[C:6]1([H:12])[H:13])([H:7])[H:8]>>[N:1](=[C:2]1\[O:3][C@:4]1([C:6]([C:5]([H:7])([H:10])[H:11])([H:12])[H:13])[H:9])\[H:8]"
N        1.98034490      -0.21016759      -0.61336521
C        1.39389345       0.55261728       0.27338557
O        1.17255743       1.77231471       0.46780639
C        0.06886063       0.16981394       0.80345492
C       -0.92832110      -0.79720974      -0.44516158
C       -1.28331191       0.48263197       0.31702571
H        0.60368253      -1.16514313      -0.80741097
H        2.83505932       0.21082795      -0.95473968
H        0.14036978      -0.46675094       1.68217165
H       -1.22048216      -0.64308954      -1.48065845
H       -1.36833513      -1.69081167      -0.01316098
H       -2.07055731       0.40331166       1.05825344
H       -1.32376043       1.38165512      -0.28760079
13
Frame=13 idx=003438 GeodesicLength=1.4603879938186937 rxn_smarts="[N:1]([C:2](=[O:3])[C:4]1([H:9])[C:5]([H:10])([H:11])[C:6]1([H:12])[H:13])([H:7])[H:8]>>[N:1](=[C:2]1\[O:3][C@:4]1([C:6]([C:5]([H:7])([H:10])[H:11])([H:12])[H:13])[H:9])\[H:8]"
N        1.99510724      -0.21861472      -0.60010741
C        1.39411602       0.54740480       0.27455524
O        1.14010032       1.76701122       0.43979077
C        0.07145151       0.17763855       0.80868787
C       -0.93788523      -0.78918346      -0.44788856
C       -1.28670439       0.48273436       0.31986887
H        0.63621097      -1.17621280      -0.84178428
H        2.85013000       0.20536422      -0.93632977
H        0.14549036      -0.46374285       1.68378410
H       -1.24490967      -0.63758397      -1.47947775
H       -1.36753188      -1.68665367      -0.01276526
H       -2.06796279       0.40411868       1.06774600
H       -1.32761246       1.38771964      -0.27607983
13
Frame=14 idx=003438 GeodesicLength=1.5733008276980425 rxn_smarts="[N:1]([C:2](=[O:3])[C:4]1([H:9])[C:5]([H:10])([H:11])[C:6]1([H:12])[H:13])([H:7])[H:8]>>[N:1](=[C:2]1\[O:3][C@:4]1([C:6]([C:5]([H:7])([H:10])[H:11])([H:12])[H:13])[H:9])\[H:8]"
N        2.00974681      -0.22695106      -0.58663612
C        1.39377079       0.54224623       0.27521298
O        1.10865379       1.76056583       0.41148938
C        0.07373557       0.18579143       0.81396788
C       -0.94813068      -0.78104480      -0.45033990
C       -1.29045287       0.48302295       0.32286682
H        0.67095683      -1.18705759      -0.87802632
H        2.86541823       0.19981013      -0.91698620
H        0.15044879      -0.46039971       1.68538948
H       -1.27006965      -0.63225723      -1.47780316
H       -1.36650229      -1.68260380      -0.01201813
H       -2.06561550       0.40510420       1.07740312
H       -1.33195984       1.39377342      -0.26451982
13
Frame=15 idx=003438 GeodesicLength=1.6860816319409213 rxn_smarts="[N:1]([C:2](=[O:3])[C:4]1([H:9])[C:5]([H:10])([H:11])[C:6]1([H:12])[H:13])([H:7])[H:8]>>[N:1](=[C:2]1\[O:3][C@:4]1([C:6]([C:5]([H:7])([H:10])[H:11])([H:12])[H:13])[H:9])\[H:8]"
N        2.02424433      -0.23519222      -0.57300811
C        1.39285287       0.53705403       0.27533899
O        1.07813317       1.75299195       0.38290665
C        0.07571112       0.19425886       0.81928666
C       -0.95912966      -0.77281071      -0.45247267
C       -1.29456196       0.48351440       0.32603204
H        0.70817003      -1.19762021      -0.91626523
H        2.88096003       0.19415669      -0.89665085
H        0.15522810      -0.45672901       1.68698612
H       -1.29601462      -0.62713858      -1.47559018
H       -1.36531562      -1.67864869      -0.01088437
H       -2.06350774       0.40633579       1.08725324
H       -1.33677005       1.39982771      -0.25293229
13
Frame=16 idx=003438 GeodesicLength=1.7986376074013224 rxn_smarts="[N:1]([C:2](=[O:3])[C:4]1([H:9])[C:5]([H:10])([H:11])[C:6]1([H:12])[H:13])([H:7])[H:8]>>[N:1](=[C:2]1\[O:3][C@:4]1([C:6]([C:5]([H:7])([H:10])[H:11])([H:12])[H:13])[H:9])\[H:8]"
N        2.03858557      -0.24334816      -0.55929503
C        1.39135383       0.53173384       0.27489060
O        1.04844956       1.74428484       0.35400201
C        0.07738135       0.20302219       0.82462397
C       -0.97097028      -0.76450090      -0.45423788
C       -1.29903893       0.48422498       0.32938427
H        0.74812794      -1.20782188      -0.95665033
H        2.89678556       0.18839324      -0.87518526
H        0.15982349      -0.45274113       1.68856175
H       -1.32280704      -0.62225249      -1.47279324
H       -1.36405408      -1.67477523      -0.00931889
H       -2.06162290       0.40788568       1.09734223
H       -1.34201407       1.40589501      -0.24132421
