16
Frame=0 idx=006970 GeodesicLength=0.0 rxn_smarts="[C:1]([C:2]([C@@:3]([O:4][H:14])([C:5]([C:6]#[N:7])([H:15])[H:16])[H:13])([H:11])[H:12])([H:8])([H:9])[H:10]>>[C:1]([C:2]([C@@:3]([O:4][H:14])([C:5]([N+:7]#[C-:6])([H:15])[H:16])[H:13])([H:11])[H:12])([H:8])([H:9])[H:10]"
C        2.08789511      -0.06270140       0.06305357
C        0.67203381       0.24378351       0.53157784
C       -0.38429423      -0.19510661      -0.47295624
O       -0.34962424      -1.59538396      -0.71097486
C       -1.80982035       0.01997656       0.00889564
C       -2.07336034       1.76195392      -0.04245688
N       -2.18393514       1.44890556       1.09535281
H        2.29588894       0.40499433      -0.90336376
H        2.82295448       0.31419443       0.77466946
H        2.25905016      -1.13749773      -0.03271212
H        0.56351225       1.31614317       0.70493469
H        0.47321603      -0.25509516       1.48514744
H       -0.24482995       0.35057299      -1.41425092
H        0.42298095      -1.80172109      -1.23912514
H       -1.99797125      -0.58568910       0.89350656
H       -2.55369618      -0.22732937      -0.74129810
16
Frame=1 idx=006970 GeodesicLength=0.030674626122354557 rxn_smarts="[C:1]([C:2]([C@@:3]([O:4][H:14])([C:5]([C:6]#[N:7])([H:15])[H:16])[H:13])([H:11])[H:12])([H:8])([H:9])[H:10]>>[C:1]([C:2]([C@@:3]([O:4][H:14])([C:5]([N+:7]#[C-:6])([H:15])[H:16])[H:13])([H:11])[H:12])([H:8])([H:9])[H:10]"
C        2.08840857      -0.06206429       0.06173194
C        0.67233153       0.23920787       0.53306216
C       -0.38490052      -0.19646619      -0.47193615
O       -0.35124843      -1.59574945      -0.71422687
C       -1.80991669       0.02243122       0.01175734
C       -2.08046156       1.77115717      -0.04825250
N       -2.18563335       1.46169237       1.08834100
H        2.29469631       0.41166957      -0.90207122
H        2.82337175       0.31185776       0.77500851
H        2.26182861      -1.13593723      -0.04052598
H        0.56207328       1.31071515       0.71118296
H        0.47550869      -0.26487298       1.48432460
H       -0.24409994       0.35079729      -1.41230610
H        0.42671983      -1.80255464      -1.23426045
H       -1.99672599      -0.58582932       0.89536673
H       -2.55195210      -0.23605429      -0.73719597
16
Frame=2 idx=006970 GeodesicLength=0.061320518488523434 rxn_smarts="[C:1]([C:2]([C@@:3]([O:4][H:14])([C:5]([C:6]#[N:7])([H:15])[H:16])[H:13])([H:11])[H:12])([H:8])([H:9])[H:10]>>[C:1]([C:2]([C@@:3]([O:4][H:14])([C:5]([N+:7]#[C-:6])([H:15])[H:16])[H:13])([H:11])[H:12])([H:8])([H:9])[H:10]"
C        2.08890757      -0.06142059       0.06043164
C        0.67262633       0.23462884       0.53453181
C       -0.38551042      -0.19782269      -0.47092497
O       -0.35285175      -1.59608768      -0.71753656
C       -1.81000903       0.02489206       0.01463558
C       -2.08761467       1.78038521      -0.05409082
N       -2.18721320       1.47446326       1.08126715
H        2.29348251       0.41831574      -0.90072845
H        2.82377994       0.30952608       0.77534777
H        2.26457981      -1.13432912      -0.04830340
H        0.56062307       1.30525860       0.71741684
H        0.47778783      -0.27464240       1.48345269
H       -0.24338562       0.35105221      -1.41035113
H        0.43040690      -1.80340519      -1.22936266
H       -1.99544028      -0.58607129       0.89717425
H       -2.55016899      -0.24474304      -0.73295976
16
Frame=3 idx=006970 GeodesicLength=0.09192876719335484 rxn_smarts="[C:1]([C:2]([C@@:3]([O:4][H:14])([C:5]([C:6]#[N:7])([H:15])[H:16])[H:13])([H:11])[H:12])([H:8])([H:9])[H:10]>>[C:1]([C:2]([C@@:3]([O:4][H:14])([C:5]([N+:7]#[C-:6])([H:15])[H:16])[H:13])([H:11])[H:12])([H:8])([H:9])[H:10]"
C        2.08939200      -0.06077698       0.05915748
C        0.67291773       0.23005857       0.53597920
C       -0.38612405      -0.19917217      -0.46992703
O       -0.35442843      -1.59639417      -0.72090792
C       -1.81009841       0.02735310       0.01752864
C       -2.09482537       1.78963380      -0.05994313
N       -2.18866723       1.48719644       1.07415432
H        2.29225381       0.42489694      -0.89934444
H        2.82417812       0.30721002       0.77568410
H        2.26729645      -1.13268506      -0.05600703
H        0.55916870       1.29978999       0.72360852
H        0.48004502      -0.28437234       1.48253273
H       -0.24269184       0.35134403      -1.40838953
H        0.43404347      -1.80426533      -1.22444149
H       -1.99411511      -0.58643394       0.89891730
H       -2.54834483      -0.25338288      -0.72860173
16
Frame=4 idx=006970 GeodesicLength=0.12249061059558485 rxn_smarts="[C:1]([C:2]([C@@:3]([O:4][H:14])([C:5]([C:6]#[N:7])([H:15])[H:16])[H:13])([H:11])[H:12])([H:8])([H:9])[H:10]>>[C:1]([C:2]([C@@:3]([O:4][H:14])([C:5]([N+:7]#[C-:6])([H:15])[H:16])[H:13])([H:11])[H:12])([H:8])([H:9])[H:10]"
C        2.08986197      -0.06014051       0.05791413
C        0.67320525       0.22550969       0.53739668
C       -0.38674143      -0.20051049      -0.46894666
O       -0.35597251      -1.59666435      -0.72434472
C       -1.81018598       0.02980815       0.02043476
C       -2.10209977       1.79889902      -0.06577917
N       -2.18998918       1.49986985       1.06702680
H        2.29101707       0.43137586      -0.89792964
H        2.82456544       0.30492082       0.77601422
H        2.26997151      -1.13101819      -0.06359813
H        0.55771765       1.29432688       0.72972942
H        0.48227165      -0.29403078       1.48156637
H       -0.24202345       0.35167915      -1.40642491
H        0.43763101      -1.80512734      -1.21950704
H       -1.99275182      -0.58693657       0.90058351
H       -2.54647741      -0.26196120      -0.72413561
16
Frame=5 idx=006970 GeodesicLength=0.15299776957174813 rxn_smarts="[C:1]([C:2]([C@@:3]([O:4][H:14])([C:5]([C:6]#[N:7])([H:15])[H:16])[H:13])([H:11])[H:12])([H:8])([H:9])[H:10]>>[C:1]([C:2]([C@@:3]([O:4][H:14])([C:5]([N+:7]#[C-:6])([H:15])[H:16])[H:13])([H:11])[H:12])([H:8])([H:9])[H:10]"
C        2.09031785      -0.05951832       0.05670597
C        0.67348850       0.22099477       0.53877691
C       -0.38736251      -0.20183361      -0.46798797
O       -0.35747808      -1.59689381      -0.72785026
C       -1.81027293       0.03225096       0.02335217
C       -2.10944405       1.80817741      -0.07156863
N       -2.19117414       1.51246227       1.05990884
H        2.28977935       0.43771568      -0.89649549
H        2.82494120       0.30266999       0.77633487
H        2.27259865      -1.12934240      -0.07103846
H        0.55627738       1.28888708       0.73575161
H        0.48445931      -0.30358628       1.48055598
H       -0.24138509       0.35206369      -1.40446072
H        0.44117099      -1.80598357      -1.21456935
H       -1.99135196      -0.58759801       0.90216067
H       -2.54456445      -0.27046586      -0.71957613
16
Frame=6 idx=006970 GeodesicLength=0.1834418967615304 rxn_smarts="[C:1]([C:2]([C@@:3]([O:4][H:14])([C:5]([C:6]#[N:7])([H:15])[H:16])[H:13])([H:11])[H:12])([H:8])([H:9])[H:10]>>[C:1]([C:2]([C@@:3]([O:4][H:14])([C:5]([N+:7]#[C-:6])([H:15])[H:16])[H:13])([H:11])[H:12])([H:8])([H:9])[H:10]"
C        2.09076023      -0.05891812       0.05553738
C        0.67376714       0.21652719       0.54011225
C       -0.38798718      -0.20313715      -0.46705536
O       -0.35893890      -1.59707787      -0.73142773
C       -1.81036060       0.03467499       0.02627885
C       -2.11686478       1.81746600      -0.07727837
N       -2.19221825       1.52495130       1.05282712
H        2.28854835       0.44387651      -0.89505549
H        2.82530472       0.30047066       0.77664226
H        2.27517173      -1.12767349      -0.07828654
H        0.55485589       1.28348996       0.74164554
H        0.48659916      -0.31300564       1.47950452
H       -0.24078150       0.35250411      -1.40250076
H        0.44466522      -1.80682599      -1.20963886
H       -1.98991772      -0.58843810       0.90363526
H       -2.54260349      -0.27888436      -0.71494008
16
Frame=7 idx=006970 GeodesicLength=0.21381516158152664 rxn_smarts="[C:1]([C:2]([C@@:3]([O:4][H:14])([C:5]([C:6]#[N:7])([H:15])[H:16])[H:13])([H:11])[H:12])([H:8])([H:9])[H:10]>>[C:1]([C:2]([C@@:3]([O:4][H:14])([C:5]([N+:7]#[C-:6])([H:15])[H:16])[H:13])([H:11])[H:12])([H:8])([H:9])[H:10]"
C        2.09118999      -0.05834775       0.05441249
C        0.67404087       0.21212035       0.54139526
C       -0.38861525      -0.20441680      -0.46615305
O       -0.36034875      -1.59721201      -0.73507989
C       -1.81045035       0.03707353       0.02921286
C       -2.12436864       1.82676225      -0.08287504
N       -2.19311906       1.53731537       1.04580856
H        2.28733213       0.44981891      -0.89362403
H        2.82565537       0.29833600       0.77693291
H        2.27768522      -1.12602812      -0.08530125
H        0.55346126       1.27815532       0.74738190
H        0.48868246      -0.32225588       1.47841562
H       -0.24021729       0.35300650      -1.40054877
H        0.44811559      -1.80764664      -1.20472624
H       -1.98845135      -0.58947625       0.90499385
H       -2.54059220      -0.28720477      -0.71024517
16
Frame=8 idx=006970 GeodesicLength=0.2441258903344412 rxn_smarts="[C:1]([C:2]([C@@:3]([O:4][H:14])([C:5]([C:6]#[N:7])([H:15])[H:16])[H:13])([H:11])[H:12])([H:8])([H:9])[H:10]>>[C:1]([C:2]([C@@:3]([O:4][H:14])([C:5]([N+:7]#[C-:6])([H:15])[H:16])[H:13])([H:11])[H:12])([H:8])([H:9])[H:10]"
C        2.09160887      -0.05781568       0.05333449
C        0.67431039       0.20778658       0.54261996
C       -0.38924634      -0.20566843      -0.46528325
O       -0.36170334      -1.59729157      -0.73880761
C       -1.81054218       0.03944089       0.03215625
C       -2.13196475       1.83606286      -0.08832317
N       -2.19388061       1.54953685       1.03887089
H        2.28613915       0.45550444      -0.89221705
H        2.82599387       0.29627789       0.77720215
H        2.28013468      -1.12442480      -0.09204381
H        0.55210272       1.27290236       0.75293410
H        0.49070223      -0.33130619       1.47729464
H       -0.23969750       0.35357733      -1.39860586
H        0.45152465      -1.80843452      -1.19984453
H       -1.98695600      -0.59072990       0.90622329
H       -2.53852584      -0.29541811      -0.70551049
16
Frame=9 idx=006970 GeodesicLength=0.274365662931823 rxn_smarts="[C:1]([C:2]([C@@:3]([O:4][H:14])([C:5]([C:6]#[N:7])([H:15])[H:16])[H:13])([H:11])[H:12])([H:8])([H:9])[H:10]>>[C:1]([C:2]([C@@:3]([O:4][H:14])([C:5]([N+:7]#[C-:6])([H:15])[H:16])[H:13])([H:11])[H:12])([H:8])([H:9])[H:10]"
C        2.09201679      -0.05731442       0.05229729
C        0.67457623       0.20351603       0.54379433
C       -0.38988022      -0.20689765      -0.46443985
O       -0.36300561      -1.59732355      -0.74260016
C       -1.81063738       0.04177760       0.03511020
C       -2.13964801       1.84537190      -0.09365373
N       -2.19450838       1.56163594       1.03199552
H        2.28496577       0.46097795      -0.89082458
H        2.82632067       0.29427955       0.77745736
H        2.28252609      -1.12285247      -0.09856073
H        0.55077308       1.26771799       0.75832782
H        0.49266877      -0.34018275       1.47614487
H       -0.23921695       0.35420591      -1.39666880
H        0.45488634      -1.80919998      -1.19498458
H       -1.98543114      -0.59218268       0.90733770
H       -2.53640605      -0.30352937      -0.70073266
16
Frame=10 idx=006970 GeodesicLength=0.30455327339178206 rxn_smarts="[C:1]([C:2]([C@@:3]([O:4][H:14])([C:5]([C:6]#[N:7])([H:15])[H:16])[H:13])([H:11])[H:12])([H:8])([H:9])[H:10]>>[C:1]([C:2]([C@@:3]([O:4][H:14])([C:5]([N+:7]#[C-:6])([H:15])[H:16])[H:13])([H:11])[H:12])([H:8])([H:9])[H:10]"
C        2.09241434      -0.05683821       0.05129467
C        0.67483899       0.19929734       0.54492734
C       -0.39051686      -0.20810698      -0.46361730
O       -0.36426065      -1.59730766      -0.74645830
C       -1.81073534       0.04408510       0.03807881
C       -2.14742028       1.85469370      -0.09889218
N       -2.19500905       1.57363881       1.02515598
H        2.28380626       0.46627608      -0.88944095
H        2.82663819       0.29232773       0.77770027
H        2.28486642      -1.12130231      -0.10488893
H        0.54946609       1.26258779       0.76359193
H        0.49459077      -0.34891681       1.47496663
H       -0.23877082       0.35488861      -1.39473083
H        0.45819902      -1.80995306      -1.19013149
H       -1.98387451      -0.59381725       0.90834812
H       -2.53423258      -0.31155290      -0.69590376
16
Frame=11 idx=006970 GeodesicLength=0.3346932136478545 rxn_smarts="[C:1]([C:2]([C@@:3]([O:4][H:14])([C:5]([C:6]#[N:7])([H:15])[H:16])[H:13])([H:11])[H:12])([H:8])([H:9])[H:10]>>[C:1]([C:2]([C@@:3]([O:4][H:14])([C:5]([N+:7]#[C-:6])([H:15])[H:16])[H:13])([H:11])[H:12])([H:8])([H:9])[H:10]"
C        2.09280150      -0.05638063       0.05032252
C        0.67509970       0.19511755       0.54602952
C       -0.39115644      -0.20930172      -0.46280716
O       -0.36547128      -1.59725150      -0.75037277
C       -1.81083601       0.04636475       0.04107040
C       -2.15528123       1.86402823      -0.10407720
N       -2.19538690       1.58557190       1.01831692
H        2.28265304       0.47143996      -0.88805417
H        2.82694803       0.29040601       0.77793741
H        2.28716257      -1.11976321      -0.11107455
H        0.54817616       1.25749400       0.76875755
H        0.49647947      -0.35754024       1.47376270
H       -0.23835650       0.35561852      -1.39278508
H        0.46145712      -1.81069092      -1.18528881
H       -1.98228315      -0.59561265       0.90927656
H       -2.53200608      -0.31950007      -0.69101383
16
Frame=12 idx=006970 GeodesicLength=0.364797046452539 rxn_smarts="[C:1]([C:2]([C@@:3]([O:4][H:14])([C:5]([C:6]#[N:7])([H:15])[H:16])[H:13])([H:11])[H:12])([H:8])([H:9])[H:10]>>[C:1]([C:2]([C@@:3]([O:4][H:14])([C:5]([N+:7]#[C-:6])([H:15])[H:16])[H:13])([H:11])[H:12])([H:8])([H:9])[H:10]"
C        2.09317829      -0.05593867       0.04937814
C        0.67535855       0.19097008       0.54710612
C       -0.39179938      -0.21048389      -0.46200561
O       -0.36663900      -1.59715406      -0.75434388
C       -1.81093842       0.04861548       0.04409112
C       -2.16323732       1.87337422      -0.10923560
N       -2.19564362       1.59745825       1.01145257
H        2.28150744       0.47650453      -0.88665168
H        2.82724960       0.28848992       0.77818019
H        2.28941641      -1.11822790      -0.11715602
H        0.54689826       1.25242833       0.77384174
H        0.49834163      -0.36607229       1.47253383
H       -0.23797297       0.35639321      -1.39082681
H        0.46465882      -1.81141741      -1.18045497
H       -1.98064967      -0.59755239       0.91013939
H       -2.52972861      -0.32738740      -0.68604853
16
Frame=13 idx=006970 GeodesicLength=0.3948731111863976 rxn_smarts="[C:1]([C:2]([C@@:3]([O:4][H:14])([C:5]([C:6]#[N:7])([H:15])[H:16])[H:13])([H:11])[H:12])([H:8])([H:9])[H:10]>>[C:1]([C:2]([C@@:3]([O:4][H:14])([C:5]([N+:7]#[C-:6])([H:15])[H:16])[H:13])([H:11])[H:12])([H:8])([H:9])[H:10]"
C        2.09354463      -0.05550617       0.04845676
C        0.67561587       0.18684389       0.54816505
C       -0.39244609      -0.21165829      -0.46120694
O       -0.36776906      -1.59702116      -0.75836636
C       -1.81104235       0.05083922       0.04714608
C       -2.17128712       1.88273390      -0.11439250
N       -2.19578045       1.60931784       1.00453739
H        2.28036439       0.48150734      -0.88522256
H        2.82754321       0.28656751       0.77843210
H        2.29163409      -1.11668468      -0.12317363
H        0.54562694       1.24737616       0.77886817
H        0.50018542      -0.37454020       1.47128067
H       -0.23761575       0.35720599      -1.38885108
H        0.46780091      -1.81213910      -1.17562066
H       -1.97897467      -0.59962122       0.91095009
H       -2.52739993      -0.33522102      -0.68100257
16
Frame=14 idx=006970 GeodesicLength=0.424926855466196 rxn_smarts="[C:1]([C:2]([C@@:3]([O:4][H:14])([C:5]([C:6]#[N:7])([H:15])[H:16])[H:13])([H:11])[H:12])([H:8])([H:9])[H:10]>>[C:1]([C:2]([C@@:3]([O:4][H:14])([C:5]([N+:7]#[C-:6])([H:15])[H:16])[H:13])([H:11])[H:12])([H:8])([H:9])[H:10]"
C        2.09390032      -0.05507735       0.04755397
C        0.67587232       0.18272880       0.54921288
C       -0.39309660      -0.21282836      -0.46040630
O       -0.36886660      -1.59685389      -0.76243719
C       -1.81114742       0.05303738       0.05023889
C       -2.17943271       1.89210743      -0.11957350
N       -2.19579818       1.62116881       0.99754566
H        2.27921882       0.48648613      -0.88375418
H        2.82782959       0.28462099       0.77869902
H        2.29382072      -1.11512054      -0.12917067
H        0.54435704       1.24232354       0.78385986
H        0.50201946      -0.38296890       1.47000267
H       -0.23728138       0.35805194      -1.38685224
H        0.47088077      -1.81286583      -1.17077149
H       -1.97725519      -0.60180258       0.91172048
H       -2.52502098      -0.34300756      -0.67586786
16
Frame=15 idx=006970 GeodesicLength=0.45495406840407276 rxn_smarts="[C:1]([C:2]([C@@:3]([O:4][H:14])([C:5]([C:6]#[N:7])([H:15])[H:16])[H:13])([H:11])[H:12])([H:8])([H:9])[H:10]>>[C:1]([C:2]([C@@:3]([O:4][H:14])([C:5]([N+:7]#[C-:6])([H:15])[H:16])[H:13])([H:11])[H:12])([H:8])([H:9])[H:10]"
C        2.09424585      -0.05465265       0.04666907
C        0.67612773       0.17862612       0.55024620
C       -0.39375160      -0.21399268      -0.45960694
O       -0.36993257      -1.59665038      -0.76656195
C       -1.81125558       0.05520953       0.05336492
C       -2.18766220       1.90150217      -0.12474674
N       -2.19569789       1.63299257       0.99049752
H        2.27806282       0.49140430      -0.88226998
H        2.82811006       0.28269286       0.77895943
H        2.29598039      -1.11354317      -0.13510110
H        0.54309096       1.23727097       0.78881470
H        0.50384066      -0.39135506       1.46869705
H       -0.23697370       0.35893634      -1.38483190
H        0.47390416      -1.81360565      -1.16589183
H       -1.97549882      -0.60411257       0.91243171
H       -2.52259025      -0.35072271      -0.67067017
16
Frame=16 idx=006970 GeodesicLength=0.48496535077282577 rxn_smarts="[C:1]([C:2]([C@@:3]([O:4][H:14])([C:5]([C:6]#[N:7])([H:15])[H:16])[H:13])([H:11])[H:12])([H:8])([H:9])[H:10]>>[C:1]([C:2]([C@@:3]([O:4][H:14])([C:5]([N+:7]#[C-:6])([H:15])[H:16])[H:13])([H:11])[H:12])([H:8])([H:9])[H:10]"
C        2.09458080      -0.05422428       0.04579591
C        0.67638268       0.17452059       0.55127486
C       -0.39441136      -0.21515558      -0.45880216
O       -0.37097116      -1.59641347      -0.77073766
C       -1.81136632       0.05735845       0.05652999
C       -2.19597426       1.91092109      -0.12994765
N       -2.19548344       1.64481502       0.98335890
H        2.27688713       0.49630335      -0.88075911
H        2.82838580       0.28077003       0.77921526
H        2.29812158      -1.11193705      -0.14101059
H        0.54182043       1.23219724       0.79376831
H        0.50566022      -0.39973745       1.46736176
H       -0.23668899       0.35985490      -1.38278239
H        0.47686915      -1.81436751      -1.16096790
H       -1.97370269      -0.60653142       0.91309992
H       -2.52010958      -0.35837391      -0.66539744
