18
Frame=0 idx=005261 GeodesicLength=0.0 rxn_smarts="[C:1]([C:2]([C:3]([H:10])([H:11])[H:12])([C:4]([H:13])([H:14])[H:15])[C:5]([O:6][H:18])([H:16])[H:17])([H:7])([H:8])[H:9]>>[C:1]([C:2]([C:3]([H:10])([H:11])[H:12])=[C:4]([H:14])[H:15])([H:7])([H:8])[H:9].[C:5](=[O:6])([H:16])[H:17].[H:13][H:18]"
C       -1.27226247       1.06338011      -0.24263654
C       -0.43433178      -0.16842132       0.02840986
C       -0.54257242      -1.26344894      -1.00815325
C       -0.22023321      -0.50773535       1.34899532
C        1.52259348       0.50198893      -0.60290617
O        2.20564550       1.02998010       0.30096420
H       -1.20700078       1.37329370      -1.28769473
H       -0.95410661       1.90344827       0.37760929
H       -2.32773030       0.86766041      -0.02987517
H       -0.23515186      -0.91706057      -1.99911327
H        0.06610131      -2.13066840      -0.74765766
H       -1.58103036      -1.59750763      -1.09448297
H        1.11831825       0.12161403       1.95276707
H       -0.70451004       0.05171724       2.14127597
H        0.06618102      -1.52135793       1.60875301
H        1.80918271      -0.48636006      -0.98698980
H        0.96421611       1.14397683      -1.29151853
H        1.72669140       0.53550058       1.53225332
18
Frame=1 idx=005261 GeodesicLength=0.10925624760544338 rxn_smarts="[C:1]([C:2]([C:3]([H:10])([H:11])[H:12])([C:4]([H:13])([H:14])[H:15])[C:5]([O:6][H:18])([H:16])[H:17])([H:7])([H:8])[H:9]>>[C:1]([C:2]([C:3]([H:10])([H:11])[H:12])=[C:4]([H:14])[H:15])([H:7])([H:8])[H:9].[C:5](=[O:6])([H:16])[H:17].[H:13][H:18]"
C       -1.26279162       1.06562231      -0.23488528
C       -0.42827382      -0.17124979       0.02469617
C       -0.56217141      -1.26086924      -1.01432246
C       -0.21103276      -0.52046956       1.34453820
C        1.52727144       0.48900260      -0.60573323
O        2.19026623       1.05907600       0.29188092
H       -1.19100080       1.39001532      -1.27514412
H       -0.94852325       1.89805253       0.39724434
H       -2.32043900       0.87169467      -0.03211215
H       -0.25856042      -0.91340723      -2.00610153
H        0.03513605      -2.13913628      -0.76484337
H       -1.60565721      -1.58025469      -1.09463091
H        1.09392543       0.17795564       1.97782036
H       -0.74561545      -0.02205799       2.14526398
H        0.12727907      -1.51966878       1.59899152
H        1.83724691      -0.50759173      -0.94879787
H        0.99523185       1.10283026      -1.33974424
H        1.72770876       0.58045594       1.53587966
18
Frame=2 idx=005261 GeodesicLength=0.21804783940447192 rxn_smarts="[C:1]([C:2]([C:3]([H:10])([H:11])[H:12])([C:4]([H:13])([H:14])[H:15])[C:5]([O:6][H:18])([H:16])[H:17])([H:7])([H:8])[H:9]>>[C:1]([C:2]([C:3]([H:10])([H:11])[H:12])=[C:4]([H:14])[H:15])([H:7])([H:8])[H:9].[C:5](=[O:6])([H:16])[H:17].[H:13][H:18]"
C       -1.25376475       1.06783341      -0.22724071
C       -0.42258869      -0.17389984       0.02094908
C       -0.58149126      -1.25806177      -1.01999573
C       -0.20200578      -0.53241290       1.34018524
C        1.53181230       0.47633214      -0.60827288
O        2.17352931       1.08768757       0.28210556
H       -1.17427524       1.40678528      -1.26232666
H       -0.94438714       1.89246177       0.41713870
H       -2.31355243       0.87555057      -0.03495856
H       -0.28252008      -0.90926828      -2.01273670
H        0.00528830      -2.14630527      -0.78114247
H       -1.62953150      -1.56364354      -1.09362623
H        1.06804490       0.23175681       2.00046976
H       -0.78145259      -0.09648045       2.14623938
H        0.18563739      -1.51510624       1.58985190
H        1.86513108      -0.52651769      -0.90943753
H        1.02732414       1.05970169      -1.38564337
H        1.72880204       0.62358673       1.53844122
18
Frame=3 idx=005261 GeodesicLength=0.3264937932725576 rxn_smarts="[C:1]([C:2]([C:3]([H:10])([H:11])[H:12])([C:4]([H:13])([H:14])[H:15])[C:5]([O:6][H:18])([H:16])[H:17])([H:7])([H:8])[H:9]>>[C:1]([C:2]([C:3]([H:10])([H:11])[H:12])=[C:4]([H:14])[H:15])([H:7])([H:8])[H:9].[C:5](=[O:6])([H:16])[H:17].[H:13][H:18]"
C       -1.24514074       1.07000981      -0.21967047
C       -0.41723994      -0.17639675       0.01716377
C       -0.60059541      -1.25499558      -1.02527655
C       -0.19317528      -0.54369505       1.33591255
C        1.53624634       0.46383652      -0.61056517
O        2.15546095       1.11587858       0.27144451
H       -1.15696156       1.42352844      -1.24921579
H       -0.94153499       1.88667666       0.43721232
H       -2.30701134       0.87929344      -0.03828805
H       -0.30702266      -0.90455230      -2.01906799
H       -0.02356132      -2.15228527      -0.79676835
H       -1.65276092      -1.54756657      -1.09162936
H        1.04118020       0.28257022       2.02106810
H       -0.81221004      -0.17126530       2.14449559
H        0.24106070      -1.50816770       1.58132449
H        1.89292207      -0.54321632      -0.86883857
H        1.06059834       1.01443489      -1.42925223
H        1.72974561       0.66591225       1.53995118
18
Frame=4 idx=005261 GeodesicLength=0.4346919991109439 rxn_smarts="[C:1]([C:2]([C:3]([H:10])([H:11])[H:12])([C:4]([H:13])([H:14])[H:15])[C:5]([O:6][H:18])([H:16])[H:17])([H:7])([H:8])[H:9]>>[C:1]([C:2]([C:3]([H:10])([H:11])[H:12])=[C:4]([H:14])[H:15])([H:7])([H:8])[H:9].[C:5](=[O:6])([H:16])[H:17].[H:13][H:18]"
C       -1.23689024       1.07215749      -0.21214419
C       -0.41220108      -0.17875677       0.01334043
C       -0.61954026      -1.25163556      -1.03024954
C       -0.18455671      -0.55441677       1.33170415
C        1.54060376       0.45138700      -0.61264533
O        2.13609554       1.14366763       0.25969535
H       -1.13920170       1.44019047      -1.23578938
H       -0.93982211       1.88070346       0.45740228
H       -2.30077576       0.88298780      -0.04199222
H       -0.33205072      -0.89916933      -2.02512751
H       -0.05152572      -2.15716486      -0.81190609
H       -1.67544095      -1.53192121      -1.08877796
H        1.01356259       0.33037998       2.04004374
H       -0.83822018      -0.24630748       2.14024594
H        0.29357308      -1.49924892       1.57340080
H        1.92067760      -0.55772220      -0.82696242
H        1.09514740       0.96687723      -1.47055379
H        1.73056545       0.70799202       1.54031573
18
Frame=5 idx=005261 GeodesicLength=0.5427180641076693 rxn_smarts="[C:1]([C:2]([C:3]([H:10])([H:11])[H:12])([C:4]([H:13])([H:14])[H:15])[C:5]([O:6][H:18])([H:16])[H:17])([H:7])([H:8])[H:9]>>[C:1]([C:2]([C:3]([H:10])([H:11])[H:12])=[C:4]([H:14])[H:15])([H:7])([H:8])[H:9].[C:5](=[O:6])([H:16])[H:17].[H:13][H:18]"
C       -1.22899496       1.07427539      -0.20463126
C       -0.40745698      -0.18099424       0.00948182
C       -0.63836543      -1.24794654      -1.03498715
C       -0.17617524      -0.56465943       1.32754806
C        1.54490030       0.43885671      -0.61453986
O        2.11546472       1.17099925       0.24668440
H       -1.12115937       1.45669663      -1.22203267
H       -0.93911016       1.87455030       0.47763753
H       -2.29481009       0.88668572      -0.04594754
H       -0.35755355      -0.89303837      -2.03092902
H       -0.07871501      -2.16101715      -0.82670576
H       -1.69763913      -1.51660359      -1.08521174
H        0.98522135       0.37539468       2.05779324
H       -0.85980892      -0.32155007       2.13363059
H        0.34334152      -1.48861744       1.56606786
H        1.94840513      -0.57004291      -0.78381621
H        1.13104407       0.91694279      -1.50944208
H        1.73141175       0.75006827       1.53939980
18
Frame=6 idx=005261 GeodesicLength=0.6506229484150379 rxn_smarts="[C:1]([C:2]([C:3]([H:10])([H:11])[H:12])([C:4]([H:13])([H:14])[H:15])[C:5]([O:6][H:18])([H:16])[H:17])([H:7])([H:8])[H:9]>>[C:1]([C:2]([C:3]([H:10])([H:11])[H:12])=[C:4]([H:14])[H:15])([H:7])([H:8])[H:9].[C:5](=[O:6])([H:16])[H:17].[H:13][H:18]"
C       -1.22145042       1.07636879      -0.19710220
C       -0.40300338      -0.18311771       0.00559461
C       -0.65710513      -1.24388805      -1.03955266
C       -0.16804292      -0.57448548       1.32344186
C        1.54915671       0.42614407      -0.61625799
O        2.09359806       1.19780311       0.23225039
H       -1.10299642       1.47300707      -1.20793664
H       -0.93928436       1.86822657       0.49787019
H       -2.28910240       0.89042960      -0.05004722
H       -0.38346026      -0.88607738      -2.03648123
H       -0.10523485      -2.16389693      -0.84129149
H       -1.71941793      -1.50151183      -1.08106541
H        0.95610470       0.41791735       2.07462286
H       -0.87724666      -0.39702879       2.12474747
H        0.39052965      -1.47649340       1.55934008
H        1.97611688      -0.58013656      -0.73939913
H        1.16833360       0.86448663      -1.54579961
H        1.73250513       0.79225293       1.53706610
18
Frame=7 idx=005261 GeodesicLength=0.7584350192011051 rxn_smarts="[C:1]([C:2]([C:3]([H:10])([H:11])[H:12])([C:4]([H:13])([H:14])[H:15])[C:5]([O:6][H:18])([H:16])[H:17])([H:7])([H:8])[H:9]>>[C:1]([C:2]([C:3]([H:10])([H:11])[H:12])=[C:4]([H:14])[H:15])([H:7])([H:8])[H:9].[C:5](=[O:6])([H:16])[H:17].[H:13][H:18]"
C       -1.21425719       1.07843489      -0.18952271
C       -0.39884480      -0.18514123       0.00168613
C       -0.67578097      -1.23942554      -1.04400818
C       -0.16018324      -0.58395918       1.31938066
C        1.55338216       0.41314281      -0.61779943
O        2.07052265       1.22395880       0.21625932
H       -1.08488802       1.48906538      -1.19349499
H       -0.94022575       1.86174496       0.51804798
H       -2.28364134       0.89425117      -0.05416090
H       -0.40966328      -0.87822070      -2.04178574
H       -0.13119654      -2.16585894      -0.85576644
H       -1.74082197      -1.48654124      -1.07649089
H        0.92609484       0.45823578       2.09078121
H       -0.89071526      -0.47273505       2.11366210
H        0.43532804      -1.46302840       1.55322052
H        2.00378948      -0.58795313      -0.69374082
H        1.20704498       0.80942021      -1.57943977
H        1.73405622       0.83460940       1.53317197
18
Frame=8 idx=005261 GeodesicLength=0.8661855493207086 rxn_smarts="[C:1]([C:2]([C:3]([H:10])([H:11])[H:12])([C:4]([H:13])([H:14])[H:15])[C:5]([O:6][H:18])([H:16])[H:17])([H:7])([H:8])[H:9]>>[C:1]([C:2]([C:3]([H:10])([H:11])[H:12])=[C:4]([H:14])[H:15])([H:7])([H:8])[H:9].[C:5](=[O:6])([H:16])[H:17].[H:13][H:18]"
C       -1.20742396       1.08047077      -0.18186043
C       -0.39499244      -0.18707893      -0.00223394
C       -0.69441400      -1.23452448      -1.04841291
C       -0.15261306      -0.59314402       1.31536680
C        1.55759104       0.39975836      -0.61915549
O        2.04629022       1.24932556       0.19858406
H       -1.06700500       1.50483307      -1.17871168
H       -0.94182239       1.85511768       0.53813139
H       -2.27843329       0.89817187      -0.05816443
H       -0.43603555      -0.86941127      -2.04684851
H       -0.15672024      -2.16695353      -0.87021127
H       -1.76190036      -1.47158551      -1.07164595
H        0.89504625       0.49659911       2.10647282
H       -0.90033259      -0.54868561       2.10042052
H        0.47790928      -1.44834652       1.54772927
H        2.03138991      -0.59342064      -0.64688198
H        1.24718935       0.75165525      -1.61015222
H        1.73627683       0.87721884       1.52757396
18
Frame=9 idx=005261 GeodesicLength=0.9739179708039206 rxn_smarts="[C:1]([C:2]([C:3]([H:10])([H:11])[H:12])([C:4]([H:13])([H:14])[H:15])[C:5]([O:6][H:18])([H:16])[H:17])([H:7])([H:8])[H:9]>>[C:1]([C:2]([C:3]([H:10])([H:11])[H:12])=[C:4]([H:14])[H:15])([H:7])([H:8])[H:9].[C:5](=[O:6])([H:16])[H:17].[H:13][H:18]"
C       -1.20094796       1.08246004      -0.17407369
C       -0.39145362      -0.18895168      -0.00615893
C       -0.71300016      -1.22916143      -1.05282350
C       -0.14535770      -0.60210808       1.31138529
C        1.56177254       0.38588342      -0.62031346
O        2.02096732       1.27371283       0.17912567
H       -1.04953311       1.52022888      -1.16358780
H       -0.94392905       1.84836692       0.55805869
H       -2.27345325       0.90220263      -0.06188509
H       -0.46240184      -0.85962454      -2.05166073
H       -0.18192877      -2.16724121      -0.88468240
H       -1.78266440      -1.45653264      -1.06670503
H        0.86275729       0.53319013       2.12190789
H       -0.90617611      -0.62481999       2.08502707
H        0.51844606      -1.43250016       1.54286756
H        2.05880761      -0.59648962      -0.59891428
H        1.28872665       0.69123213      -1.63764926
H        1.73936850       0.92015235       1.52008200
18
Frame=10 idx=005261 GeodesicLength=1.0816393926867243 rxn_smarts="[C:1]([C:2]([C:3]([H:10])([H:11])[H:12])([C:4]([H:13])([H:14])[H:15])[C:5]([O:6][H:18])([H:16])[H:17])([H:7])([H:8])[H:9]>>[C:1]([C:2]([C:3]([H:10])([H:11])[H:12])=[C:4]([H:14])[H:15])([H:7])([H:8])[H:9].[C:5](=[O:6])([H:16])[H:17].[H:13][H:18]"
C       -1.19484784       1.08439995      -0.16613659
C       -0.38824902      -0.19077256      -0.01007615
C       -0.73155440      -1.22330370      -1.05729333
C       -0.13842848      -0.61091878       1.30744146
C        1.56594229       0.37144769      -0.62124715
O        1.99463880       1.29695670       0.15778134
H       -1.03262969       1.53523848      -1.14814986
H       -0.94643093       1.84150986       0.57780370
H       -2.26873229       0.90635042      -0.06520476
H       -0.48859767      -0.84883109      -2.05623913
H       -0.20694817      -2.16676506      -0.89922496
H       -1.80316378      -1.44127232      -1.06183915
H        0.82901060       0.56815523       2.13724391
H       -0.90823900      -0.70115172       2.06751346
H        0.55706577      -1.41557623       1.53867405
H        2.08599276      -0.59705589      -0.54991276
H        1.33159354       0.62807765      -1.66167818
H        1.74357750       0.96351138       1.51054409
18
Frame=11 idx=005261 GeodesicLength=1.189354193019842 rxn_smarts="[C:1]([C:2]([C:3]([H:10])([H:11])[H:12])([C:4]([H:13])([H:14])[H:15])[C:5]([O:6][H:18])([H:16])[H:17])([H:7])([H:8])[H:9]>>[C:1]([C:2]([C:3]([H:10])([H:11])[H:12])=[C:4]([H:14])[H:15])([H:7])([H:8])[H:9].[C:5](=[O:6])([H:16])[H:17].[H:13][H:18]"
C       -1.18912320       1.08627798      -0.15801796
C       -0.38539038      -0.19255932      -0.01397580
C       -0.75006727      -1.21692907      -1.06186590
C       -0.13184028      -0.61964869       1.30351944
C        1.57008907       0.35637093      -0.62192673
O        1.96739015       1.31885750       0.13447643
H       -1.01644461       1.54981531      -1.13241758
H       -0.94918186       1.83457161       0.59732067
H       -2.26426241       0.91061698      -0.06797573
H       -0.51443103      -0.83703331      -2.06058271
H       -0.23189883      -2.16557627      -0.91385964
H       -1.82340928      -1.42569156      -1.05721394
H        0.79351752       0.60157754       2.15266445
H       -0.90649267      -0.77762902       2.04786674
H        0.59389928      -1.39759863       1.53516654
H        2.11282029      -0.59504404      -0.50000686
H        1.37566689       0.56224534      -1.68192370
H        1.74915862       1.00737673       1.49875229
18
Frame=12 idx=005261 GeodesicLength=1.2971042660880192 rxn_smarts="[C:1]([C:2]([C:3]([H:10])([H:11])[H:12])([C:4]([H:13])([H:14])[H:15])[C:5]([O:6][H:18])([H:16])[H:17])([H:7])([H:8])[H:9]>>[C:1]([C:2]([C:3]([H:10])([H:11])[H:12])=[C:4]([H:14])[H:15])([H:7])([H:8])[H:9].[C:5](=[O:6])([H:16])[H:17].[H:13][H:18]"
C       -1.18378462       1.08808336      -0.14969889
C       -0.38289396      -0.19432767      -0.01784599
C       -0.76854477      -1.21002501      -1.06658677
C       -0.12560476      -0.62836898       1.29962494
C        1.57422623       0.34059962      -0.62232466
O        1.93935677       1.33922335       0.10915854
H       -1.00111074       1.56393061      -1.11643890
H       -0.95204011       1.82758219       0.61657410
H       -2.26006931       0.91499383      -0.07007035
H       -0.53973107      -0.82425425      -2.06472194
H       -0.25690791      -2.16372874      -0.92859649
H       -1.84344540      -1.40969766      -1.05298701
H        0.75593590       0.63351004       2.16839778
H       -0.90089298      -0.85423245       2.02607743
H        0.62906485      -1.37857160       1.53240093
H        2.13918407      -0.59036469      -0.44936844
H        1.42081446       0.49382455      -1.69809552
H        1.75644337       1.05182350       1.48450124
18
Frame=13 idx=005261 GeodesicLength=1.4048683734571132 rxn_smarts="[C:1]([C:2]([C:3]([H:10])([H:11])[H:12])([C:4]([H:13])([H:14])[H:15])[C:5]([O:6][H:18])([H:16])[H:17])([H:7])([H:8])[H:9]>>[C:1]([C:2]([C:3]([H:10])([H:11])[H:12])=[C:4]([H:14])[H:15])([H:7])([H:8])[H:9].[C:5](=[O:6])([H:16])[H:17].[H:13][H:18]"
C       -1.17880474       1.08979523      -0.14114805
C       -0.38075284      -0.19609853      -0.02167844
C       -0.78694179      -1.20259212      -1.07147622
C       -0.11973416      -0.63715020       1.29571823
C        1.57831875       0.32405414      -0.62240860
O        1.91062827       1.35781667       0.08182165
H       -0.98675571       1.57750015      -1.10024157
H       -0.95480950       1.82059013       0.63549345
H       -2.25610174       0.91947385      -0.07130211
H       -0.56428591      -0.81056332      -2.06863847
H       -0.28206990      -2.16128609      -0.94341486
H       -1.86323241      -1.39319004      -1.04928847
H        0.71581272       0.66392036       2.18470766
H       -0.89139823      -0.93082414       2.00204365
H        0.66266105      -1.35842591       1.53041192
H        2.16487421      -0.58300189      -0.39824031
H        1.46680094       0.42310218      -1.70986385
H        1.76579100       1.09687954       1.46750438
18
Frame=14 idx=005261 GeodesicLength=1.512682455531495 rxn_smarts="[C:1]([C:2]([C:3]([H:10])([H:11])[H:12])([C:4]([H:13])([H:14])[H:15])[C:5]([O:6][H:18])([H:16])[H:17])([H:7])([H:8])[H:9]>>[C:1]([C:2]([C:3]([H:10])([H:11])[H:12])=[C:4]([H:14])[H:15])([H:7])([H:8])[H:9].[C:5](=[O:6])([H:16])[H:17].[H:13][H:18]"
C       -1.17419114       1.09141238      -0.13237813
C       -0.37898293      -0.19787906      -0.02546009
C       -0.80527909      -1.19462216      -1.07656129
C       -0.11422951      -0.64606760       1.29181566
C        1.58239590       0.30672539      -0.62213582
O        1.88138980       1.37446674       0.05246732
H       -0.97346232       1.59052559      -1.08392065
H       -0.95732887       1.81363950       0.65403252
H       -2.25240368       0.92404704      -0.07158433
H       -0.58797721      -0.79600544      -2.07238435
H       -0.30750296      -2.15829030      -0.95829812
H       -1.88283954      -1.37609414      -1.04623605
H        0.67259198       0.69273368       2.20189061
H       -0.87785126      -1.00744045       1.97575148
H        0.69478412      -1.33711572       1.52929700
H        2.18979411      -0.57288328      -0.34684306
H        1.51341335       0.35021214      -1.71698573
H        1.77767925       1.14263569       1.44753303
18
Frame=15 idx=005261 GeodesicLength=1.6205431638863206 rxn_smarts="[C:1]([C:2]([C:3]([H:10])([H:11])[H:12])([C:4]([H:13])([H:14])[H:15])[C:5]([O:6][H:18])([H:16])[H:17])([H:7])([H:8])[H:9]>>[C:1]([C:2]([C:3]([H:10])([H:11])[H:12])=[C:4]([H:14])[H:15])([H:7])([H:8])[H:9].[C:5](=[O:6])([H:16])[H:17].[H:13][H:18]"
C       -1.16991121       1.09293023      -0.12338488
C       -0.37757695      -0.19967981      -0.02918048
C       -0.82353174      -1.18612049      -1.08184243
C       -0.10909053      -0.65519195       1.28788611
C        1.58644058       0.28857558      -0.62145649
O        1.85175956       1.38897364       0.02114198
H       -0.96128828       1.60296885      -1.06753260
H       -0.95940113       1.80679276       0.67212637
H       -2.24894064       0.92871243      -0.07078974
H       -0.61067578      -0.78066093      -2.07595834
H       -0.33328155      -2.15478861      -0.97321504
H       -1.90225506      -1.35833706      -1.04389973
H        0.62554311       0.71978156       2.22030755
H       -0.86008078      -1.08400634       1.94708916
H        0.72551223      -1.31450784       1.52913167
H        2.21376159      -0.56002228      -0.29545824
H        1.56037085       0.27544132      -1.71920264
H        1.79264571       1.18913895       1.42423777
18
Frame=16 idx=005261 GeodesicLength=1.7284892295555232 rxn_smarts="[C:1]([C:2]([C:3]([H:10])([H:11])[H:12])([C:4]([H:13])([H:14])[H:15])[C:5]([O:6][H:18])([H:16])[H:17])([H:7])([H:8])[H:9]>>[C:1]([C:2]([C:3]([H:10])([H:11])[H:12])=[C:4]([H:14])[H:15])([H:7])([H:8])[H:9].[C:5](=[O:6])([H:16])[H:17].[H:13][H:18]"
C       -1.16592798       1.09435149      -0.11417620
C       -0.37652568      -0.20150566      -0.03282601
C       -0.84169271      -1.17709502      -1.08731226
C       -0.10431207      -0.66459018       1.28391698
C        1.59045552       0.26958380      -0.62032329
O        1.82189021       1.40115552      -0.01208386
H       -0.95026062       1.61480478      -1.05115633
H       -0.96081855       1.80012228       0.68971052
H       -2.24568837       0.93347261      -0.06880680
H       -0.63230405      -0.76461472      -2.07937510
H       -0.35948090      -2.15082055      -0.98812680
H       -1.92149429      -1.33985928      -1.04231720
H        0.57372947       0.74478965       2.24041361
H       -0.83784856      -1.16049961       1.91591946
H        0.75491899      -1.29039711       1.53004779
H        2.23661375      -0.54447030      -0.24438488
H        1.60739633       0.19910019      -1.71632547
H        1.81134951       1.23647211       1.39720582
