10
Frame=0 idx=006148 GeodesicLength=0.0 rxn_smarts="[N:1]([c:2]1[c:3]([H:9])[c:4]([H:10])[n:5][o:6]1)([H:7])[H:8]>>[N:1]([C:2]1=[C:3]([H:9])[C@@:4]1([N:5]=[O:6])[H:10])([H:7])[H:8]"
N        1.62864190      -0.09521006      -0.30931443
C        0.46912106       0.49997068      -0.41490210
C       -0.62691440       1.12346407      -0.29848542
C       -1.21893001      -0.22522475      -0.08001994
N       -1.02013683      -0.98646083       1.02610142
O       -0.07375023      -0.70398600       1.77623257
H        1.71062504      -0.62807465       0.55722144
H        2.06990108      -0.46685814      -1.13453636
H       -1.03141280       2.12370568      -0.31789459
H       -1.90714480      -0.64132600      -0.80440259
10
Frame=1 idx=006148 GeodesicLength=0.07546587821987578 rxn_smarts="[N:1]([c:2]1[c:3]([H:9])[c:4]([H:10])[n:5][o:6]1)([H:7])[H:8]>>[N:1]([C:2]1=[C:3]([H:9])[C@@:4]1([N:5]=[O:6])[H:10])([H:7])[H:8]"
N        1.63399385      -0.10868751      -0.30341989
C        0.46908033       0.48647307      -0.36226390
C       -0.62932271       1.11779194      -0.29393713
C       -1.22687021      -0.22598917      -0.07802251
N       -1.04493870      -0.97344903       1.04275841
O       -0.07809301      -0.68628714       1.77037089
H        1.73397568      -0.67975812       0.53502307
H        2.08434821      -0.40350894      -1.15376130
H       -1.02791992       2.11822784      -0.35512231
H       -1.91425352      -0.64481296      -0.80162532
10
Frame=2 idx=006148 GeodesicLength=0.15086547385814725 rxn_smarts="[N:1]([c:2]1[c:3]([H:9])[c:4]([H:10])[n:5][o:6]1)([H:7])[H:8]>>[N:1]([C:2]1=[C:3]([H:9])[C@@:4]1([N:5]=[O:6])[H:10])([H:7])[H:8]"
N        1.63757189      -0.12287125      -0.29927664
C        0.46775586       0.46984841      -0.31298993
C       -0.62996226       1.11079509      -0.28972268
C       -1.23529710      -0.22676544      -0.07492258
N       -1.07020274      -0.96007267       1.06013289
O       -0.08181281      -0.67245695       1.76402923
H        1.75601077      -0.72884009       0.51029208
H        2.10096621      -0.33389591      -1.16664480
H       -1.01977954       2.11045514      -0.39523423
H       -1.92525029      -0.64619634      -0.79566334
10
Frame=3 idx=006148 GeodesicLength=0.22603926464346596 rxn_smarts="[N:1]([c:2]1[c:3]([H:9])[c:4]([H:10])[n:5][o:6]1)([H:7])[H:8]>>[N:1]([C:2]1=[C:3]([H:9])[C@@:4]1([N:5]=[O:6])[H:10])([H:7])[H:8]"
N        1.63996890      -0.13662069      -0.29733461
C        0.46536321       0.45113114      -0.26738562
C       -0.62934324       1.10302224      -0.28554875
C       -1.24404433      -0.22752444      -0.07161892
N       -1.09502956      -0.94722824       1.07670191
O       -0.08510193      -0.66210959       1.75671721
H        1.77898758      -0.77067708       0.48550100
H        2.11547246      -0.26511240      -1.17364021
H       -1.00759959       2.10104176      -0.43493018
H       -1.93867351      -0.64592271      -0.78846183
10
Frame=4 idx=006148 GeodesicLength=0.30106527082557066 rxn_smarts="[N:1]([c:2]1[c:3]([H:9])[c:4]([H:10])[n:5][o:6]1)([H:7])[H:8]>>[N:1]([C:2]1=[C:3]([H:9])[C@@:4]1([N:5]=[O:6])[H:10])([H:7])[H:8]"
N        1.64095297      -0.15108877      -0.29810094
C        0.46177829       0.42946456      -0.22657782
C       -0.62763680       1.09399160      -0.28238758
C       -1.25345572      -0.22845246      -0.06807110
N       -1.11960745      -0.93422073       1.09308943
O       -0.08819517      -0.65374431       1.74868292
H        1.80241860      -0.80747938       0.46005672
H        2.13102777      -0.19424846      -1.17411007
H       -0.99156482       2.08976070      -0.47344446
H       -1.95571766      -0.64398275      -0.77913709
10
Frame=5 idx=006148 GeodesicLength=0.37592131440818155 rxn_smarts="[N:1]([c:2]1[c:3]([H:9])[c:4]([H:10])[n:5][o:6]1)([H:7])[H:8]>>[N:1]([C:2]1=[C:3]([H:9])[C@@:4]1([N:5]=[O:6])[H:10])([H:7])[H:8]"
N        1.64089590      -0.16551276      -0.30152153
C        0.45742585       0.40595758      -0.18940886
C       -0.62497671       1.08439899      -0.27898283
C       -1.26316362      -0.22930430      -0.06465344
N       -1.14364986      -0.92183004       1.10837168
O       -0.09122545      -0.64823116       1.73963412
H        1.82833258      -0.83632778       0.43615893
H        2.14383870      -0.12608899      -1.16981946
H       -0.97255755       2.07693755      -0.51068053
H       -1.97491984      -0.63999909      -0.76909808
10
Frame=6 idx=006148 GeodesicLength=0.4507528980858495 rxn_smarts="[N:1]([c:2]1[c:3]([H:9])[c:4]([H:10])[n:5][o:6]1)([H:7])[H:8]>>[N:1]([C:2]1=[C:3]([H:9])[C@@:4]1([N:5]=[O:6])[H:10])([H:7])[H:8]"
N        1.63943905      -0.18155156      -0.30844726
C        0.45218483       0.37958847      -0.15701924
C       -0.62149884       1.07348793      -0.27710347
C       -1.27357405      -0.23033715      -0.06129400
N       -1.16748630      -0.90875243       1.12358957
O       -0.09418295      -0.64382359       1.72981272
H        1.85572691      -0.86007035       0.41249342
H        2.15732151      -0.05658216      -1.15918388
H       -0.95070995       2.06261156      -0.54547616
H       -1.99722022      -0.63457071      -0.75737171
10
Frame=7 idx=006148 GeodesicLength=0.5255065395535892 rxn_smarts="[N:1]([c:2]1[c:3]([H:9])[c:4]([H:10])[n:5][o:6]1)([H:7])[H:8]>>[N:1]([C:2]1=[C:3]([H:9])[C@@:4]1([N:5]=[O:6])[H:10])([H:7])[H:8]"
N        1.63636479      -0.19969871      -0.31960673
C        0.44617347       0.35053650      -0.12898219
C       -0.61719761       1.06170596      -0.27544086
C       -1.28474628      -0.23121096      -0.05784040
N       -1.19082527      -0.89584621       1.13821792
O       -0.09689154      -0.64163254       1.71887415
H        1.88598915      -0.87671941       0.39030918
H        2.17037715       0.01272668      -1.14216700
H       -0.92646166       2.04656653      -0.57936276
H       -2.02278220      -0.62642784      -0.74400130
10
Frame=8 idx=006148 GeodesicLength=0.6000884281255877 rxn_smarts="[N:1]([c:2]1[c:3]([H:9])[c:4]([H:10])[n:5][o:6]1)([H:7])[H:8]>>[N:1]([C:2]1=[C:3]([H:9])[C@@:4]1([N:5]=[O:6])[H:10])([H:7])[H:8]"
N        1.63169926      -0.22019156      -0.33571015
C        0.43927622       0.31842746      -0.10632109
C       -0.61234328       1.04857437      -0.27546577
C       -1.29685650      -0.23209339      -0.05420749
N       -1.21337913      -0.88207660       1.15301427
O       -0.09882735      -0.64021892       1.70675378
H        1.91757850      -0.88851317       0.36731015
H        2.18495517       0.08340534      -1.11562660
H       -0.90039225       2.02905761      -0.61145606
H       -2.05171064      -0.61637114      -0.72829104
10
Frame=9 idx=006148 GeodesicLength=0.6749294392646905 rxn_smarts="[N:1]([c:2]1[c:3]([H:9])[c:4]([H:10])[n:5][o:6]1)([H:7])[H:8]>>[N:1]([C:2]1=[C:3]([H:9])[C@@:4]1([N:5]=[O:6])[H:10])([H:7])[H:8]"
N        1.62769311      -0.23826322      -0.35275279
C        0.43218375       0.28523853      -0.08609007
C       -0.60676991       1.03535365      -0.27468735
C       -1.30876616      -0.23266615      -0.05089915
N       -1.23498009      -0.86879685       1.16665442
O       -0.10065808      -0.64119676       1.69369295
H        1.95136456      -0.89353372       0.34488765
H        2.19403453       0.14779677      -1.08541888
H       -0.87314029       2.01005409      -0.64276474
H       -2.08096141      -0.60398633      -0.71262204
10
Frame=10 idx=006148 GeodesicLength=0.7498490087318646 rxn_smarts="[N:1]([c:2]1[c:3]([H:9])[c:4]([H:10])[n:5][o:6]1)([H:7])[H:8]>>[N:1]([C:2]1=[C:3]([H:9])[C@@:4]1([N:5]=[O:6])[H:10])([H:7])[H:8]"
N        1.62500175      -0.25243303      -0.37005361
C        0.42469291       0.25106027      -0.06928245
C       -0.60110728       1.02142588      -0.27513181
C       -1.32046613      -0.23345200      -0.04749068
N       -1.25523815      -0.85399635       1.18091566
O       -0.10156877      -0.64204200       1.68025448
H        1.98263106      -0.89978023       0.31728065
H        2.20275308       0.21101675      -1.04703430
H       -0.84596398       1.98926748      -0.67402196
H       -2.11073451      -0.59106677      -0.69543598
10
Frame=11 idx=006148 GeodesicLength=0.8250864793462368 rxn_smarts="[N:1]([c:2]1[c:3]([H:9])[c:4]([H:10])[n:5][o:6]1)([H:7])[H:8]>>[N:1]([C:2]1=[C:3]([H:9])[C@@:4]1([N:5]=[O:6])[H:10])([H:7])[H:8]"
N        1.62456124      -0.26139774      -0.38430965
C        0.41732236       0.21667321      -0.05332277
C       -0.59478992       1.00781352      -0.27411841
C       -1.33142457      -0.23406981      -0.04483826
N       -1.27492114      -0.84009797       1.19358231
O       -0.10338876      -0.64511615       1.66658041
H        2.01560148      -0.90026548       0.29154466
H        2.20437164       0.26523642      -1.01188554
H       -0.81808867       1.96739595      -0.70367606
H       -2.13924367      -0.57617196      -0.67955670
10
Frame=12 idx=006148 GeodesicLength=0.900373674268368 rxn_smarts="[N:1]([c:2]1[c:3]([H:9])[c:4]([H:10])[n:5][o:6]1)([H:7])[H:8]>>[N:1]([C:2]1=[C:3]([H:9])[C@@:4]1([N:5]=[O:6])[H:10])([H:7])[H:8]"
N        1.62541778      -0.26645526      -0.39809398
C        0.40966666       0.18146320      -0.04043746
C       -0.58845381       0.99339432      -0.27466014
C       -1.34206246      -0.23501766      -0.04202960
N       -1.29311875      -0.82433774       1.20710487
O       -0.10439727      -0.64703071       1.65296682
H        2.04502695      -0.90458447       0.26006177
H        2.20668287       0.32017447      -0.96906122
H       -0.79097140       1.94357624      -0.73372211
H       -2.16779057      -0.56118239      -0.66212895
10
Frame=13 idx=006148 GeodesicLength=0.9759305090055822 rxn_smarts="[N:1]([c:2]1[c:3]([H:9])[c:4]([H:10])[n:5][o:6]1)([H:7])[H:8]>>[N:1]([C:2]1=[C:3]([H:9])[C@@:4]1([N:5]=[O:6])[H:10])([H:7])[H:8]"
N        1.62757140      -0.26809866      -0.41111170
C        0.40184232       0.14510267      -0.03038740
C       -0.58185802       0.97806808      -0.27667875
C       -1.35240979      -0.23630642      -0.03937702
N       -1.31004575      -0.80709390       1.22094807
O       -0.10496553      -0.64821613       1.63926334
H        2.07275738      -0.91030241       0.22491808
H        2.20783433       0.37408295      -0.92071278
H       -0.76435650       1.91831052      -0.76321269
H       -2.19636984      -0.54554670      -0.64364916
10
Frame=14 idx=006148 GeodesicLength=1.0516960141256826 rxn_smarts="[N:1]([c:2]1[c:3]([H:9])[c:4]([H:10])[n:5][o:6]1)([H:7])[H:8]>>[N:1]([C:2]1=[C:3]([H:9])[C@@:4]1([N:5]=[O:6])[H:10])([H:7])[H:8]"
N        1.63062782      -0.26747673      -0.42238420
C        0.39395498       0.10741537      -0.02221819
C       -0.57455254       0.96221855      -0.27868357
C       -1.36244777      -0.23758880      -0.03736479
N       -1.32629323      -0.78997662       1.23370014
O       -0.10615483      -0.65022759       1.62531379
H        2.10203352      -0.91101311       0.19169940
H        2.20450190       0.42216216      -0.87437837
H       -0.73732787       1.89259979      -0.79000176
H       -2.22434198      -0.52811303      -0.62568246
10
Frame=15 idx=006148 GeodesicLength=1.1275674685692965 rxn_smarts="[N:1]([c:2]1[c:3]([H:9])[c:4]([H:10])[n:5][o:6]1)([H:7])[H:8]>>[N:1]([C:2]1=[C:3]([H:9])[C@@:4]1([N:5]=[O:6])[H:10])([H:7])[H:8]"
N        1.63421745      -0.26422093      -0.43342463
C        0.38584985       0.06863871      -0.01713702
C       -0.56717526       0.94533215      -0.28260244
C       -1.37222879      -0.23923338      -0.03539221
N       -1.34076384      -0.77119670       1.24686404
O       -0.10643894      -0.65060907       1.61124891
H        2.12912102      -0.91386042       0.15393190
H        2.20101766       0.46982050      -0.82046867
H       -0.71151494       1.86570604      -0.81656864
H       -2.25208422      -0.51037691      -0.60645124
10
Frame=16 idx=006148 GeodesicLength=1.2035818348794884 rxn_smarts="[N:1]([c:2]1[c:3]([H:9])[c:4]([H:10])[n:5][o:6]1)([H:7])[H:8]>>[N:1]([C:2]1=[C:3]([H:9])[C@@:4]1([N:5]=[O:6])[H:10])([H:7])[H:8]"
N        1.63801765      -0.25845802      -0.44424724
C        0.37758508       0.02904326      -0.01492561
C       -0.55979408       0.92752768      -0.28836387
C       -1.38166552      -0.24118740      -0.03348443
N       -1.35322831      -0.75090831       1.26023207
O       -0.10566430      -0.64921531       1.59699720
H        2.15429330      -0.91803819       0.11148676
H        2.19687634       0.51576847      -0.75857804
H       -0.68716329       1.83786503      -0.84297224
H       -2.27925688      -0.49239723      -0.58614459
