10
Frame=0 idx=005177 GeodesicLength=0.0 rxn_smarts="[N:1]([c:2]1[n:3][n:4]([H:9])[c:5]([H:10])[n:6]1)([H:7])[H:8]>>[N:1]([C:2](=[N:3][N:4]([H:9])[H:10])[N+:6]#[C-:5])([H:7])[H:8]"
N        1.90867463      -0.07828687      -0.28144735
C        0.55136315       0.04490063      -0.12700930
N       -0.26100856      -0.97007197      -0.00806793
N       -1.51388391      -0.63580492      -0.14592861
C       -1.27508356       1.37883278      -0.11386759
N       -0.04046871       1.27332080      -0.11706109
H        2.45134257       0.65296302       0.14677047
H        2.25791515      -1.00703171      -0.11765602
H       -2.12408499      -1.36426769       0.22005420
H       -1.95476578       0.70544594       0.54421322
10
Frame=1 idx=005177 GeodesicLength=0.09706116842892665 rxn_smarts="[N:1]([c:2]1[n:3][n:4]([H:9])[c:5]([H:10])[n:6]1)([H:7])[H:8]>>[N:1]([C:2](=[N:3][N:4]([H:9])[H:10])[N+:6]#[C-:5])([H:7])[H:8]"
N        1.91242887      -0.08168881      -0.28259820
C        0.55361115       0.04093300      -0.13941752
N       -0.25722598      -0.97209846      -0.00219136
N       -1.51162321      -0.62244687      -0.11462067
C       -1.27111973       1.37842008      -0.11105992
N       -0.03692630       1.27129338      -0.14023495
H        2.45072964       0.66042916       0.13222144
H        2.26246683      -1.00548340      -0.09391149
H       -2.13949628      -1.36657205       0.17674053
H       -1.96284498       0.69721395       0.57507214
10
Frame=2 idx=005177 GeodesicLength=0.19418255571181123 rxn_smarts="[N:1]([c:2]1[n:3][n:4]([H:9])[c:5]([H:10])[n:6]1)([H:7])[H:8]>>[N:1]([C:2](=[N:3][N:4]([H:9])[H:10])[N+:6]#[C-:5])([H:7])[H:8]"
N        1.91603432      -0.08511374      -0.28336296
C        0.55538028       0.03598559      -0.15478431
N       -0.25308654      -0.97471840       0.00573333
N       -1.50876001      -0.61013689      -0.07674002
C       -1.26745887       1.37703554      -0.10841988
N       -0.03446468       1.26791997      -0.16850233
H        2.44873431       0.66838876       0.11802527
H        2.26695719      -1.00292709      -0.06831008
H       -2.15499335      -1.36554854       0.12477233
H       -1.96834265       0.68911480       0.61158865
10
Frame=3 idx=005177 GeodesicLength=0.29104205604698274 rxn_smarts="[N:1]([c:2]1[n:3][n:4]([H:9])[c:5]([H:10])[n:6]1)([H:7])[H:8]>>[N:1]([C:2](=[N:3][N:4]([H:9])[H:10])[N+:6]#[C-:5])([H:7])[H:8]"
N        1.91937874      -0.08785190      -0.28346638
C        0.55656047       0.02942745      -0.17250204
N       -0.24821045      -0.97864924       0.01575763
N       -1.50475464      -0.59994112      -0.03022938
C       -1.26456396       1.37356252      -0.10763155
N       -0.03391255       1.26215003      -0.20246737
H        2.44462028       0.67664657       0.10677450
H        2.27162372      -0.99911255      -0.04376396
H       -2.16983131      -1.35759363       0.06385126
H       -1.97091030       0.68136186       0.65367728
10
Frame=4 idx=005177 GeodesicLength=0.3873031290339149 rxn_smarts="[N:1]([c:2]1[n:3][n:4]([H:9])[c:5]([H:10])[n:6]1)([H:7])[H:8]>>[N:1]([C:2](=[N:3][N:4]([H:9])[H:10])[N+:6]#[C-:5])([H:7])[H:8]"
N        1.92219494      -0.08955747      -0.28250310
C        0.55682559       0.02070819      -0.19356706
N       -0.24265024      -0.98446032       0.02547332
N       -1.49939232      -0.59267958       0.02494833
C       -1.26309518       1.36686167      -0.10933493
N       -0.03623112       1.25288377      -0.24296795
H        2.43730660       0.68521038       0.10091830
H        2.27639742      -0.99399735      -0.02075647
H       -2.18181837      -1.33823418      -0.00386988
H       -1.96953730       0.67326489       0.70165943
10
Frame=5 idx=005177 GeodesicLength=0.48374318437404795 rxn_smarts="[N:1]([c:2]1[n:3][n:4]([H:9])[c:5]([H:10])[n:6]1)([H:7])[H:8]>>[N:1]([C:2](=[N:3][N:4]([H:9])[H:10])[N+:6]#[C-:5])([H:7])[H:8]"
N        1.92418325      -0.09107361      -0.28146511
C        0.55663897       0.00991474      -0.21258194
N       -0.23683837      -0.99223070       0.03571320
N       -1.49276451      -0.58891772       0.07845522
C       -1.26252277       1.35691455      -0.11180434
N       -0.04062588       1.24030626      -0.28319828
H        2.42847352       0.69501274       0.09319757
H        2.28138467      -0.98741713       0.00317855
H       -2.19057902      -1.30364049      -0.07192188
H       -1.96734986       0.66113135       0.75042700
10
Frame=6 idx=005177 GeodesicLength=0.5807513322516465 rxn_smarts="[N:1]([c:2]1[n:3][n:4]([H:9])[c:5]([H:10])[n:6]1)([H:7])[H:8]>>[N:1]([C:2](=[N:3][N:4]([H:9])[H:10])[N+:6]#[C-:5])([H:7])[H:8]"
N        1.92528659      -0.09327198      -0.28223894
C        0.55624330      -0.00107878      -0.22524514
N       -0.23095165      -0.99876674       0.05515840
N       -1.48696757      -0.58651235       0.12151978
C       -1.26256759       1.34639848      -0.11493097
N       -0.04527680       1.22725953      -0.31568174
H        2.42113252       0.70365301       0.08063288
H        2.28631518      -0.98127424       0.02332517
H       -2.19272864      -1.26113124      -0.13555188
H       -1.97048533       0.64472432       0.79301244
10
Frame=7 idx=005177 GeodesicLength=0.6780438869101829 rxn_smarts="[N:1]([c:2]1[n:3][n:4]([H:9])[c:5]([H:10])[n:6]1)([H:7])[H:8]>>[N:1]([C:2](=[N:3][N:4]([H:9])[H:10])[N+:6]#[C-:5])([H:7])[H:8]"
N        1.92595958      -0.09644508      -0.28333490
C        0.55571476      -0.01228854      -0.23549168
N       -0.22580466      -1.00462384       0.07483909
N       -1.48262222      -0.58408220       0.15286756
C       -1.26164848       1.33696800      -0.11608598
N       -0.04953451       1.21409066      -0.34359253
H        2.41482131       0.71199969       0.06304283
H        2.29063463      -0.97431570       0.04616460
H       -2.19141243      -1.21500101      -0.19080285
H       -1.97610798       0.62369803       0.83239387
10
Frame=8 idx=005177 GeodesicLength=0.7756300410633633 rxn_smarts="[N:1]([c:2]1[n:3][n:4]([H:9])[c:5]([H:10])[n:6]1)([H:7])[H:8]>>[N:1]([C:2](=[N:3][N:4]([H:9])[H:10])[N+:6]#[C-:5])([H:7])[H:8]"
N        1.92649796      -0.10018995      -0.28476247
C        0.55527780      -0.02301018      -0.24327570
N       -0.22118004      -1.00936956       0.09477364
N       -1.47962221      -0.58108396       0.17613994
C       -1.26015694       1.32887419      -0.11721676
N       -0.05293382       1.20176344      -0.36739133
H        2.40972910       0.71926903       0.04317105
H        2.29453313      -0.96736585       0.06866793
H       -2.18726158      -1.16867694      -0.23869824
H       -1.98488340       0.59978978       0.86859195
10
Frame=9 idx=005177 GeodesicLength=0.8733431774277658 rxn_smarts="[N:1]([c:2]1[n:3][n:4]([H:9])[c:5]([H:10])[n:6]1)([H:7])[H:8]>>[N:1]([C:2](=[N:3][N:4]([H:9])[H:10])[N+:6]#[C-:5])([H:7])[H:8]"
N        1.92667230      -0.10508372      -0.28832860
C        0.55501443      -0.03208297      -0.24414628
N       -0.21666824      -1.01102819       0.12248536
N       -1.47823440      -0.57697414       0.19395545
C       -1.25916750       1.32213400      -0.12023348
N       -0.05473520       1.19174141      -0.38218036
H        2.40782501       0.72381048       0.01821606
H        2.29844481      -0.96191342       0.08596586
H       -2.17748596      -1.12483155      -0.28411935
H       -2.00166524       0.57422809       0.89838534
10
Frame=10 idx=005177 GeodesicLength=0.9711981070274225 rxn_smarts="[N:1]([c:2]1[n:3][n:4]([H:9])[c:5]([H:10])[n:6]1)([H:7])[H:8]>>[N:1]([C:2](=[N:3][N:4]([H:9])[H:10])[N+:6]#[C-:5])([H:7])[H:8]"
N        1.92706070      -0.10980746      -0.28960475
C        0.55468729      -0.04188474      -0.24977547
N       -0.21326447      -1.01403631       0.13960674
N       -1.47690427      -0.57249819       0.20794106
C       -1.25644492       1.31634876      -0.12205379
N       -0.05662638       1.18085105      -0.40174785
H        2.40413371       0.72903750      -0.00452999
H        2.30123631      -0.95423049       0.10981178
H       -2.16977353      -1.07925730      -0.32151062
H       -2.01410443       0.54547719       0.93186290
10
Frame=11 idx=005177 GeodesicLength=1.069131688569733 rxn_smarts="[N:1]([c:2]1[n:3][n:4]([H:9])[c:5]([H:10])[n:6]1)([H:7])[H:8]>>[N:1]([C:2](=[N:3][N:4]([H:9])[H:10])[N+:6]#[C-:5])([H:7])[H:8]"
N        1.92744648      -0.11502017      -0.29146821
C        0.55454143      -0.05081396      -0.25295287
N       -0.21011280      -1.01556359       0.15841849
N       -1.47630736      -0.56706416       0.21911853
C       -1.25367181       1.31168777      -0.12524765
N       -0.05748365       1.17124514      -0.41781915
H        2.40183824       0.73265563      -0.02894562
H        2.30389146      -0.94683833       0.13172940
H       -2.15987213      -1.03502912      -0.35584801
H       -2.03026986       0.51474078       0.96301510
10
Frame=12 idx=005177 GeodesicLength=1.1671514686179734 rxn_smarts="[N:1]([c:2]1[n:3][n:4]([H:9])[c:5]([H:10])[n:6]1)([H:7])[H:8]>>[N:1]([C:2](=[N:3][N:4]([H:9])[H:10])[N+:6]#[C-:5])([H:7])[H:8]"
N        1.92779361      -0.12100631      -0.29406834
C        0.55455924      -0.05874395      -0.25365276
N       -0.20726343      -1.01542063       0.17906184
N       -1.47637076      -0.56057953       0.22802839
C       -1.25085354       1.30817808      -0.12958880
N       -0.05718160       1.16315516      -0.43015142
H        2.40107365       0.73453137      -0.05621403
H        2.30639459      -0.93955889       0.15259862
H       -2.14772954      -0.99211859      -0.38804290
H       -2.05042223       0.48156329       0.99202939
10
Frame=13 idx=005177 GeodesicLength=1.2651616723445378 rxn_smarts="[N:1]([c:2]1[n:3][n:4]([H:9])[c:5]([H:10])[n:6]1)([H:7])[H:8]>>[N:1]([C:2](=[N:3][N:4]([H:9])[H:10])[N+:6]#[C-:5])([H:7])[H:8]"
N        1.92844708      -0.12651025      -0.29487927
C        0.55466487      -0.06709081      -0.25772031
N       -0.20511321      -1.01603074       0.19315021
N       -1.47623030      -0.55313827       0.23530019
C       -1.24665891       1.30564415      -0.13462569
N       -0.05667071       1.15452138      -0.44649574
H        2.39920153       0.73648817      -0.08011090
H        2.30806989      -0.93087640       0.17618270
H       -2.13784026      -0.94854641      -0.41435948
H       -2.06786998       0.44553919       1.02355829
10
Frame=14 idx=005177 GeodesicLength=1.363237692413956 rxn_smarts="[N:1]([c:2]1[n:3][n:4]([H:9])[c:5]([H:10])[n:6]1)([H:7])[H:8]>>[N:1]([C:2](=[N:3][N:4]([H:9])[H:10])[N+:6]#[C-:5])([H:7])[H:8]"
N        1.92906972      -0.13288642      -0.29669584
C        0.55496250      -0.07428023      -0.25897842
N       -0.20316146      -1.01465883       0.21019835
N       -1.47660279      -0.54439027       0.24127709
C       -1.24249498       1.30432985      -0.14106908
N       -0.05484400       1.14762642      -0.45888729
H        2.39908724       0.73644102      -0.10738720
H        2.30973141      -0.92233496       0.19830333
H       -2.12570774      -0.90621306      -0.43953465
H       -2.09003990       0.40636649       1.05277371
10
Frame=15 idx=005177 GeodesicLength=1.4613444480782913 rxn_smarts="[N:1]([c:2]1[n:3][n:4]([H:9])[c:5]([H:10])[n:6]1)([H:7])[H:8]>>[N:1]([C:2](=[N:3][N:4]([H:9])[H:10])[N+:6]#[C-:5])([H:7])[H:8]"
N        1.92984386      -0.13958725      -0.29835769
C        0.55544407      -0.08094948      -0.26003993
N       -0.20155001      -1.01231358       0.22663693
N       -1.47709275      -0.53418762       0.24635470
C       -1.23774159       1.30427455      -0.14885102
N       -0.05209457       1.14154126      -0.47098117
H        2.39957924       0.73516527      -0.13514771
H        2.31111969      -0.91333502       0.22054528
H       -2.11344308      -0.86419336      -0.46188236
H       -2.11406486       0.36358524       1.08172297
10
Frame=16 idx=005177 GeodesicLength=1.5594343764180587 rxn_smarts="[N:1]([c:2]1[n:3][n:4]([H:9])[c:5]([H:10])[n:6]1)([H:7])[H:8]>>[N:1]([C:2](=[N:3][N:4]([H:9])[H:10])[N+:6]#[C-:5])([H:7])[H:8]"
N        1.93083508      -0.14619173      -0.29900561
C        0.55605165      -0.08757000      -0.26261958
N       -0.20050641      -1.00965512       0.24019353
N       -1.47744222      -0.52229094       0.25086482
C       -1.23179020       1.30551461      -0.15804830
N       -0.04867611       1.13550325      -0.48538530
H        2.39998298       0.73326197      -0.16145980
H        2.31184849      -0.90342839       0.24401724
H       -2.10253336      -0.82170351      -0.48034514
H       -2.13776990       0.31655986       1.11178814
