14
Frame=0 idx=006218 GeodesicLength=0.0 rxn_smarts="[C:1]([O:2][C@@:3]1([H:10])[C:4]([H:11])([H:12])[C@:5]1([O:6][H:14])[H:13])([H:7])([H:8])[H:9]>>[C:1]1([H:7])([H:9])[O:2][C@@:3]2([H:10])[C:4]([H:11])([H:12])[C@@:5]12[H:13].[O:6]([H:8])[H:14]"
C        1.24149855      -0.16007799      -0.91729765
O        0.31761268      -1.20430799      -1.15470645
C       -0.71324770      -1.04779499      -0.30265337
C       -0.40998502      -0.75535973       1.18806031
C       -0.84476579       0.31317803       0.29981002
O        0.14332954       2.05333482       0.21599924
H        1.88020116      -0.36126354      -0.04657992
H        0.65361607       1.34234071      -0.35664311
H        1.86364665      -0.06339796      -1.80807241
H       -1.59236682      -1.62206936      -0.57981799
H        0.64294429      -0.88191106       1.41018443
H       -1.07043388      -1.04892444       1.99748192
H       -1.78455639       0.81903918       0.46464692
H       -0.32749330       2.61721437      -0.41041191
14
Frame=1 idx=006218 GeodesicLength=0.10039321078334447 rxn_smarts="[C:1]([O:2][C@@:3]1([H:10])[C:4]([H:11])([H:12])[C@:5]1([O:6][H:14])[H:13])([H:7])([H:8])[H:9]>>[C:1]1([H:7])([H:9])[O:2][C@@:3]2([H:10])[C:4]([H:11])([H:12])[C@@:5]12[H:13].[O:6]([H:8])[H:14]"
C        1.22649084      -0.15105513      -0.92160906
O        0.30585178      -1.19523449      -1.16856914
C       -0.71197695      -1.06294497      -0.29379563
C       -0.41368837      -0.74593604       1.18836131
C       -0.85503736       0.30819174       0.28046643
O        0.12421061       2.05120048       0.24188728
H        1.88826842      -0.38285341      -0.07603033
H        0.70062100       1.33812849      -0.30653146
H        1.83425892      -0.03605116      -1.82038388
H       -1.57791207      -1.66384235      -0.55577777
H        0.63831042      -0.85093956       1.42503226
H       -1.07570212      -1.03619928       1.99736903
H       -1.80487825       0.80098483       0.42882951
H       -0.27881687       2.62655086      -0.41924855
14
Frame=2 idx=006218 GeodesicLength=0.20069288106755243 rxn_smarts="[C:1]([O:2][C@@:3]1([H:10])[C:4]([H:11])([H:12])[C@:5]1([O:6][H:14])[H:13])([H:7])([H:8])[H:9]>>[C:1]1([H:7])([H:9])[O:2][C@@:3]2([H:10])[C:4]([H:11])([H:12])[C@@:5]12[H:13].[O:6]([H:8])[H:14]"
C        1.21148042      -0.14134769      -0.92518286
O        0.29369263      -1.18514437      -1.18225000
C       -0.71005510      -1.07729133      -0.28474737
C       -0.41754403      -0.73669830       1.18884999
C       -0.86531216       0.30305227       0.26193057
O        0.10474280       2.04796930       0.26216380
H        1.89550959      -0.40358200      -0.10650821
H        0.74536516       1.33134667      -0.25625938
H        1.80481976      -0.00809961      -1.83134371
H       -1.56186644      -1.70414113      -0.53191399
H        0.63296867      -0.81952701       1.43998288
H       -1.08130496      -1.02434524       1.99703682
H       -1.82456047       0.78272087       0.39433457
H       -0.22793587       2.63508756      -0.42609310
14
Frame=3 idx=006218 GeodesicLength=0.30095787252848577 rxn_smarts="[C:1]([O:2][C@@:3]1([H:10])[C:4]([H:11])([H:12])[C@:5]1([O:6][H:14])[H:13])([H:7])([H:8])[H:9]>>[C:1]1([H:7])([H:9])[O:2][C@@:3]2([H:10])[C:4]([H:11])([H:12])[C@@:5]12[H:13].[O:6]([H:8])[H:14]"
C        1.19658301      -0.13122745      -0.92805158
O        0.28129309      -1.17437886      -1.19552858
C       -0.70747271      -1.09087633      -0.27554448
C       -0.42159023      -0.72756866       1.18951323
C       -0.87561819       0.29776581       0.24407837
O        0.08562070       2.04368756       0.27731531
H        1.90196391      -0.42316263      -0.13787432
H        0.78740455       1.32227068      -0.20740342
H        1.77548558       0.01999726      -1.84100810
H       -1.54419301      -1.74308856      -0.50825964
H        0.62681246      -0.78765116       1.45511375
H       -1.08729192      -1.01326917       1.99647416
H       -1.84366777       0.76427457       0.36100362
H       -0.17532948       2.64322692      -0.42982832
14
Frame=4 idx=006218 GeodesicLength=0.4012197133064201 rxn_smarts="[C:1]([O:2][C@@:3]1([H:10])[C:4]([H:11])([H:12])[C@:5]1([O:6][H:14])[H:13])([H:7])([H:8])[H:9]>>[C:1]1([H:7])([H:9])[O:2][C@@:3]2([H:10])[C:4]([H:11])([H:12])[C@@:5]12[H:13].[O:6]([H:8])[H:14]"
C        1.18190052      -0.12099402      -0.93031457
O        0.26877298      -1.16329593      -1.20825593
C       -0.70424944      -1.10374687      -0.26622083
C       -0.42585713      -0.71844878       1.19032369
C       -0.88594562       0.29235664       0.22674712
O        0.06724402       2.03851775       0.28802128
H        1.90770000      -0.44143991      -0.17002657
H        0.82674415       1.31123144      -0.16105875
H        1.74634711       0.04781367      -1.84954153
H       -1.52489304      -1.78080656      -0.48479174
H        0.61974609      -0.75527881       1.47047072
H       -1.09370384      -1.00281644       1.99567509
H       -1.86224802       0.74565182       0.32861340
H       -0.12155781       2.65125598      -0.42964137
14
Frame=5 idx=006218 GeodesicLength=0.501444896374356 rxn_smarts="[C:1]([O:2][C@@:3]1([H:10])[C:4]([H:11])([H:12])[C@:5]1([O:6][H:14])[H:13])([H:7])([H:8])[H:9]>>[C:1]1([H:7])([H:9])[O:2][C@@:3]2([H:10])[C:4]([H:11])([H:12])[C@@:5]12[H:13].[O:6]([H:8])[H:14]"
C        1.16749775      -0.11081613      -0.93201040
O        0.25618502      -1.15204403      -1.22032588
C       -0.70044752      -1.11580982      -0.25681023
C       -0.43033365      -0.70927334       1.19124015
C       -0.89624310       0.28690828       0.20991608
O        0.04972519       2.03277011       0.29484488
H        1.91281338      -0.45834365      -0.20289733
H        0.86375890       1.29845372      -0.11744187
H        1.71741113       0.07516372      -1.85703456
H       -1.50408778      -1.81712956      -0.46153231
H        0.61173136      -0.72248222       1.48601319
H       -1.10051168      -0.99302494       1.99455820
H       -1.88030418       0.72688674       0.29717314
H       -0.06719481       2.65874111      -0.42569305
14
Frame=6 idx=006218 GeodesicLength=0.601660542136826 rxn_smarts="[C:1]([O:2][C@@:3]1([H:10])[C:4]([H:11])([H:12])[C@:5]1([O:6][H:14])[H:13])([H:7])([H:8])[H:9]>>[C:1]1([H:7])([H:9])[O:2][C@@:3]2([H:10])[C:4]([H:11])([H:12])[C@@:5]12[H:13].[O:6]([H:8])[H:14]"
C        1.15340796      -0.10092632      -0.93331730
O        0.24361067      -1.14096217      -1.23170436
C       -0.69608215      -1.12720055      -0.24730796
C       -0.43505133      -0.69992583       1.19223034
C       -0.90651587       0.28139539       0.19334597
O        0.03305470       2.02654159       0.29838182
H        1.91736478      -0.47395795      -0.23653790
H        0.89883555       1.28417961      -0.07693170
H        1.68860863       0.10181929      -1.86376676
H       -1.48174238      -1.85230595      -0.43835519
H        0.60267922      -0.68908905       1.50177405
H       -1.10774381      -0.98354266       1.99319364
H       -1.89791920       0.70788138       0.26627307
H       -0.01250676       2.66609322      -0.41727772
14
Frame=7 idx=006218 GeodesicLength=0.7018757256192066 rxn_smarts="[C:1]([O:2][C@@:3]1([H:10])[C:4]([H:11])([H:12])[C@:5]1([O:6][H:14])[H:13])([H:7])([H:8])[H:9]>>[C:1]1([H:7])([H:9])[O:2][C@@:3]2([H:10])[C:4]([H:11])([H:12])[C@@:5]12[H:13].[O:6]([H:8])[H:14]"
C        1.13963682      -0.09141571      -0.93431938
O        0.23108500      -1.13018444      -1.24236913
C       -0.69119252      -1.13791940      -0.23770997
C       -0.44001305      -0.69032516       1.19325909
C       -0.91675442       0.27584007       0.17694729
O        0.01710241       2.02002213       0.29896700
H        1.92142347      -0.48835238      -0.27101784
H        0.93244942       1.26850025      -0.03932789
H        1.65981203       0.12777681      -1.86988904
H       -1.45788828      -1.88634313      -0.41517598
H        0.59253839      -0.65503049       1.51771776
H       -1.11538248      -0.97424793       1.99156874
H       -1.91513726       0.68858167       0.23576029
H        0.04232045       2.67309770      -0.40441094
14
Frame=8 idx=006218 GeodesicLength=0.8020728197308412 rxn_smarts="[C:1]([O:2][C@@:3]1([H:10])[C:4]([H:11])([H:12])[C@:5]1([O:6][H:14])[H:13])([H:7])([H:8])[H:9]>>[C:1]1([H:7])([H:9])[O:2][C@@:3]2([H:10])[C:4]([H:11])([H:12])[C@@:5]12[H:13].[O:6]([H:8])[H:14]"
C        1.12619772      -0.08236403      -0.93511302
O        0.21865347      -1.11985209      -1.25232095
C       -0.68581701      -1.14797473      -0.22801196
C       -0.44522646      -0.68038658       1.19429845
C       -0.92693973       0.27026943       0.16062110
O        0.00179547       2.01337324       0.29687055
H        1.92504554      -0.50160074      -0.30641245
H        0.96505605       1.25147364      -0.00445539
H        1.63093094       0.15301303      -1.87555050
H       -1.43255545      -1.91925538      -0.39191095
H        0.58125366      -0.62022581       1.53381250
H       -1.12342636      -0.96499546       1.98968647
H       -1.93197345       0.66896269       0.20548503
H        0.09700562       2.67956279      -0.38699887
14
Frame=9 idx=006218 GeodesicLength=0.9022039639050552 rxn_smarts="[C:1]([O:2][C@@:3]1([H:10])[C:4]([H:11])([H:12])[C@:5]1([O:6][H:14])[H:13])([H:7])([H:8])[H:9]>>[C:1]1([H:7])([H:9])[O:2][C@@:3]2([H:10])[C:4]([H:11])([H:12])[C@@:5]12[H:13].[O:6]([H:8])[H:14]"
C        1.11311518      -0.07373894      -0.93568497
O        0.20633965      -1.10991913      -1.26155561
C       -0.68000672      -1.15725062      -0.21822900
C       -0.45066245      -0.67005089       1.19532018
C       -0.93702067       0.26477533       0.14438961
O       -0.01290933       2.00683191       0.29234132
H        1.92827828      -0.51373812      -0.34274578
H        0.99706668       1.23308691       0.02809348
H        1.60191559       0.17764356      -1.88073546
H       -1.40588273      -1.95080009      -0.36858147
H        0.56882397      -0.58472695       1.54998612
H       -1.13180144      -0.95584357       1.98749086
H       -1.94838712       0.64908985       0.17551846
H        0.15113113       2.68464078      -0.36560776
14
Frame=10 idx=006218 GeodesicLength=1.0022918935618519 rxn_smarts="[C:1]([O:2][C@@:3]1([H:10])[C:4]([H:11])([H:12])[C@:5]1([O:6][H:14])[H:13])([H:7])([H:8])[H:9]>>[C:1]1([H:7])([H:9])[O:2][C@@:3]2([H:10])[C:4]([H:11])([H:12])[C@@:5]12[H:13].[O:6]([H:8])[H:14]"
C        1.10039829      -0.06563059      -0.93616252
O        0.19419377      -1.10056301      -1.27010567
C       -0.67377725      -1.16582282      -0.20833431
C       -0.45634095      -0.65922349       1.19629635
C       -0.94699955       0.25933860       0.12810099
O       -0.02708572       2.00042854       0.28550462
H        1.93114511      -0.52487607      -0.38016216
H        1.02885617       1.21329997       0.05837592
H        1.57266088       0.20163744      -1.88561477
H       -1.37782020      -1.98112296      -0.34503367
H        0.55516873      -0.54832383       1.56621767
H       -1.14053258      -0.94651437       1.98502956
H       -1.96440692       0.62889253       0.14560700
H        0.20454021       2.68848004      -0.33971901
14
Frame=11 idx=006218 GeodesicLength=1.1023449590326102 rxn_smarts="[C:1]([O:2][C@@:3]1([H:10])[C:4]([H:11])([H:12])[C@:5]1([O:6][H:14])[H:13])([H:7])([H:8])[H:9]>>[C:1]1([H:7])([H:9])[O:2][C@@:3]2([H:10])[C:4]([H:11])([H:12])[C@@:5]12[H:13].[O:6]([H:8])[H:14]"
C        1.08806158      -0.05804229      -0.93658152
O        0.18224736      -1.09181490      -1.27798633
C       -0.66715083      -1.17365935      -0.19831472
C       -0.46225132      -0.64781485       1.19719375
C       -0.95685634       0.25399258       0.11169169
O       -0.04079470       1.99426871       0.27646047
H        1.93366580      -0.53506720      -0.41876870
H        1.06075774       1.19200400       0.08662933
H        1.54306867       0.22508053      -1.89022361
H       -1.34838476      -2.01016435      -0.32117650
H        0.54024860      -0.51090494       1.58243893
H       -1.14958709      -0.93689194       1.98228695
H       -1.98002057       0.60836634       0.11566109
H        0.25699587       2.69064766      -0.30931084
14
Frame=12 idx=006218 GeodesicLength=1.2023788098740609 rxn_smarts="[C:1]([O:2][C@@:3]1([H:10])[C:4]([H:11])([H:12])[C@:5]1([O:6][H:14])[H:13])([H:7])([H:8])[H:9]>>[C:1]1([H:7])([H:9])[O:2][C@@:3]2([H:10])[C:4]([H:11])([H:12])[C@@:5]12[H:13].[O:6]([H:8])[H:14]"
C        1.07612223      -0.05098540      -0.93699968
O        0.17054560      -1.08373672      -1.28521244
C       -0.66013881      -1.18074883      -0.18814573
C       -0.46838176      -0.63572100       1.19797790
C       -0.96657941       0.24875548       0.09507624
O       -0.05410678       1.98843405       0.26523266
H        1.93584384      -0.54434325      -0.45867980
H        1.09307592       1.16905590       0.11301597
H        1.51306293       0.24801419      -1.89461122
H       -1.31758945      -2.03787681      -0.29690296
H        0.52402334      -0.47231819       1.59856514
H       -1.15892936      -0.92682096       1.97926412
H       -1.99522288       0.58748940       0.08557702
H        0.30827459       2.69080215      -0.27415723
14
Frame=13 idx=006218 GeodesicLength=1.3024047753679817 rxn_smarts="[C:1]([O:2][C@@:3]1([H:10])[C:4]([H:11])([H:12])[C@:5]1([O:6][H:14])[H:13])([H:7])([H:8])[H:9]>>[C:1]1([H:7])([H:9])[O:2][C@@:3]2([H:10])[C:4]([H:11])([H:12])[C@@:5]12[H:13].[O:6]([H:8])[H:14]"
C        1.06460491      -0.04442984      -0.93744293
O        0.15912606      -1.07632105      -1.29180844
C       -0.65274693      -1.18703568      -0.17781316
C       -0.47470524      -0.62283023       1.19861594
C       -0.97614353       0.24367028       0.07820256
O       -0.06709516       1.98305212       0.25186530
H        1.93765120      -0.55271129      -0.49998409
H        1.12607810       1.14427753       0.13773829
H        1.48259833       0.27051659      -1.89877128
H       -1.28546867      -2.06413536      -0.27213984
H        0.50646712      -0.43242739       1.61449643
H       -1.16848452      -0.91620665       1.97595502
H       -2.00998529       0.56626276       0.05531352
H        0.35810362       2.68831819      -0.23422734
14
Frame=14 idx=006218 GeodesicLength=1.402415994210689 rxn_smarts="[C:1]([O:2][C@@:3]1([H:10])[C:4]([H:11])([H:12])[C@:5]1([O:6][H:14])[H:13])([H:7])([H:8])[H:9]>>[C:1]1([H:7])([H:9])[O:2][C@@:3]2([H:10])[C:4]([H:11])([H:12])[C@@:5]12[H:13].[O:6]([H:8])[H:14]"
C        1.05357564      -0.03840594      -0.93795132
O        0.14802253      -1.06959134      -1.29781027
C       -0.64499628      -1.19246995      -0.16730552
C       -0.48119473      -0.60903785       1.19906690
C       -0.98549265       0.23879254       0.06100060
O       -0.07966517       1.97817550       0.23648287
H        1.93909092      -0.56025011      -0.54280965
H        1.16016605       1.11741699       0.16089832
H        1.45167083       0.29261367      -1.90270727
H       -1.25204661      -2.08885333      -0.24678999
H        0.48755073      -0.39106436       1.63012276
H       -1.17823410      -0.90484305       1.97235396
H       -2.02423956       0.54474959       0.02479395
H        0.40579241       2.68276764      -0.18934536
14
Frame=15 idx=006218 GeodesicLength=1.5024174439198585 rxn_smarts="[C:1]([O:2][C@@:3]1([H:10])[C:4]([H:11])([H:12])[C@:5]1([O:6][H:14])[H:13])([H:7])([H:8])[H:9]>>[C:1]1([H:7])([H:9])[O:2][C@@:3]2([H:10])[C:4]([H:11])([H:12])[C@@:5]12[H:13].[O:6]([H:8])[H:14]"
C        1.04310985      -0.03286551      -0.93847515
O        0.13726710      -1.06343008      -1.30324976
C       -0.63690891      -1.19692174      -0.15663911
C       -0.48779949      -0.59426537       1.19929151
C       -0.99454847       0.23423505       0.04348883
O       -0.09174555       1.97393879       0.21942242
H        1.94013277      -0.56698947      -0.58723332
H        1.19569272       1.08815387       0.18273519
H        1.42030973       0.31443548      -1.90628669
H       -1.21737894      -2.11181593      -0.22083918
H        0.46727197      -0.34815257       1.64530961
H       -1.18810252      -0.89267190       1.96842263
H       -2.03788637       0.52307953      -0.00592805
H        0.45058612       2.67326984      -0.14001893
14
Frame=16 idx=006218 GeodesicLength=1.602529904589125 rxn_smarts="[C:1]([O:2][C@@:3]1([H:10])[C:4]([H:11])([H:12])[C@:5]1([O:6][H:14])[H:13])([H:7])([H:8])[H:9]>>[C:1]1([H:7])([H:9])[O:2][C@@:3]2([H:10])[C:4]([H:11])([H:12])[C@@:5]12[H:13].[O:6]([H:8])[H:14]"
C        1.03319890      -0.02785478      -0.93918251
O        0.12691707      -1.05802801      -1.30812263
C       -0.62843598      -1.20043967      -0.14572805
C       -0.49446721      -0.57825776       1.19921647
C       -1.00336390       0.22992920       0.02543674
O       -0.10357251       1.97036849       0.20005334
H        1.94070130      -0.57288429      -0.63345761
H        1.23285217       1.05611078       0.20316251
H        1.38839649       0.33589493      -1.90966760
H       -1.18137906      -2.13305566      -0.19401008
H        0.44559139      -0.30316608       1.65983532
H       -1.19797007      -0.87928112       1.96421369
H       -2.05099572       0.50106319      -0.03709470
H        0.49252713       2.65960079      -0.08465489
