14
Frame=0 idx=000565 GeodesicLength=0.0 rxn_smarts="[C:1]1([H:7])([H:8])[C@@:2]2([H:9])[C:3]([H:10])([H:11])[C:4]([H:12])([H:13])[O:5][C@@:6]12[H:14]>>[C:1]([C@@:2]1([H:9])[C:3]([H:10])([H:11])[C-:4]([H:13])[O+:5]=[C:6]1[H:14])([H:7])([H:8])[H:12]"
C        1.13054448       0.29566474      -0.79360200
C        0.63762708       0.21851644       0.63269432
C       -0.80461233       0.74433579       0.59159298
C       -1.31175467      -0.22586458      -0.45422020
O       -0.80576124      -1.45749231      -0.05550236
C        0.37167912      -1.23617808       0.43980439
H        1.07248964       1.27507564      -1.27133811
H        2.09910006      -0.16336791      -0.96003691
H        1.25666136       0.53898548       1.46682261
H       -0.85236910       1.78305849       0.26339122
H       -1.31961118       0.64234129       1.55474786
H       -0.13482423      -0.02759442      -1.27178490
H       -2.35827430      -0.29871932      -0.72487157
H        1.01910529      -2.08876128       0.58230262
14
Frame=1 idx=000565 GeodesicLength=0.06722133981471548 rxn_smarts="[C:1]1([H:7])([H:8])[C@@:2]2([H:9])[C:3]([H:10])([H:11])[C:4]([H:12])([H:13])[O:5][C@@:6]12[H:14]>>[C:1]([C@@:2]1([H:9])[C:3]([H:10])([H:11])[C-:4]([H:13])[O+:5]=[C:6]1[H:14])([H:7])([H:8])[H:12]"
C        1.13670909       0.28757648      -0.79135722
C        0.63485382       0.22007980       0.63340167
C       -0.80761943       0.74445500       0.59004596
C       -1.31943965      -0.22772541      -0.45228181
O       -0.80540177      -1.45719546      -0.06068881
C        0.37743222      -1.23444222       0.43090195
H        1.08738844       1.26918986      -1.26525080
H        2.11211972      -0.16096188      -0.94780855
H        1.25310129       0.53857428       1.46832601
H       -0.85283006       1.78196293       0.25731200
H       -1.32109856       0.64921397       1.55454182
H       -0.14763963      -0.01772710      -1.29230549
H       -2.37094872      -0.30574937      -0.70222403
H        1.02337325      -2.08725088       0.57738731
14
Frame=2 idx=000565 GeodesicLength=0.13443516984202514 rxn_smarts="[C:1]1([H:7])([H:8])[C@@:2]2([H:9])[C:3]([H:10])([H:11])[C:4]([H:12])([H:13])[O:5][C@@:6]12[H:14]>>[C:1]([C@@:2]1([H:9])[C:3]([H:10])([H:11])[C-:4]([H:13])[O+:5]=[C:6]1[H:14])([H:7])([H:8])[H:12]"
C        1.14292116       0.27950286      -0.78904716
C        0.63214583       0.22157145       0.63410353
C       -0.81057132       0.74453710       0.58851505
C       -1.32704035      -0.22957086      -0.45037938
O       -0.80497975      -1.45685232      -0.06608936
C        0.38311542      -1.23269192       0.42212089
H        1.10191074       1.26308768      -1.25933458
H        2.12496377      -0.15850752      -0.93547661
H        1.24958426       0.53809294       1.46983411
H       -0.85323354       1.78081275       0.25127586
H       -1.32257085       0.65611020       1.55428413
H       -0.16066195      -0.00749817      -1.31289910
H       -2.38309508      -0.31284705      -0.67955419
H        1.02751166      -2.08574713       0.57264680
14
Frame=3 idx=000565 GeodesicLength=0.20164277980396397 rxn_smarts="[C:1]1([H:7])([H:8])[C@@:2]2([H:9])[C:3]([H:10])([H:11])[C:4]([H:12])([H:13])[O:5][C@@:6]12[H:14]>>[C:1]([C@@:2]1([H:9])[C:3]([H:10])([H:11])[C-:4]([H:13])[O+:5]=[C:6]1[H:14])([H:7])([H:8])[H:12]"
C        1.14919685       0.27144815      -0.78665926
C        0.62950231       0.22299297       0.63480294
C       -0.81346761       0.74458335       0.58700002
C       -1.33455956      -0.23140298      -0.44850784
O       -0.80449430      -1.45646173      -0.07170197
C        0.38873360      -1.23092952       0.41346670
H        1.11605318       1.25677600      -1.25359904
H        2.13763741      -0.15601734      -0.92304236
H        1.24610460       0.53754321       1.47135391
H       -0.85357895       1.77960861       0.24528013
H       -1.32402594       0.66303301       1.55397500
H       -0.17391355       0.00309312      -1.33357004
H       -2.39471332      -0.32001352      -0.65687299
H        1.03152530      -2.08425333       0.56807480
14
Frame=4 idx=000565 GeodesicLength=0.26884714539088356 rxn_smarts="[C:1]1([H:7])([H:8])[C@@:2]2([H:9])[C:3]([H:10])([H:11])[C:4]([H:12])([H:13])[O:5][C@@:6]12[H:14]>>[C:1]([C@@:2]1([H:9])[C:3]([H:10])([H:11])[C-:4]([H:13])[O+:5]=[C:6]1[H:14])([H:7])([H:8])[H:12]"
C        1.15555205       0.26341553      -0.78418126
C        0.62692243       0.22434620       0.63550205
C       -0.81630778       0.74459522       0.58549954
C       -1.34200014      -0.23322444      -0.44666207
O       -0.80394475      -1.45602228      -0.07752482
C        0.39429178      -1.22915725       0.40494281
H        1.12981869       1.25026422      -1.24804926
H        2.15014817      -0.15350161      -0.91050670
H        1.24265626       0.53692613       1.47289231
H       -0.85386552       1.77835101       0.23932002
H       -1.32546137       0.66998665       1.55361363
H       -0.18742207       0.01404553      -1.35432416
H       -2.40580601      -0.32725200      -0.63418746
H        1.03541827      -2.08277291       0.56366537
14
Frame=5 idx=000565 GeodesicLength=0.33605137583461275 rxn_smarts="[C:1]1([H:7])([H:8])[C@@:2]2([H:9])[C:3]([H:10])([H:11])[C:4]([H:12])([H:13])[O:5][C@@:6]12[H:14]>>[C:1]([C@@:2]1([H:9])[C:3]([H:10])([H:11])[C-:4]([H:13])[O+:5]=[C:6]1[H:14])([H:7])([H:8])[H:12]"
C        1.16200348       0.25540767      -0.78160023
C        0.62440539       0.22563263       0.63620356
C       -0.81909110       0.74457457       0.58401215
C       -1.34936522      -0.23503653      -0.44483671
O       -0.80332937      -1.45553149      -0.08356051
C        0.39979477      -1.22737703       0.39655106
H        1.14320780       1.24355687      -1.24269461
H        2.16250916      -0.15096899      -0.89786511
H        1.23923298       0.53624202       1.47445653
H       -0.85409153       1.77704103       0.23339066
H       -1.32687483       0.67697540       1.55319877
H       -0.20121757       0.02536232      -1.37516875
H       -2.41637728      -0.33456884      -0.61150004
H        1.03919332      -2.08130961       0.55941322
14
Frame=6 idx=000565 GeodesicLength=0.40325306019350043 rxn_smarts="[C:1]1([H:7])([H:8])[C@@:2]2([H:9])[C:3]([H:10])([H:11])[C:4]([H:12])([H:13])[O:5][C@@:6]12[H:14]>>[C:1]([C@@:2]1([H:9])[C:3]([H:10])([H:11])[C-:4]([H:13])[O+:5]=[C:6]1[H:14])([H:7])([H:8])[H:12]"
C        1.16856598       0.24742563      -0.77890450
C        0.62195043       0.22685333       0.63690894
C       -0.82181690       0.74452234       0.58253635
C       -1.35665902      -0.23684307      -0.44302538
O       -0.80264645      -1.45498892      -0.08980814
C        0.40524774      -1.22559159       0.38829374
H        1.15622381       1.23665903      -1.23754163
H        2.17473142      -0.14842516      -0.88511402
H        1.23582920       0.53549137       1.47605201
H       -0.85425587       1.77567824       0.22748696
H       -1.32826325       0.68400345       1.55272945
H       -0.21533263       0.03704754      -1.39611097
H       -2.42642879      -0.34196508      -0.58881797
H        1.04285432      -2.07986709       0.55531514
14
Frame=7 idx=000565 GeodesicLength=0.4704586341812773 rxn_smarts="[C:1]1([H:7])([H:8])[C@@:2]2([H:9])[C:3]([H:10])([H:11])[C:4]([H:12])([H:13])[O:5][C@@:6]12[H:14]>>[C:1]([C@@:2]1([H:9])[C:3]([H:10])([H:11])[C-:4]([H:13])[O+:5]=[C:6]1[H:14])([H:7])([H:8])[H:12]"
C        1.17525670       0.23946965      -0.77608047
C        0.61955724       0.22800933       0.63762106
C       -0.82448377       0.74444020       0.58106991
C       -1.36388405      -0.23864632      -0.44122313
O       -0.80189219      -1.45439166      -0.09627452
C        0.41065553      -1.22380312       0.38017214
H        1.16886783       1.22957015      -1.23260194
H        2.18683377      -0.14587456      -0.87224326
H        1.23243877       0.53467344       1.47768677
H       -0.85435576       1.77426302       0.22160226
H       -1.32962415       0.69107557       1.55220316
H       -0.22980554       0.04911274      -1.41716232
H       -2.43596724      -0.34944861      -0.56613821
H        1.04640285      -2.07844983       0.55136853
14
Frame=8 idx=000565 GeodesicLength=0.5376665313231872 rxn_smarts="[C:1]1([H:7])([H:8])[C@@:2]2([H:9])[C:3]([H:10])([H:11])[C:4]([H:12])([H:13])[O:5][C@@:6]12[H:14]>>[C:1]([C@@:2]1([H:9])[C:3]([H:10])([H:11])[C-:4]([H:13])[O+:5]=[C:6]1[H:14])([H:7])([H:8])[H:12]"
C        1.18209155       0.23153850      -0.77311584
C        0.61722536       0.22910162       0.63834140
C       -0.82709059       0.74432974       0.57961045
C       -1.37104396      -0.24044957      -0.43942378
O       -0.80106395      -1.45373793      -0.10296194
C        0.41602356      -1.22201379       0.37218620
H        1.18114601       1.22229213      -1.22788067
H        2.19882897      -0.14331895      -0.85924643
H        1.22905568       0.53378754       1.47936662
H       -0.85438864       1.77279537       0.21572992
H       -1.33095432       0.69819671       1.55161768
H       -0.24467893       0.06156423      -1.43833066
H       -2.44499196      -0.35702397      -0.54346483
H        1.04984121      -2.07706162       0.54757188
14
Frame=9 idx=000565 GeodesicLength=0.6048830863380726 rxn_smarts="[C:1]1([H:7])([H:8])[C@@:2]2([H:9])[C:3]([H:10])([H:11])[C:4]([H:12])([H:13])[O:5][C@@:6]12[H:14]>>[C:1]([C@@:2]1([H:9])[C:3]([H:10])([H:11])[C-:4]([H:13])[O+:5]=[C:6]1[H:14])([H:7])([H:8])[H:12]"
C        1.18908824       0.22363226      -0.76999661
C        0.61495406       0.23013057       0.63906935
C       -0.82963580       0.74419292       0.57815344
C       -1.37814461      -0.24225584      -0.43761976
O       -0.80015893      -1.45302455      -0.10987938
C        0.42135593      -1.22022594       0.36433266
H        1.19306412       1.21482235      -1.22338979
H        2.21074556      -0.14075835      -0.84610164
H        1.22567212       0.53283081       1.48109689
H       -0.85435125       1.77127522       0.20985972
H       -1.33224899       0.70537461       1.55096909
H       -0.26000055       0.07441671      -1.45962671
H       -2.45350914      -0.36470349      -0.52078754
H        1.05316923      -2.07570728       0.54392027
14
Frame=10 idx=000565 GeodesicLength=0.6721010533187999 rxn_smarts="[C:1]1([H:7])([H:8])[C@@:2]2([H:9])[C:3]([H:10])([H:11])[C:4]([H:12])([H:13])[O:5][C@@:6]12[H:14]>>[C:1]([C@@:2]1([H:9])[C:3]([H:10])([H:11])[C-:4]([H:13])[O+:5]=[C:6]1[H:14])([H:7])([H:8])[H:12]"
C        1.19626105       0.21574532      -0.76671255
C        0.61274373       0.23109705       0.63980729
C       -0.83211749       0.74403118       0.57669613
C       -1.38518619      -0.24406786      -0.43580869
O       -0.79917178      -1.45224849      -0.11703401
C        0.42665783      -1.21844201       0.35661330
H        1.20462944       1.20715783      -1.21913532
H        2.22259906      -0.13818981      -0.83279876
H        1.22228384       0.53180222       1.48288473
H       -0.85423948       1.76970232       0.20398467
H       -1.33350650       0.71261319       1.55025319
H       -0.27581769       0.08768467      -1.48106265
H       -2.46152344      -0.37249427      -0.49810381
H        1.05638762      -2.07439135       0.54041649
14
Frame=11 idx=000565 GeodesicLength=0.7393323140037787 rxn_smarts="[C:1]1([H:7])([H:8])[C@@:2]2([H:9])[C:3]([H:10])([H:11])[C:4]([H:12])([H:13])[O:5][C@@:6]12[H:14]>>[C:1]([C@@:2]1([H:9])[C:3]([H:10])([H:11])[C-:4]([H:13])[O+:5]=[C:6]1[H:14])([H:7])([H:8])[H:12]"
C        1.20362871       0.20787349      -0.76324987
C        0.61059415       0.23200060       0.64055675
C       -0.83453334       0.74384656       0.57523266
C       -1.39217343      -0.24588942      -0.43398366
O       -0.79809603      -1.45140575      -0.12444027
C        0.43193439      -1.21666447       0.34902491
H        1.21584936       1.19928950      -1.21512971
H        2.23441730      -0.13560947      -0.81931272
H        1.21888307       0.53069847       1.48473686
H       -0.85404793       1.76807617       0.19809254
H       -1.33472285       0.71992065       1.54946383
H       -0.29219147       0.10139386      -1.50265138
H       -2.46903716      -0.38041101      -0.47540036
H        1.05949522      -2.07311917       0.53706043
14
Frame=12 idx=000565 GeodesicLength=0.8065638541225716 rxn_smarts="[C:1]1([H:7])([H:8])[C@@:2]2([H:9])[C:3]([H:10])([H:11])[C:4]([H:12])([H:13])[O:5][C@@:6]12[H:14]>>[C:1]([C@@:2]1([H:9])[C:3]([H:10])([H:11])[C-:4]([H:13])[O+:5]=[C:6]1[H:14])([H:7])([H:8])[H:12]"
C        1.21120606       0.20001094      -0.75959637
C        0.60850573       0.23284182       0.64131844
C       -0.83688130       0.74364077       0.57376017
C       -1.39910852      -0.24772344      -0.43213902
O       -0.79692648      -1.45049163      -0.13210814
C        0.43718979      -1.21489573       0.34156809
H        1.22672860       1.19120797      -1.21138418
H        2.24621868      -0.13301227      -0.80562614
H        1.21546457       0.52951759       1.48665905
H       -0.85377216       1.76639631       0.19217551
H       -1.33589449       0.72730293       1.54859703
H       -0.30917435       0.11556477      -1.52440156
H       -2.47604698      -0.38846452      -0.45267642
H        1.06249084      -2.07189551       0.53385354
14
Frame=13 idx=000565 GeodesicLength=0.8737974171279539 rxn_smarts="[C:1]1([H:7])([H:8])[C@@:2]2([H:9])[C:3]([H:10])([H:11])[C:4]([H:12])([H:13])[O:5][C@@:6]12[H:14]>>[C:1]([C@@:2]1([H:9])[C:3]([H:10])([H:11])[C-:4]([H:13])[O+:5]=[C:6]1[H:14])([H:7])([H:8])[H:12]"
C        1.21901194       0.19215260      -0.75573714
C        0.60647913       0.23362092       0.64209237
C       -0.83915852       0.74341536       0.57227227
C       -1.40599339      -0.24957452      -0.43027074
O       -0.79565573      -1.44950194      -0.14005106
C        0.44242936      -1.21313838       0.33424147
H        1.23727879       1.18290158      -1.20790731
H        2.25802577      -0.13039135      -0.79171654
H        1.21202093       0.52825647       1.48865792
H       -0.85340663       1.76466136       0.18622094
H       -1.33701781       0.73476730       1.54764490
H       -0.32683424       0.13022316      -1.54632366
H       -2.48255303      -0.39666698      -0.42992092
H        1.06537342      -2.07072559       0.53079750
14
Frame=14 idx=000565 GeodesicLength=0.9410393031463783 rxn_smarts="[C:1]1([H:7])([H:8])[C@@:2]2([H:9])[C:3]([H:10])([H:11])[C:4]([H:12])([H:13])[O:5][C@@:6]12[H:14]>>[C:1]([C@@:2]1([H:9])[C:3]([H:10])([H:11])[C-:4]([H:13])[O+:5]=[C:6]1[H:14])([H:7])([H:8])[H:12]"
C        1.22706552       0.18429019      -0.75165956
C        0.60451450       0.23433674       0.64287884
C       -0.84136202       0.74317315       0.57076040
C       -1.41283097      -0.25144589      -0.42837483
O       -0.79427471      -1.44842926      -0.14829231
C        0.44765706      -1.21139524       0.32704187
H        1.24750711       1.17435075      -1.20471763
H        2.26987374      -0.12773792      -0.77754412
H        1.20854408       0.52691032       1.49074004
H       -0.85294345       1.76287103       0.18021358
H       -1.33808913       0.74232335       1.54659724
H       -0.34524516       0.14541248      -1.56842977
H       -2.48855426      -0.40504344      -0.40710839
H        1.06813768      -2.06961625       0.52789464
14
Frame=15 idx=000565 GeodesicLength=1.008280714185121 rxn_smarts="[C:1]1([H:7])([H:8])[C@@:2]2([H:9])[C:3]([H:10])([H:11])[C:4]([H:12])([H:13])[O:5][C@@:6]12[H:14]>>[C:1]([C@@:2]1([H:9])[C:3]([H:10])([H:11])[C-:4]([H:13])[O+:5]=[C:6]1[H:14])([H:7])([H:8])[H:12]"
C        1.23538392       0.17641519      -0.74734982
C        0.60261302       0.23498925       0.64367820
C       -0.84348861       0.74291566       0.56921902
C       -1.41962330      -0.25334309      -0.42644487
O       -0.79277451      -1.44726753      -0.15684677
C        0.45287798      -1.20966919       0.31997004
H        1.25742190       1.16553604      -1.20182833
H        2.28178256      -0.12504200      -0.76308271
H        1.20502777       0.52547645       1.49291137
H       -0.85237640       1.76102352       0.17414129
H       -1.33910401       0.74997933       1.54544683
H       -0.36448276       0.16116698      -1.59072477
H       -2.49403877      -0.41360722      -0.38423810
H        1.07078121      -2.06857338       0.52514861
14
Frame=16 idx=000565 GeodesicLength=1.0755115916191844 rxn_smarts="[C:1]1([H:7])([H:8])[C@@:2]2([H:9])[C:3]([H:10])([H:11])[C:4]([H:12])([H:13])[O:5][C@@:6]12[H:14]>>[C:1]([C@@:2]1([H:9])[C:3]([H:10])([H:11])[C-:4]([H:13])[O+:5]=[C:6]1[H:14])([H:7])([H:8])[H:12]"
C        1.24398618       0.16851926      -0.74279298
C        0.60077607       0.23557814       0.64449060
C       -0.84553474       0.74264499       0.56764002
C       -1.42637079      -0.25527075      -0.42447783
O       -0.79114453      -1.44600892      -0.16573446
C        0.45809709      -1.20796308       0.31302610
H        1.26703232       1.15643408      -1.19925519
H        2.29377521      -0.12229318      -0.74830069
H        1.20146451       0.52395127       1.49517894
H       -0.85169778       1.75911763       0.16798982
H       -1.34005891       0.75774408       1.54418301
H       -0.38462779       0.17752754      -1.61321182
H       -2.49899672      -0.42237749      -0.36129907
H        1.07329989      -2.06760357       0.52256355
