12
Frame=0 idx=000843 GeodesicLength=0.0 rxn_smarts="[C:1]([C:2](=[N:3][O:4][H:9])[C:5]([H:10])([H:11])[H:12])([H:6])([H:7])[H:8]>>[C:1]([C:2]([N:3])([O:4][H:9])[C:5]([H:10])([H:11])[H:12])([H:6])([H:7])[H:8]"
C       -1.35784603      -0.30150512      -0.02771247
C        0.05447838       0.12954026      -0.33340877
N        0.37272451       0.99609669      -1.31502548
O       -0.14453269       1.83994958      -0.10371703
C        1.14412551      -0.71998891       0.26444877
H       -1.47895150      -1.30068022      -0.45963305
H       -2.07549539       0.37068561      -0.49082263
H       -1.54405085      -0.38322182       1.04534999
H        0.69803787       2.12210965       0.26739474
H        1.66490435      -1.19603270      -0.57065734
H        0.78945762      -1.47612062       0.96468303
H        1.87714825      -0.08083241       0.75910028
12
Frame=1 idx=000843 GeodesicLength=0.027497082623464994 rxn_smarts="[C:1]([C:2](=[N:3][O:4][H:9])[C:5]([H:10])([H:11])[H:12])([H:6])([H:7])[H:8]>>[C:1]([C:2]([N:3])([O:4][H:9])[C:5]([H:10])([H:11])[H:12])([H:6])([H:7])[H:8]"
C       -1.35672118      -0.30533190      -0.03525600
C        0.05599450       0.13201713      -0.32825502
N        0.37723474       1.00826923      -1.29853210
O       -0.14929849       1.84289763      -0.08968708
C        1.14642758      -0.72167263       0.26188136
H       -1.47153382      -1.30828044      -0.45919152
H       -2.07375828       0.35982853      -0.50972509
H       -1.55387515      -0.37486951       1.03669623
H        0.68866279       2.13760282       0.28200324
H        1.63566173      -1.23084010      -0.57273951
H        0.79754659      -1.45395328       0.99001992
H        1.90365899      -0.08566747       0.72278556
12
Frame=2 idx=000843 GeodesicLength=0.054857675178476395 rxn_smarts="[C:1]([C:2](=[N:3][O:4][H:9])[C:5]([H:10])([H:11])[H:12])([H:6])([H:7])[H:8]>>[C:1]([C:2]([N:3])([O:4][H:9])[C:5]([H:10])([H:11])[H:12])([H:6])([H:7])[H:8]"
C       -1.35550762      -0.30909730      -0.04263858
C        0.05750003       0.13432816      -0.32324946
N        0.38163217       1.02013514      -1.28211858
O       -0.15385856       1.84567793      -0.07576955
C        1.14874844      -0.72340558       0.25920401
H       -1.46439163      -1.31572074      -0.45850034
H       -2.07166744       0.34915996      -0.52831414
H       -1.56349510      -0.36658922       1.02798255
H        0.67937263       2.15302302       0.29624471
H        1.60658334      -1.26437089      -0.57320673
H        0.80644075      -1.43170640       1.01391148
H        1.92864299      -0.09143409       0.68645461
12
Frame=3 idx=000843 GeodesicLength=0.0820797187435639 rxn_smarts="[C:1]([C:2](=[N:3][O:4][H:9])[C:5]([H:10])([H:11])[H:12])([H:6])([H:7])[H:8]>>[C:1]([C:2]([N:3])([O:4][H:9])[C:5]([H:10])([H:11])[H:12])([H:6])([H:7])[H:8]"
C       -1.35415200      -0.31274423      -0.04985919
C        0.05897727       0.13647107      -0.31836863
N        0.38583253       1.03166793      -1.26572899
O       -0.15827007       1.84822306      -0.06200361
C        1.15106523      -0.72521233       0.25642911
H       -1.45745220      -1.32288566      -0.45753015
H       -2.06918827       0.33875286      -0.54656639
H       -1.57281956      -0.35835231       1.01915874
H        0.67006682       2.16828025       0.31003727
H        1.57779921      -1.29657518      -0.57213224
H        0.81607475      -1.40951693       1.03632806
H        1.95206627      -0.09810854       0.65023603
12
Frame=4 idx=000843 GeodesicLength=0.10919296827469395 rxn_smarts="[C:1]([C:2](=[N:3][O:4][H:9])[C:5]([H:10])([H:11])[H:12])([H:6])([H:7])[H:8]>>[C:1]([C:2]([N:3])([O:4][H:9])[C:5]([H:10])([H:11])[H:12])([H:6])([H:7])[H:8]"
C       -1.35273344      -0.31633548      -0.05693689
C        0.06045409       0.13846473      -0.31361850
N        0.38995458       1.04292853      -1.24939381
O       -0.16249873       1.85062724      -0.04830060
C        1.15339821      -0.72707883       0.25354068
H       -1.45079495      -1.32990277      -0.45637300
H       -2.06639916       0.32851623      -0.56453773
H       -1.58198996      -0.35017736       1.01027811
H        0.66080748       2.18354294       0.32349547
H        1.54927727      -1.32766666      -0.56960864
H        0.82645584      -1.38734539       1.05740912
H        1.97406877      -0.10557317       0.61404579
12
Frame=5 idx=000843 GeodesicLength=0.13616822144301316 rxn_smarts="[C:1]([C:2](=[N:3][O:4][H:9])[C:5]([H:10])([H:11])[H:12])([H:6])([H:7])[H:8]>>[C:1]([C:2]([N:3])([O:4][H:9])[C:5]([H:10])([H:11])[H:12])([H:6])([H:7])[H:8]"
C       -1.35124814      -0.31986109      -0.06387892
C        0.06192312       0.14030463      -0.30899523
N        0.39398073       1.05390058      -1.23310449
O       -0.16654580       1.85285583      -0.03467746
C        1.15573253      -0.72900515       0.25054974
H       -1.44442769      -1.33673571      -0.45505021
H       -2.06331408       0.31847939      -0.58220105
H       -1.59096912      -0.34209488       1.00133150
H        0.65156346       2.19878670       0.33660023
H        1.52110547      -1.35761985      -0.56572306
H        0.83748557      -1.36521869       1.07718384
H        1.99471395      -0.11379175       0.57796510
12
Frame=6 idx=000843 GeodesicLength=0.1630943773328991 rxn_smarts="[C:1]([C:2](=[N:3][O:4][H:9])[C:5]([H:10])([H:11])[H:12])([H:6])([H:7])[H:8]>>[C:1]([C:2]([N:3])([O:4][H:9])[C:5]([H:10])([H:11])[H:12])([H:6])([H:7])[H:8]"
C       -1.34967562      -0.32331193      -0.07070989
C        0.06338828       0.14201183      -0.30447006
N        0.39791351       1.06464209      -1.21678312
O       -0.17046019       1.85493273      -0.02107834
C        1.15806319      -0.73101386       0.24745057
H       -1.43827764      -1.34339208      -0.45355395
H       -2.05990159       0.30863132      -0.59963617
H       -1.59978176      -0.33405518       0.99226344
H        0.64225616       2.21404120       0.34939690
H        1.49321071      -1.38660115      -0.56048657
H        0.84921690      -1.34314185       1.09574541
H        2.01404806      -0.12274312       0.54186177
12
Frame=7 idx=000843 GeodesicLength=0.1899863260826315 rxn_smarts="[C:1]([C:2](=[N:3][O:4][H:9])[C:5]([H:10])([H:11])[H:12])([H:6])([H:7])[H:8]>>[C:1]([C:2]([N:3])([O:4][H:9])[C:5]([H:10])([H:11])[H:12])([H:6])([H:7])[H:8]"
C       -1.34803572      -0.32670014      -0.07746839
C        0.06485970       0.14360144      -0.30003189
N        0.40179203       1.07519177      -1.20040218
O       -0.17425370       1.85684306      -0.00743025
C        1.16040088      -0.73309752       0.24423996
H       -1.43234447      -1.34988850      -0.45192181
H       -2.05617599       0.29892736      -0.61694194
H       -1.60849178      -0.32606404       0.98306057
H        0.63284831       2.22931077       0.36200406
H        1.46549881      -1.41473203      -0.55394711
H        0.86165882      -1.32095688       1.11327314
H        2.03224310      -0.13243530       0.50556582
12
Frame=8 idx=000843 GeodesicLength=0.21681603055197163 rxn_smarts="[C:1]([C:2](=[N:3][O:4][H:9])[C:5]([H:10])([H:11])[H:12])([H:6])([H:7])[H:8]>>[C:1]([C:2]([N:3])([O:4][H:9])[C:5]([H:10])([H:11])[H:12])([H:6])([H:7])[H:8]"
C       -1.34633863      -0.33002158      -0.08413994
C        0.06633357       0.14506442      -0.29568372
N        0.40562197       1.08552419      -1.18396475
O       -0.17791388       1.85859133       0.00623603
C        1.16273568      -0.73525887       0.24092556
H       -1.42665411      -1.35620802      -0.45018264
H       -2.05216388       0.28940706      -0.63403432
H       -1.61707793      -0.31814214       0.97373263
H        0.62334527       2.24462050       0.37434887
H        1.43812017      -1.44198758      -0.54612730
H        0.87474873      -1.29879897       1.12968238
H        2.04924305      -0.14279033       0.46920720
12
Frame=9 idx=000843 GeodesicLength=0.243629606135321 rxn_smarts="[C:1]([C:2](=[N:3][O:4][H:9])[C:5]([H:10])([H:11])[H:12])([H:6])([H:7])[H:8]>>[C:1]([C:2]([N:3])([O:4][H:9])[C:5]([H:10])([H:11])[H:12])([H:6])([H:7])[H:8]"
C       -1.34457354      -0.33327823      -0.09075367
C        0.06781662       0.14641598      -0.29140143
N        0.40941637       1.09568081      -1.16741880
O       -0.18146286       1.86017946       0.01998232
C        1.16506306      -0.73751305       0.23750218
H       -1.42116661      -1.36236926      -0.44833283
H       -2.04783534       0.28003932      -0.65101411
H       -1.62556915      -0.31025918       0.96424580
H        0.61368815       2.25998956       0.38650167
H        1.41097026      -1.46845971      -0.53705034
H        0.88853808      -1.27658457       1.14508874
H        2.06511497      -0.15384115       0.43265048
12
Frame=10 idx=000843 GeodesicLength=0.27038586532001657 rxn_smarts="[C:1]([C:2](=[N:3][O:4][H:9])[C:5]([H:10])([H:11])[H:12])([H:6])([H:7])[H:8]>>[C:1]([C:2]([N:3])([O:4][H:9])[C:5]([H:10])([H:11])[H:12])([H:6])([H:7])[H:8]"
C       -1.34275727      -0.33646444      -0.09729973
C        0.06930649       0.14764935      -0.28718206
N        0.41318450       1.10563116      -1.15077637
O       -0.18489333       1.86161292       0.03378638
C        1.16738513      -0.73986702       0.23397822
H       -1.41590943      -1.36836034      -0.44639987
H       -2.04322353       0.27085471      -0.66783089
H       -1.63396253      -0.30242120       0.95462051
H        0.60387463       2.27544275       0.39841140
H        1.38417326      -1.49412105      -0.52676504
H        0.90298738      -1.25442410       1.15944406
H        2.07983468      -0.16553274       0.39601338
12
Frame=11 idx=000843 GeodesicLength=0.2971270790938046 rxn_smarts="[C:1]([C:2](=[N:3][O:4][H:9])[C:5]([H:10])([H:11])[H:12])([H:6])([H:7])[H:8]>>[C:1]([C:2]([N:3])([O:4][H:9])[C:5]([H:10])([H:11])[H:12])([H:6])([H:7])[H:8]"
C       -1.34088839      -0.33958428      -0.10381028
C        0.07080873       0.14877510      -0.28301663
N        0.41695080       1.11541279      -1.13398491
O       -0.18821767       1.86288122       0.04770674
C        1.16969859      -0.74231793       0.23035363
H       -1.41086247      -1.37418720      -0.44441039
H       -2.03831300       0.26183779      -0.68454569
H       -1.64228480      -0.29463321       0.94481708
H        0.59385495       2.29097908       0.41015499
H        1.35765038      -1.51907590      -0.51522761
H        0.91813266      -1.23219732       1.17284461
H        2.09347021      -0.17789014       0.35911846
12
Frame=12 idx=000843 GeodesicLength=0.3238995627088984 rxn_smarts="[C:1]([C:2](=[N:3][O:4][H:9])[C:5]([H:10])([H:11])[H:12])([H:6])([H:7])[H:8]>>[C:1]([C:2]([N:3])([O:4][H:9])[C:5]([H:10])([H:11])[H:12])([H:6])([H:7])[H:8]"
C       -1.33896031      -0.34264122      -0.11031071
C        0.07233165       0.14980361      -0.27888193
N        0.42073728       1.12505651      -1.11699327
O       -0.19144998       1.86399123       0.06180098
C        1.17200552      -0.74487714       0.22662532
H       -1.40599751      -1.37986831      -0.44236925
H       -2.03307212       0.25296302      -0.70124135
H       -1.65057517      -0.28687350       0.93480105
H        0.58357740       2.30661945       0.42180020
H        1.33130685      -1.54341070      -0.50240795
H        0.93404195      -1.20981998       1.18535671
H        2.10605444      -0.19094297       0.32182022
12
Frame=13 idx=000843 GeodesicLength=0.35065963001456435 rxn_smarts="[C:1]([C:2](=[N:3][O:4][H:9])[C:5]([H:10])([H:11])[H:12])([H:6])([H:7])[H:8]>>[C:1]([C:2]([N:3])([O:4][H:9])[C:5]([H:10])([H:11])[H:12])([H:6])([H:7])[H:8]"
C       -1.33698331      -0.34562880      -0.11679462
C        0.07387058       0.15072904      -0.27477688
N        0.42455256       1.13452836      -1.09980074
O       -0.19457236       1.86492302       0.07604895
C        1.17429506      -0.74754037       0.22280218
H       -1.40134258      -1.38538351      -0.44029468
H       -2.02752448       0.24425792      -0.71786391
H       -1.65880642      -0.27915280       0.92458294
H        0.57304011       2.32237125       0.43328256
H        1.30526496      -1.56705530      -0.48833512
H        0.95066947      -1.18739063       1.19691911
H        2.11753642      -0.20465819       0.28423021
12
Frame=14 idx=000843 GeodesicLength=0.377444562671621 rxn_smarts="[C:1]([C:2](=[N:3][O:4][H:9])[C:5]([H:10])([H:11])[H:12])([H:6])([H:7])[H:8]>>[C:1]([C:2]([N:3])([O:4][H:9])[C:5]([H:10])([H:11])[H:12])([H:6])([H:7])[H:8]"
C       -1.33495207      -0.34854172      -0.12328383
C        0.07543252       0.15156191      -0.27067849
N        0.42842088       1.14385832      -1.08235941
O       -0.19761052       1.86568947       0.09049488
C        1.17657329      -0.75032748       0.21888243
H       -1.39686393      -1.39073730      -0.43819305
H       -2.02164271       0.23571899      -0.73448301
H       -1.66701966      -0.27145245       0.91413091
H        0.56216671       2.33825071       0.44466280
H        1.27946883      -1.59008386      -0.47295065
H        0.96809549      -1.16482992       1.20757478
H        2.12793115      -0.21910667       0.24620265
12
Frame=15 idx=000843 GeodesicLength=0.4043009215683251 rxn_smarts="[C:1]([C:2](=[N:3][O:4][H:9])[C:5]([H:10])([H:11])[H:12])([H:6])([H:7])[H:8]>>[C:1]([C:2]([N:3])([O:4][H:9])[C:5]([H:10])([H:11])[H:12])([H:6])([H:7])[H:8]"
C       -1.33286048      -0.35138963      -0.12980964
C        0.07702815       0.15230780      -0.26656882
N        0.43236831       1.15306935      -1.06461201
O       -0.20056281       1.86627939       0.10520468
C        1.17884263      -0.75323889       0.21486945
H       -1.39255093      -1.39594587      -0.43609407
H       -2.01539226       0.22731844      -0.75116671
H       -1.67524006      -0.26376895       0.90340331
H        0.55092172       2.35426565       0.45600806
H        1.25381012      -1.61256745      -0.45618875
H        0.98638858      -1.14202098       1.21738341
H        2.13724703      -0.23430889       0.20757109
12
Frame=16 idx=000843 GeodesicLength=0.43118432720472977 rxn_smarts="[C:1]([C:2](=[N:3][O:4][H:9])[C:5]([H:10])([H:11])[H:12])([H:6])([H:7])[H:8]>>[C:1]([C:2]([N:3])([O:4][H:9])[C:5]([H:10])([H:11])[H:12])([H:6])([H:7])[H:8]"
C       -1.33071512      -0.35416281      -0.13636357
C        0.07865315       0.15296433      -0.26243684
N        0.43640525       1.16213326      -1.04655784
O       -0.20342086       1.86669135       0.12015820
C        1.18109521      -0.75628305       0.21077086
H       -1.38841458      -1.40098847      -0.43402361
H       -2.00878654       0.21909839      -0.76786903
H       -1.68345387      -0.25611321       0.89241340
H        0.53927853       2.37043334       0.46725384
H        1.22841252      -1.63443599      -0.43804422
H        1.00554195      -1.11906401       1.22626824
H        2.14540438      -0.25027312       0.16843057
