16
Frame=0 idx=006461 GeodesicLength=0.0 rxn_smarts="[C:1]([O:2][C:3]([C:4]([H:11])([H:12])[H:13])([C:5]([H:14])([H:15])[H:16])[C:6]#[N:7])([H:8])([H:9])[H:10]>>[C:1](=[O+:2][C:3]([C:5]([H:14])([H:15])[H:16])=[C:6]=[N-:7])([H:8])[H:10].[C:4]([H:9])([H:11])([H:12])[H:13]"
C        1.75731352       0.09549677      -0.52662553
O        0.95834493       1.08122140      -0.05250095
C       -0.17944331       0.70595713       0.49375371
C       -0.67539452      -0.75093115      -1.35775606
C       -0.23257490      -0.31281670       1.58811488
C       -1.18018548       1.72532198       0.47614050
N       -2.04925023       2.47865585       0.43563838
H        2.08553408      -0.64809520       0.19760926
H        0.63186778      -0.51758768      -1.09989302
H        2.54456544       0.50632201      -1.14880513
H       -0.36425107      -1.50130183      -2.08963771
H       -1.16759510       0.06690254      -1.87817072
H       -1.36069848      -1.22820611      -0.66274360
H       -1.27170724      -0.54871521       1.81338767
H        0.22920379       0.08357074       2.49889246
H        0.27427080      -1.23579450       1.31259592
16
Frame=1 idx=006461 GeodesicLength=0.08787306588228157 rxn_smarts="[C:1]([O:2][C:3]([C:4]([H:11])([H:12])[H:13])([C:5]([H:14])([H:15])[H:16])[C:6]#[N:7])([H:8])([H:9])[H:10]>>[C:1](=[O+:2][C:3]([C:5]([H:14])([H:15])[H:16])=[C:6]=[N-:7])([H:8])[H:10].[C:4]([H:9])([H:11])([H:12])[H:13]"
C        1.76982818       0.10208543      -0.51556037
O        0.94641185       1.07981802      -0.06942525
C       -0.19046521       0.69458901       0.47908739
C       -0.68433109      -0.75337777      -1.35800069
C       -0.23451492      -0.31636442       1.58139089
C       -1.18392532       1.72227848       0.47413177
N       -2.03917833       2.49211326       0.45767947
H        2.11103822      -0.60844147       0.23534137
H        0.65602185      -0.54685386      -1.10331255
H        2.55272968       0.51630879      -1.14084872
H       -0.38617404      -1.51013758      -2.08853785
H       -1.16731538       0.06514558      -1.88661638
H       -1.38796579      -1.22514700      -0.67687103
H       -1.27115262      -0.54293534       1.82657394
H        0.25119798       0.07817645       2.48029289
H        0.25779493      -1.24725758       1.30467513
16
Frame=2 idx=006461 GeodesicLength=0.17552357885488779 rxn_smarts="[C:1]([O:2][C:3]([C:4]([H:11])([H:12])[H:13])([C:5]([H:14])([H:15])[H:16])[C:6]#[N:7])([H:8])([H:9])[H:10]>>[C:1](=[O+:2][C:3]([C:5]([H:14])([H:15])[H:16])=[C:6]=[N-:7])([H:8])[H:10].[C:4]([H:9])([H:11])([H:12])[H:13]"
C        1.78191271       0.10868116      -0.50435378
O        0.93480021       1.07773527      -0.08640722
C       -0.20115711       0.68317115       0.46474890
C       -0.69365353      -0.75581489      -1.35811202
C       -0.23628193      -0.32012593       1.57469920
C       -1.18704834       1.71923476       0.47223786
N       -2.02798125       2.50485722       0.47873692
H        2.13519293      -0.56676186       0.27287503
H        0.68015848      -0.57599894      -1.10605617
H        2.56046250       0.52582068      -1.13302745
H       -0.40770274      -1.51838661      -2.08730897
H       -1.16756184       0.06324943      -1.89476223
H       -1.41523514      -1.22186444      -0.69112409
H       -1.27008559      -0.53739120       1.83927062
H        0.27249871       0.07221789       2.46157053
H        0.24168196      -1.25862370       1.29701289
16
Frame=3 idx=006461 GeodesicLength=0.2629729379841285 rxn_smarts="[C:1]([O:2][C:3]([C:4]([H:11])([H:12])[H:13])([C:5]([H:14])([H:15])[H:16])[C:6]#[N:7])([H:8])([H:9])[H:10]>>[C:1](=[O+:2][C:3]([C:5]([H:14])([H:15])[H:16])=[C:6]=[N-:7])([H:8])[H:10].[C:4]([H:9])([H:11])([H:12])[H:13]"
C        1.79362802       0.11530064      -0.49296096
O        0.92353908       1.07498364      -0.10341391
C       -0.21151073       0.67169894       0.45073427
C       -0.70342972      -0.75821532      -1.35807291
C       -0.23786762      -0.32411210       1.56803888
C       -1.18952836       1.71619854       0.47048014
N       -2.01576333       2.51683752       0.49872812
H        2.15796186      -0.52310241       0.31006631
H        0.70435105      -0.60497380      -1.10818527
H        2.56783005       0.53485940      -1.12529601
H       -0.42885747      -1.52609639      -2.08589024
H       -1.16831983       0.06127675      -1.90261879
H       -1.44255375      -1.21833235      -0.70546258
H       -1.26851955      -0.53208446       1.85149708
H        0.29313987       0.06568808       2.44276727
H        0.22590041      -1.26992667       1.28958860
16
Frame=4 idx=006461 GeodesicLength=0.3502472413420783 rxn_smarts="[C:1]([O:2][C:3]([C:4]([H:11])([H:12])[H:13])([C:5]([H:14])([H:15])[H:16])[C:6]#[N:7])([H:8])([H:9])[H:10]>>[C:1](=[O+:2][C:3]([C:5]([H:14])([H:15])[H:16])=[C:6]=[N-:7])([H:8])[H:10].[C:4]([H:9])([H:11])([H:12])[H:13]"
C        1.80502075       0.12197853      -0.48133931
O        0.91262137       1.07157574      -0.12044924
C       -0.22154586       0.66016100       0.43701053
C       -0.71370555      -0.76058818      -1.35788615
C       -0.23928103      -0.32832901       1.56139192
C       -1.19139133       1.71314667       0.46882081
N       -2.00252401       2.52815443       0.51780220
H        2.17931051      -0.47747586       0.34680121
H        0.72869516      -0.63377175      -1.10974737
H        2.57488832       0.54344690      -1.11761128
H       -0.44962942      -1.53336931      -2.08421430
H       -1.16955339       0.05922872      -1.91024092
H       -1.46996557      -1.21454754      -0.71986827
H       -1.26648134      -0.52702619       1.86325136
H        0.31312553       0.05860678       2.42390434
H        0.21041586      -1.28119092       1.28237448
16
Frame=5 idx=006461 GeodesicLength=0.43734376793688245 rxn_smarts="[C:1]([O:2][C:3]([C:4]([H:11])([H:12])[H:13])([C:5]([H:14])([H:15])[H:16])[C:6]#[N:7])([H:8])([H:9])[H:10]>>[C:1](=[O+:2][C:3]([C:5]([H:14])([H:15])[H:16])=[C:6]=[N-:7])([H:8])[H:10].[C:4]([H:9])([H:11])([H:12])[H:13]"
C        1.81613624       0.12873314      -0.46945872
O        0.90207063       1.06750768      -0.13749609
C       -0.23124742       0.64855504       0.42357976
C       -0.72454152      -0.76289054      -1.35754017
C       -0.24050926      -0.33279030       1.55476030
C       -1.19260772       1.71008565       0.46728230
N       -1.98836092       2.53874270       0.53587017
H        2.19921451      -0.42987656       0.38298772
H        0.75327218      -0.66240124      -1.11076538
H        2.58168943       0.55157573      -1.10994504
H       -0.47006329      -1.54023407      -2.08223951
H       -1.17124224       0.05717428      -1.91764551
H       -1.49752617      -1.21046170      -0.73431501
H       -1.26397772      -0.52222431       1.87455200
H        0.33249274       0.05095953       2.40502536
H        0.19520054      -1.29245503       1.27534783
16
Frame=6 idx=006461 GeodesicLength=0.5243283470575137 rxn_smarts="[C:1]([O:2][C:3]([C:4]([H:11])([H:12])[H:13])([C:5]([H:14])([H:15])[H:16])[C:6]#[N:7])([H:8])([H:9])[H:10]>>[C:1](=[O+:2][C:3]([C:5]([H:14])([H:15])[H:16])=[C:6]=[N-:7])([H:8])[H:10].[C:4]([H:9])([H:11])([H:12])[H:13]"
C        1.82701594       0.13560712      -0.45726981
O        0.89187691       1.06277825      -0.15457172
C       -0.24063547       0.63685730       0.41040606
C       -0.73598731      -0.76512574      -1.35703839
C       -0.24156289      -0.33751469       1.54811809
C       -1.19319836       1.70698310       0.46582197
N       -1.97325198       2.54871989       0.55308660
H        2.21762432      -0.38024948       0.41852364
H        0.77820848      -0.69090301      -1.11123717
H        2.58827340       0.55927185      -1.10226337
H       -0.49016473      -1.54678735      -2.07988316
H       -1.17333885       0.05511360      -1.92489511
H       -1.52530089      -1.20604962      -0.74879881
H       -1.26103489      -0.51769319       1.88539637
H        0.35125684       0.04274236       2.38613460
H        0.18021948      -1.30375038       1.26847020
16
Frame=7 idx=006461 GeodesicLength=0.6112038163466612 rxn_smarts="[C:1]([O:2][C:3]([C:4]([H:11])([H:12])[H:13])([C:5]([H:14])([H:15])[H:16])[C:6]#[N:7])([H:8])([H:9])[H:10]>>[C:1](=[O+:2][C:3]([C:5]([H:14])([H:15])[H:16])=[C:6]=[N-:7])([H:8])[H:10].[C:4]([H:9])([H:11])([H:12])[H:13]"
C        1.83770106       0.14262539      -0.44472938
O        0.88206397       1.05737755      -0.17166543
C       -0.24969786       0.62505875       0.39749088
C       -0.74809445      -0.76724914      -1.35636933
C       -0.24243007      -0.34252193       1.54146409
C       -1.19312652       1.70384301       0.46446211
N       -1.95728498       2.55803685       0.56937433
H        2.23446992      -0.32855867       0.45329902
H        0.80360720      -0.71930580      -1.11115070
H        2.59467683       0.56652335      -1.09454189
H       -0.50997701      -1.55305497      -2.07709805
H       -1.17581281       0.05310639      -1.93200616
H       -1.55334616      -1.20125331      -0.76330279
H       -1.25765404      -0.51343831       1.89580401
H        0.36946208       0.03392476       2.36726039
H        0.16544285      -1.31511392       1.26170890
16
Frame=8 idx=006461 GeodesicLength=0.698041965191257 rxn_smarts="[C:1]([O:2][C:3]([C:4]([H:11])([H:12])[H:13])([C:5]([H:14])([H:15])[H:16])[C:6]#[N:7])([H:8])([H:9])[H:10]>>[C:1](=[O+:2][C:3]([C:5]([H:14])([H:15])[H:16])=[C:6]=[N-:7])([H:8])[H:10].[C:4]([H:9])([H:11])([H:12])[H:13]"
C        1.84822378       0.14983425      -0.43178630
O        0.87262439       1.05128798      -0.18880255
C       -0.25844178       0.61313569       0.38480035
C       -0.76091710      -0.76925731      -1.35552688
C       -0.24311438      -0.34783885       1.53476975
C       -1.19240042       1.70064431       0.46315703
N       -1.94042317       2.56680117       0.58486850
H        2.24965610      -0.27470196       0.48723059
H        0.82961614      -0.74766899      -1.11047534
H        2.60092669       0.57334686      -1.08676024
H       -0.52951223      -1.55911312      -2.07380301
H       -1.17862260       0.05115622      -1.93903324
H       -1.58173368      -1.19603522      -0.77782547
H       -1.25385853      -0.50948439       1.90575986
H        0.38713008       0.02447843       2.34840431
H        0.15084669      -1.32658507       1.25502264
16
Frame=9 idx=006461 GeodesicLength=0.7850685672401149 rxn_smarts="[C:1]([O:2][C:3]([C:4]([H:11])([H:12])[H:13])([C:5]([H:14])([H:15])[H:16])[C:6]#[N:7])([H:8])([H:9])[H:10]>>[C:1](=[O+:2][C:3]([C:5]([H:14])([H:15])[H:16])=[C:6]=[N-:7])([H:8])[H:10].[C:4]([H:9])([H:11])([H:12])[H:13]"
C        1.85863348       0.15731405      -0.41843753
O        0.86347495       1.04453010      -0.20614326
C       -0.26693808       0.60106592       0.37225097
C       -0.77455058      -0.77111232      -1.35458965
C       -0.24361807      -0.35345256       1.52798888
C       -1.19107465       1.69733940       0.46185908
N       -1.92256886       2.57505360       0.59982944
H        2.26315730      -0.21875355       0.52035102
H        0.85642730      -0.77615029      -1.10908553
H        2.60717560       0.57982397      -1.07876113
H       -0.54884951      -1.56499035      -2.06991386
H       -1.18183450       0.04923860      -1.94607572
H       -1.61053031      -1.19038534      -0.79238430
H       -1.24962898      -0.50585693       1.91526033
H        0.40428270       0.01447985       2.32949243
H        0.13644221      -1.33814411       1.24835883
16
Frame=10 idx=006461 GeodesicLength=0.8720968578622189 rxn_smarts="[C:1]([O:2][C:3]([C:4]([H:11])([H:12])[H:13])([C:5]([H:14])([H:15])[H:16])[C:6]#[N:7])([H:8])([H:9])[H:10]>>[C:1](=[O+:2][C:3]([C:5]([H:14])([H:15])[H:16])=[C:6]=[N-:7])([H:8])[H:10].[C:4]([H:9])([H:11])([H:12])[H:13]"
C        1.86892209       0.16510228      -0.40460483
O        0.85469408       1.03705628      -0.22357669
C       -0.27512204       0.58884844       0.35989070
C       -0.78901411      -0.77277744      -1.35347733
C       -0.24391997      -0.35941124       1.52113325
C       -1.18907431       1.69395554       0.46060760
N       -1.90387320       2.58275880       0.61399696
H        2.27483815      -0.16066065       0.55241449
H        0.88412259      -0.80467312      -1.10700091
H        2.61338585       0.58593050      -1.07055414
H       -0.56799896      -1.57072622      -2.06537790
H       -1.18536363       0.04742679      -1.95309653
H       -1.63979269      -1.18421361      -0.80694922
H       -1.24498024      -0.50254702       1.92433194
H        0.42101481       0.00379886       2.31057861
H        0.12216157      -1.34986820       1.24168401
16
Frame=11 idx=006461 GeodesicLength=0.9591474090384438 rxn_smarts="[C:1]([O:2][C:3]([C:4]([H:11])([H:12])[H:13])([C:5]([H:14])([H:15])[H:16])[C:6]#[N:7])([H:8])([H:9])[H:10]>>[C:1](=[O+:2][C:3]([C:5]([H:14])([H:15])[H:16])=[C:6]=[N-:7])([H:8])[H:10].[C:4]([H:9])([H:11])([H:12])[H:13]"
C        1.87909109       0.17328565      -0.39026420
O        0.84625131       1.02883843      -0.24115423
C       -0.28302681       0.57646790       0.34767791
C       -0.80435130      -0.77424406      -1.35221859
C       -0.24403644      -0.36572728       1.51417596
C       -1.18642607       1.69046230       0.45935380
N       -1.88419665       2.59002658       0.62756120
H        2.28457399      -0.10040085       0.58331117
H        0.91287373      -0.83329491      -1.10411934
H        2.61960637       0.59172062      -1.06206531
H       -0.58697448      -1.57638380      -2.06013547
H       -1.18922086       0.04568680      -1.96015432
H       -1.66955190      -1.17752459      -0.82153509
H       -1.23992624      -0.49957199       1.93296972
H        0.43734885      -0.00756813       2.29163490
H        0.10796542      -1.36177267       1.23496191
16
Frame=12 idx=006461 GeodesicLength=1.0462355472899962 rxn_smarts="[C:1]([O:2][C:3]([C:4]([H:11])([H:12])[H:13])([C:5]([H:14])([H:15])[H:16])[C:6]#[N:7])([H:8])([H:9])[H:10]>>[C:1](=[O+:2][C:3]([C:5]([H:14])([H:15])[H:16])=[C:6]=[N-:7])([H:8])[H:10].[C:4]([H:9])([H:11])([H:12])[H:13]"
C        1.88914790       0.18194849      -0.37537464
O        0.83814347       1.01984556      -0.25889824
C       -0.29065895       0.56390433       0.33559076
C       -0.82061798      -0.77548140      -1.35080872
C       -0.24396303      -0.37242703       1.50709437
C       -1.18311534       1.68684767       0.45808370
N       -1.86349601       2.59688443       0.64053255
H        2.29222078      -0.03797825       0.61291348
H        0.94284877      -0.86205470      -1.10035209
H        2.62588169       0.59725844      -1.05321870
H       -0.60582475      -1.58199887      -2.05410460
H       -1.19339876       0.04402590      -1.96727823
H       -1.69986994      -1.17026851      -0.83613929
H       -1.23446693      -0.49694654       1.94118107
H        0.45334603      -0.01967052       2.27263318
H        0.09382303      -1.37388898       1.22814541
16
Frame=13 idx=006461 GeodesicLength=1.133473391673267 rxn_smarts="[C:1]([O:2][C:3]([C:4]([H:11])([H:12])[H:13])([C:5]([H:14])([H:15])[H:16])[C:6]#[N:7])([H:8])([H:9])[H:10]>>[C:1](=[O+:2][C:3]([C:5]([H:14])([H:15])[H:16])=[C:6]=[N-:7])([H:8])[H:10].[C:4]([H:9])([H:11])([H:12])[H:13]"
C        1.89911397       0.19119118      -0.35991876
O        0.83035321       1.01005167      -0.27689684
C       -0.29804386       0.55112854       0.32358961
C       -0.83790904      -0.77642287      -1.34927583
C       -0.24368287      -0.37953223       1.49985235
C       -1.17911404       1.68309811       0.45681025
N       -1.84177501       2.60330791       0.65287099
H        2.29766446       0.02650082       0.64117392
H        0.97425049      -0.89104027      -1.09553711
H        2.63232507       0.60267130      -1.04386399
H       -0.62465695      -1.58757069      -2.04719649
H       -1.19796309       0.04246124      -1.97449502
H       -1.73081991      -1.16239822      -0.85075687
H       -1.22856056      -0.49466896       1.94899181
H        0.46909953      -0.03254323       2.25348716
H        0.07971861      -1.38623430       1.22116483
16
Frame=14 idx=006461 GeodesicLength=1.2207462552526136 rxn_smarts="[C:1]([O:2][C:3]([C:4]([H:11])([H:12])[H:13])([C:5]([H:14])([H:15])[H:16])[C:6]#[N:7])([H:8])([H:9])[H:10]>>[C:1](=[O+:2][C:3]([C:5]([H:14])([H:15])[H:16])=[C:6]=[N-:7])([H:8])[H:10].[C:4]([H:9])([H:11])([H:12])[H:13]"
C        1.90895123       0.20111645      -0.34384965
O        0.82288777       0.99939610      -0.29512540
C       -0.30518480       0.53812782       0.31165890
C       -0.85624166      -0.77708077      -1.34760249
C       -0.24321199      -0.38707424       1.49243572
C       -1.17442244       1.67920229       0.45548198
N       -1.81884150       2.60941666       0.66468682
H        2.30068120       0.09308620       0.66787908
H        1.00725444      -0.92022411      -1.08957918
H        2.63890798       0.60801852      -1.03396365
H       -0.64347474      -1.59317523      -2.03935534
H       -1.20287166       0.04095753      -1.98183592
H       -1.76243560      -1.15390080      -0.86540093
H       -1.22223646      -0.49276365       1.95639098
H        0.48464269      -0.04625426       2.23418672
H        0.06559553      -1.39884852       1.21399235
16
Frame=15 idx=006461 GeodesicLength=1.3080625239701573 rxn_smarts="[C:1]([O:2][C:3]([C:4]([H:11])([H:12])[H:13])([C:5]([H:14])([H:15])[H:16])[C:6]#[N:7])([H:8])([H:9])[H:10]>>[C:1](=[O+:2][C:3]([C:5]([H:14])([H:15])[H:16])=[C:6]=[N-:7])([H:8])[H:10].[C:4]([H:9])([H:11])([H:12])[H:13]"
C        1.91864864       0.21184078      -0.32714913
O        0.81574707       0.98782236      -0.31362010
C       -0.31209276       0.52487740       0.29977159
C       -0.87568180      -0.77741262      -1.34579770
C       -0.24254252      -0.39508158       1.48481840
C       -1.16900664       1.67514939       0.45409232
N       -1.79462435       2.61521899       0.67595412
H        2.30109930       0.16169954       0.69291247
H        1.04205709      -0.94964385      -1.08231915
H        2.64569066       0.61343095      -1.02339950
H       -0.66237060      -1.59882784      -2.03050575
H       -1.20815305       0.03951569      -1.98932134
H       -1.79477614      -1.14473065      -0.88007189
H       -1.21546972      -0.49123660       1.96339507
H        0.50005323      -0.06086396       2.21466502
H        0.05142159      -1.41175800       1.20657559
16
Frame=16 idx=006461 GeodesicLength=1.3954509204474832 rxn_smarts="[C:1]([O:2][C:3]([C:4]([H:11])([H:12])[H:13])([C:5]([H:14])([H:15])[H:16])[C:6]#[N:7])([H:8])([H:9])[H:10]>>[C:1](=[O+:2][C:3]([C:5]([H:14])([H:15])[H:16])=[C:6]=[N-:7])([H:8])[H:10].[C:4]([H:9])([H:11])([H:12])[H:13]"
C        1.92818045       0.22350140      -0.30979569
O        0.80892596       0.97526388      -0.33242820
C       -0.31879033       0.51134496       0.28788954
C       -0.89630298      -0.77739240      -1.34387086
C       -0.24167141      -0.40359069       1.47696473
C       -1.16284695       1.67092250       0.45261334
N       -1.76895201       2.62077080       0.68670543
H        2.29871144       0.23225976       0.71615600
H        1.07889493      -0.97932183      -1.07356230
H        2.65271142       0.61908000      -1.01205273
H       -0.68144128      -1.60456838      -2.02055328
H       -1.21383031       0.03810938      -1.99698780
H       -1.82791752      -1.13484384      -0.89477992
H       -1.20824115      -0.49011167       1.97000553
H        0.51539868      -0.07643122       2.19484043
H        0.03717107      -1.42499266       1.19885577
