13
Frame=0 idx=001189 GeodesicLength=0.0 rxn_smarts="[O:1]([C:2]12[C:3]([H:8])([H:9])[N:4]([C:5]1([H:10])[H:11])[C:6]2([H:12])[H:13])[H:7]>>[O:1]([C:2]1([C:3][H:9])[C:5]([H:10])([H:11])[N:4]([H:8])[C:6]1([H:12])[H:13])[H:7]"
O        1.27827299      -0.37376679       1.48322079
C        0.41010990      -0.16287080       0.43157144
C       -0.30999478      -1.35763650      -0.22353826
N       -0.81787671       0.42592905      -0.96844918
C       -0.83659048       0.70216887       0.52737071
C        0.67833867       0.54767917      -0.89865687
H        1.87109288      -1.09304586       1.24802308
H       -0.87024133      -0.72110901      -1.25070564
H       -1.16156117      -1.63998509       0.41902135
H       -0.72088182       1.77678501       0.70032707
H       -1.69723616       0.30701355       1.06283468
H        1.20475719      -0.00707261      -1.67413572
H        0.97181079       1.59591095      -0.85688344
13
Frame=1 idx=001189 GeodesicLength=0.07614448995215993 rxn_smarts="[O:1]([C:2]12[C:3]([H:8])([H:9])[N:4]([C:5]1([H:10])[H:11])[C:6]2([H:12])[H:13])[H:7]>>[O:1]([C:2]1([C:3][H:9])[C:5]([H:10])([H:11])[N:4]([H:8])[C:6]1([H:12])[H:13])[H:7]"
O        1.26537250      -0.39094666       1.48655246
C        0.40508489      -0.15676121       0.43277492
C       -0.30543220      -1.35843815      -0.21088071
N       -0.81748376       0.43077175      -0.97004707
C       -0.84159132       0.70787487       0.52428905
C        0.67852196       0.54899457      -0.89798469
H        1.88107246      -1.08309870       1.22980952
H       -0.87477643      -0.72465340      -1.26398442
H       -1.15062993      -1.65117686       0.43450006
H       -0.72238447       1.77952406       0.71048514
H       -1.70718688       0.31372885       1.05302321
H        1.20230057      -0.00865141      -1.67349441
H        0.98713262       1.59283228      -0.85504307
13
Frame=2 idx=001189 GeodesicLength=0.15226261299392854 rxn_smarts="[O:1]([C:2]12[C:3]([H:8])([H:9])[N:4]([C:5]1([H:10])[H:11])[C:6]2([H:12])[H:13])[H:7]>>[O:1]([C:2]1([C:3][H:9])[C:5]([H:10])([H:11])[N:4]([H:8])[C:6]1([H:12])[H:13])[H:7]"
O        1.25298729      -0.40782334       1.48905073
C        0.40018935      -0.15086646       0.43376086
C       -0.30094581      -1.35921044      -0.19837415
N       -0.81715439       0.43585320      -0.97158298
C       -0.84638660       0.71345452       0.52131241
C        0.67865296       0.55028964      -0.89746584
H        1.89004563      -1.07269479       1.21317532
H       -0.87954848      -0.72789346      -1.27786686
H       -1.13939754      -1.66241633       0.45004747
H       -0.72378994       1.78190376       0.72109707
H       -1.71678894       0.32017772       1.04332115
H        1.19953238      -0.01020540      -1.67320101
H        1.00260408       1.58943136      -0.85327418
13
Frame=3 idx=001189 GeodesicLength=0.22836761481659965 rxn_smarts="[O:1]([C:2]12[C:3]([H:8])([H:9])[N:4]([C:5]1([H:10])[H:11])[C:6]2([H:12])[H:13])[H:7]>>[O:1]([C:2]1([C:3][H:9])[C:5]([H:10])([H:11])[N:4]([H:8])[C:6]1([H:12])[H:13])[H:7]"
O        1.24109646      -0.42432626       1.49079021
C        0.39540265      -0.14517796       0.43455809
C       -0.29653682      -1.35995757      -0.18598875
N       -0.81688232       0.44116879      -0.97305853
C       -0.85099762       0.71891917       0.51843664
C        0.67873694       0.55155389      -0.89707986
H        1.89811758      -1.06191597       1.19799083
H       -0.88456066      -0.73080453      -1.29238482
H       -1.12786478      -1.67369957       0.46567223
H       -0.72513012       1.78392681       0.73214034
H       -1.72607734       0.32638257       1.03371507
H        1.19647013      -0.01175665      -1.67321339
H        1.01822589       1.58568728      -0.85157804
13
Frame=4 idx=001189 GeodesicLength=0.3044711822700858 rxn_smarts="[O:1]([C:2]12[C:3]([H:8])([H:9])[N:4]([C:5]1([H:10])[H:11])[C:6]2([H:12])[H:13])[H:7]>>[O:1]([C:2]1([C:3][H:9])[C:5]([H:10])([H:11])[N:4]([H:8])[C:6]1([H:12])[H:13])[H:7]"
O        1.22969594      -0.44038499       1.49182916
C        0.39070864      -0.13968735       0.43519068
C       -0.29220326      -1.36068495      -0.17369708
N       -0.81666086       0.44671562      -0.97447474
C       -0.85544380       0.72427951       0.51566044
C        0.67877806       0.55278083      -0.89680964
H        1.90536017      -1.05084851       1.18415162
H       -0.88981158      -0.73336606      -1.30757230
H       -1.11602999      -1.68502720       0.48138700
H       -0.72643600       1.78559636       0.74359492
H       -1.73508202       0.33236290       1.02419661
H        1.19312981      -0.01332100      -1.67349805
H        1.03399490       1.58158483      -0.84995862
13
Frame=5 idx=001189 GeodesicLength=0.38057135435093414 rxn_smarts="[O:1]([C:2]12[C:3]([H:8])([H:9])[N:4]([C:5]1([H:10])[H:11])[C:6]2([H:12])[H:13])[H:7]>>[O:1]([C:2]1([C:3][H:9])[C:5]([H:10])([H:11])[N:4]([H:8])[C:6]1([H:12])[H:13])[H:7]"
O        1.21877833      -0.45593468       1.49224304
C        0.38608951      -0.13438507       0.43568263
C       -0.28794788      -1.36139637      -0.16146996
N       -0.81648117       0.45248977      -0.97583182
C       -0.85974459       0.72954579       0.51297999
C        0.67878024       0.55396351      -0.89663592
H        1.91185155      -1.03957155       1.17153147
H       -0.89530080      -0.73555365      -1.32346210
H       -1.10388824      -1.69639819       0.49720685
H       -0.72773956       1.78691424       0.75543825
H       -1.74383429       0.33813570       1.01475083
H        1.18952682      -0.01491396      -1.67401449
H        1.04991007       1.57710446      -0.84841879
13
Frame=6 idx=001189 GeodesicLength=0.4566845737488634 rxn_smarts="[O:1]([C:2]12[C:3]([H:8])([H:9])[N:4]([C:5]1([H:10])[H:11])[C:6]2([H:12])[H:13])[H:7]>>[O:1]([C:2]1([C:3][H:9])[C:5]([H:10])([H:11])[N:4]([H:8])[C:6]1([H:12])[H:13])[H:7]"
O        1.20834011      -0.47092832       1.49208415
C        0.38153331      -0.12926474       0.43605086
C       -0.28376712      -1.36209762      -0.14927997
N       -0.81633943       0.45848842      -0.97713107
C       -0.86391484       0.73472538       0.51039518
C        0.67874558       0.55509446      -0.89654706
H        1.91764606      -1.02814255       1.16004940
H       -0.90102637      -0.73733671      -1.34009936
H       -1.09143401      -1.70781262       0.51315060
H       -0.72906531       1.78787960       0.76765564
H       -1.75235601       0.34371529       1.00537201
H        1.18567193      -0.01655226      -1.67473981
H        1.06596610       1.57223169      -0.84696055
13
Frame=7 idx=001189 GeodesicLength=0.5328124088545652 rxn_smarts="[O:1]([C:2]12[C:3]([H:8])([H:9])[N:4]([C:5]1([H:10])[H:11])[C:6]2([H:12])[H:13])[H:7]>>[O:1]([C:2]1([C:3][H:9])[C:5]([H:10])([H:11])[N:4]([H:8])[C:6]1([H:12])[H:13])[H:7]"
O        1.19837179      -0.48532536       1.49142144
C        0.37702611      -0.12431901       0.43631358
C       -0.27966058      -1.36279321      -0.13709875
N       -0.81622917       0.46470771      -0.97837148
C       -0.86796979       0.73982482       0.50790428
C        0.67867665       0.55616597      -0.89652845
H        1.92280887      -1.01661037       1.14960325
H       -0.90699043      -0.73868098      -1.35752578
H       -1.07865910      -1.71926902       0.52923456
H       -0.73043902       1.78849156       0.78022820
H       -1.76067127       0.34911446       0.99604886
H        1.18157495      -0.01825224      -1.67564251
H        1.08216099       1.56694567      -0.84558720
13
Frame=8 idx=001189 GeodesicLength=0.6089593942220548 rxn_smarts="[O:1]([C:2]12[C:3]([H:8])([H:9])[N:4]([C:5]1([H:10])[H:11])[C:6]2([H:12])[H:13])[H:7]>>[O:1]([C:2]1([C:3][H:9])[C:5]([H:10])([H:11])[N:4]([H:8])[C:6]1([H:12])[H:13])[H:7]"
O        1.18886268      -0.49909706       1.49031099
C        0.37255711      -0.11954167       0.43648607
C       -0.27562400      -1.36348765      -0.12489819
N       -0.81614609       0.47114471      -0.97955149
C       -0.87192178       0.74484992       0.50550683
C        0.67857547       0.55717050      -0.89656919
H        1.92739536      -1.00500983       1.14010968
H       -0.91319027      -0.73955668      -1.37578572
H       -1.06556023      -1.73076356       0.54547430
H       -0.73188210       1.78874759       0.79314256
H       -1.76879909       0.35434556       0.98677460
H        1.17724333      -0.02003020      -1.67669968
H        1.09848961       1.56122837      -0.84430077
13
Frame=9 idx=001189 GeodesicLength=0.6851282132120993 rxn_smarts="[O:1]([C:2]12[C:3]([H:8])([H:9])[N:4]([C:5]1([H:10])[H:11])[C:6]2([H:12])[H:13])[H:7]>>[O:1]([C:2]1([C:3][H:9])[C:5]([H:10])([H:11])[N:4]([H:8])[C:6]1([H:12])[H:13])[H:7]"
O        1.17982058      -0.51221080       1.48879830
C        0.36811738      -0.11492752       0.43658067
C       -0.27165619      -1.36418629      -0.11265298
N       -0.81608350       0.47779821      -0.98066887
C       -0.87578198       0.74980546       0.50320445
C        0.67844149       0.55810166      -0.89665955
H        1.93143682      -0.99337995       1.13151338
H       -0.91962907      -0.73991896      -1.39493263
H       -1.05212012      -1.74229878       0.56189040
H       -0.73341608       1.78864300       0.80638565
H       -1.77675501       0.35941517       0.97754292
H        1.17268062      -0.02189914      -1.67788908
H        1.11494507       1.55505796      -0.84311266
13
Frame=10 idx=001189 GeodesicLength=0.7613127321493222 rxn_smarts="[O:1]([C:2]12[C:3]([H:8])([H:9])[N:4]([C:5]1([H:10])[H:11])[C:6]2([H:12])[H:13])[H:7]>>[O:1]([C:2]1([C:3][H:9])[C:5]([H:10])([H:11])[N:4]([H:8])[C:6]1([H:12])[H:13])[H:7]"
O        1.17121834      -0.52466008       1.48696320
C        0.36369500      -0.11047012       0.43661215
C       -0.26775460      -1.36489258      -0.10033139
N       -0.81603852       0.48466149      -0.98172212
C       -0.87956212       0.75469611       0.50099494
C        0.67827784       0.55894925      -0.89678833
H        1.93500832      -0.98172954       1.12370362
H       -0.92630407      -0.73973182      -1.41501316
H       -1.03833953      -1.75386757       0.57850058
H       -0.73506104       1.78817609       0.81994106
H       -1.78455871       0.36433442       0.96834346
H        1.16789420      -0.02388059      -1.67918518
H        1.13152489       1.54841494      -0.84201884
13
Frame=11 idx=001189 GeodesicLength=0.8375167342199509 rxn_smarts="[O:1]([C:2]12[C:3]([H:8])([H:9])[N:4]([C:5]1([H:10])[H:11])[C:6]2([H:12])[H:13])[H:7]>>[O:1]([C:2]1([C:3][H:9])[C:5]([H:10])([H:11])[N:4]([H:8])[C:6]1([H:12])[H:13])[H:7]"
O        1.16304846      -0.53643990       1.48485777
C        0.35928181      -0.10616584       0.43659021
C       -0.26391486      -1.36561234      -0.08790550
N       -0.81600780       0.49173221      -0.98270827
C       -0.88327092       0.75952479       0.49887982
C        0.67808441       0.55970456      -0.89694894
H        1.93815179      -0.97006333       1.11662438
H       -0.93321769      -0.73894347      -1.43608582
H       -1.02420492      -1.76546620       0.59532608
H       -0.73683402       1.78734028       0.83379820
H       -1.79222376       0.36910834       0.95917045
H        1.16288409      -0.02599244      -1.68057104
H        1.14822339       1.54127333      -0.84102732
13
Frame=12 idx=001189 GeodesicLength=0.913733190590023 rxn_smarts="[O:1]([C:2]12[C:3]([H:8])([H:9])[N:4]([C:5]1([H:10])[H:11])[C:6]2([H:12])[H:13])[H:7]>>[O:1]([C:2]1([C:3][H:9])[C:5]([H:10])([H:11])[N:4]([H:8])[C:6]1([H:12])[H:13])[H:7]"
O        1.15530383      -0.54754523       1.48253337
C        0.35487089      -0.10201027       0.43652417
C       -0.26013397      -1.36634981      -0.07534671
N       -0.81598838       0.49900587      -0.98362419
C       -0.88691660       0.76429347       0.49686018
C        0.67786029       0.56035753      -0.89713577
H        1.94090499      -0.95838866       1.11021895
H       -0.94036891      -0.73750528      -1.45820883
H       -1.00970353      -1.77709290       0.61238812
H       -0.73875088       1.78613063       0.84794488
H       -1.79976123       0.37374301       0.95001990
H        1.15765052      -0.02825320      -1.68203064
H        1.16503296       1.53361485      -0.84014342
13
Frame=13 idx=001189 GeodesicLength=0.9899552435785564 rxn_smarts="[O:1]([C:2]12[C:3]([H:8])([H:9])[N:4]([C:5]1([H:10])[H:11])[C:6]2([H:12])[H:13])[H:7]>>[O:1]([C:2]1([C:3][H:9])[C:5]([H:10])([H:11])[N:4]([H:8])[C:6]1([H:12])[H:13])[H:7]"
O        1.14797379      -0.55796747       1.48004656
C        0.35045591      -0.09799965       0.43642638
C       -0.25640468      -1.36711084      -0.06262117
N       -0.81597564       0.50647464      -0.98446584
C       -0.89050753       0.76900261       0.49493784
C        0.67760605       0.56089696      -0.89734054
H        1.94331408      -0.94670943       1.10442012
H       -0.94775911      -0.73535326      -1.48144553
H       -0.99482726      -1.78874327       0.62970779
H       -0.74083160       1.78454028       0.86236743
H       -1.80718331       0.37824049       0.94088577
H        1.15219368      -0.03068438      -1.68354371
H        1.18194562       1.52541332      -0.83937511
13
Frame=14 idx=001189 GeodesicLength=1.0661818976921085 rxn_smarts="[O:1]([C:2]12[C:3]([H:8])([H:9])[N:4]([C:5]1([H:10])[H:11])[C:6]2([H:12])[H:13])[H:7]>>[O:1]([C:2]1([C:3][H:9])[C:5]([H:10])([H:11])[N:4]([H:8])[C:6]1([H:12])[H:13])[H:7]"
O        1.14105006      -0.56771661       1.47744727
C        0.34603129      -0.09413181       0.43630320
C       -0.25272198      -1.36790029      -0.04969901
N       -0.81596895       0.51413488      -0.98522823
C       -0.89404949       0.77365269       0.49311487
C        0.67731961       0.56131123      -0.89756130
H        1.94541257      -0.93501271       1.09919012
H       -0.95538816      -0.73242182      -1.50586679
H       -0.97955693      -1.80041339       0.64730987
H       -0.74308929       1.78256131       0.87705627
H       -1.81449838       0.38260222       0.93176585
H        1.14650710      -0.03330774      -1.68509950
H        1.19895254       1.51664204      -0.83873263
13
Frame=15 idx=001189 GeodesicLength=1.1424005457073994 rxn_smarts="[O:1]([C:2]12[C:3]([H:8])([H:9])[N:4]([C:5]1([H:10])[H:11])[C:6]2([H:12])[H:13])[H:7]>>[O:1]([C:2]1([C:3][H:9])[C:5]([H:10])([H:11])[N:4]([H:8])[C:6]1([H:12])[H:13])[H:7]"
O        1.13453034      -0.57679079       1.47477854
C        0.34159372      -0.09040530       0.43616286
C       -0.24907780      -1.36872397      -0.03654833
N       -0.81596591       0.52197884      -0.98590617
C       -0.89754753       0.77824234       0.49139448
C        0.67699954       0.56158766      -0.89779458
H        1.94722911      -0.92329331       1.09449506
H       -0.96325549      -0.72863782      -1.53154450
H       -0.96387999      -1.81209867       0.66521759
H       -0.74553972       1.78018405       0.89200075
H       -1.82171212       0.38682676       0.92265891
H        1.14058473      -0.03614605      -1.68668568
H        1.21604113       1.50727625      -0.83822894
13
Frame=16 idx=001189 GeodesicLength=1.2186009557956416 rxn_smarts="[O:1]([C:2]12[C:3]([H:8])([H:9])[N:4]([C:5]1([H:10])[H:11])[C:6]2([H:12])[H:13])[H:7]>>[O:1]([C:2]1([C:3][H:9])[C:5]([H:10])([H:11])[N:4]([H:8])[C:6]1([H:12])[H:13])[H:7]"
O        1.12840920      -0.58519040       1.47208527
C        0.33713950      -0.08681916       0.43601379
C       -0.24546384      -1.36958810      -0.02313473
N       -0.81596495       0.52999825      -0.98649391
C       -0.90100751       0.78276871       0.48977984
C        0.67664324       0.56171183      -0.89803755
H        1.94879465      -0.91154136       1.09029911
H       -0.97135910      -0.72391969      -1.55855624
H       -0.94778015      -1.82379489       0.68345782
H       -0.74819823       1.77739942       0.90718920
H       -1.82883116       0.39091182       0.91356364
H        1.13441872      -0.03922417      -1.68829013
H        1.23319963       1.49728773      -0.83787611
