14
Frame=0 idx=003353 GeodesicLength=0.0 rxn_smarts="[O:1]([C:2]([C@@:3]1([H:10])[C:4]([H:11])([H:12])[C@:5]1([O:6][H:14])[H:13])([H:8])[H:9])[H:7]>>[O:1]([C:2]([C@@:3]([C:4]([H:11])([H:12])[H:13])([C:5][O:6][H:14])[H:10])([H:8])[H:9])[H:7]"
O        1.94552476      -1.18912220      -0.54363277
C        1.03845293      -0.13959425      -0.79221736
C        0.33823582       0.32119913       0.46411542
C       -0.84356003       1.22893765       0.35893570
C       -0.78406602      -0.51484899       1.05743773
O       -1.41036972      -1.34990059       0.18509340
H        1.50566971      -1.86612553      -0.02416200
H        0.31787919      -0.41729111      -1.57964666
H        1.62530057       0.67945052      -1.20983355
H        1.06107644       0.62735529       1.21575131
H       -1.37292186       1.24788279      -0.58730121
H       -0.82640381       2.15991745       0.91431580
H       -1.54403554       0.51898609       1.25213792
H       -1.05078247      -1.30684631      -0.71099372
14
Frame=1 idx=003353 GeodesicLength=0.049641302157634376 rxn_smarts="[O:1]([C:2]([C@@:3]1([H:10])[C:4]([H:11])([H:12])[C@:5]1([O:6][H:14])[H:13])([H:8])[H:9])[H:7]>>[O:1]([C:2]([C@@:3]([C:4]([H:11])([H:12])[H:13])([C:5][O:6][H:14])[H:10])([H:8])[H:9])[H:7]"
O        1.94552257      -1.18841917      -0.54281713
C        1.04061428      -0.13640792      -0.78991344
C        0.33871528       0.32141686       0.46662689
C       -0.84628297       1.22702287       0.35775096
C       -0.78397198      -0.51488759       1.05427872
O       -1.39298820      -1.36988199       0.19209860
H        1.50023318      -1.87012582      -0.03412777
H        0.32143351      -0.41069377      -1.57968717
H        1.62933295       0.68386828      -1.20268776
H        1.05822443       0.62759823       1.22150505
H       -1.37228284       1.24353540      -0.59073920
H       -0.81788092       2.16657242       0.89800550
H       -1.54895999       0.52561097       1.26668660
H       -1.07170930      -1.30520876      -0.71697984
14
Frame=2 idx=003353 GeodesicLength=0.09915257366916881 rxn_smarts="[O:1]([C:2]([C@@:3]1([H:10])[C:4]([H:11])([H:12])[C@:5]1([O:6][H:14])[H:13])([H:8])[H:9])[H:7]>>[O:1]([C:2]([C@@:3]([C:4]([H:11])([H:12])[H:13])([C:5][O:6][H:14])[H:10])([H:8])[H:9])[H:7]"
O        1.94543423      -1.18752926      -0.54203105
C        1.04261232      -0.13321227      -0.78755496
C        0.33906552       0.32154645       0.46913583
C       -0.84887876       1.22519479       0.35662769
C       -0.78421515      -0.51497428       1.05060681
O       -1.37468938      -1.38964055       0.19827045
H        1.49506792      -1.87379435      -0.04406015
H        0.32488440      -0.40428290      -1.57953815
H        1.63300656       0.68835281      -1.19542047
H        1.05506944       0.62753787       1.22736811
H       -1.37125893       1.23947448      -0.59413122
H       -0.80915141       2.17298618       0.88154641
H       -1.55360522       0.53249661       1.28123769
H       -1.09334152      -1.30415557      -0.72205699
14
Frame=3 idx=003353 GeodesicLength=0.14862272010993893 rxn_smarts="[O:1]([C:2]([C@@:3]1([H:10])[C:4]([H:11])([H:12])[C@:5]1([O:6][H:14])[H:13])([H:8])[H:9])[H:7]>>[O:1]([C:2]([C@@:3]([C:4]([H:11])([H:12])[H:13])([C:5][O:6][H:14])[H:10])([H:8])[H:9])[H:7]"
O        1.94537509      -1.18650251      -0.54128243
C        1.04450237      -0.13000096      -0.78517462
C        0.33928557       0.32155450       0.47163575
C       -0.85141118       1.22349224       0.35554771
C       -0.78483438      -0.51512647       1.04645348
O       -1.35567116      -1.40900325       0.20359955
H        1.49024949      -1.87722291      -0.05399586
H        0.32826639      -0.39797857      -1.57925211
H        1.63639122       0.69291264      -1.18808399
H        1.05163547       0.62707736       1.23334442
H       -1.36995696       1.23578926      -0.59750941
H       -0.80031009       2.17916286       0.86494604
H       -1.55798600       0.53969311       1.29587455
H       -1.11553584      -1.30384730      -0.72610308
14
Frame=4 idx=003353 GeodesicLength=0.19822106377101723 rxn_smarts="[O:1]([C:2]([C@@:3]1([H:10])[C:4]([H:11])([H:12])[C@:5]1([O:6][H:14])[H:13])([H:8])[H:9])[H:7]>>[O:1]([C:2]([C@@:3]([C:4]([H:11])([H:12])[H:13])([C:5][O:6][H:14])[H:10])([H:8])[H:9])[H:7]"
O        1.94547844      -1.18531668      -0.54061508
C        1.04639201      -0.12674398      -0.78285420
C        0.33941517       0.32144130       0.47416752
C       -0.85391731       1.22190782       0.35450823
C       -0.78594664      -0.51536439       1.04191532
O       -1.33628091      -1.42791486       0.20811782
H        1.48584404      -1.88038268      -0.06386290
H        0.33160374      -0.39173926      -1.57901961
H        1.63970488       0.69759357      -1.18079758
H        1.04804988       0.62622980       1.23956158
H       -1.36848196       1.23244789      -0.60097979
H       -0.79131502       2.18510336       0.84823462
H       -1.56218531       0.54719503       1.31076753
H       -1.13836102      -1.30445693      -0.72914346
14
Frame=5 idx=003353 GeodesicLength=0.24785516131408283 rxn_smarts="[O:1]([C:2]([C@@:3]1([H:10])[C:4]([H:11])([H:12])[C@:5]1([O:6][H:14])[H:13])([H:8])[H:9])[H:7]>>[O:1]([C:2]([C@@:3]([C:4]([H:11])([H:12])[H:13])([C:5][O:6][H:14])[H:10])([H:8])[H:9])[H:7]"
O        1.94567398      -1.18397256      -0.54001113
C        1.04824831      -0.12343425      -0.78055415
C        0.33942752       0.32120592       0.47670367
C       -0.85638537       1.22043906       0.35349385
C       -0.78749815      -0.51568117       1.03692289
O       -1.31651791      -1.44630769       0.21181028
H        1.48178470      -1.88328869      -0.07371615
H        0.33491636      -0.38553263      -1.57878210
H        1.64288710       0.70239597      -1.17346789
H        1.04423607       0.62499431       1.24595830
H       -1.36679834       1.22943046      -0.60450580
H       -0.78217441       2.19079465       0.83139015
H       -1.56609255       0.55501427       1.32588655
H       -1.16170730      -1.30605765      -0.73112849
14
Frame=6 idx=003353 GeodesicLength=0.2975163437280013 rxn_smarts="[O:1]([C:2]([C@@:3]1([H:10])[C:4]([H:11])([H:12])[C@:5]1([O:6][H:14])[H:13])([H:8])[H:9])[H:7]>>[O:1]([C:2]([C@@:3]([C:4]([H:11])([H:12])[H:13])([C:5][O:6][H:14])[H:10])([H:8])[H:9])[H:7]"
O        1.94595328      -1.18247601      -0.53946712
C        1.05008200      -0.12006064      -0.77826988
C        0.33931685       0.32085090       0.47923529
C       -0.85882149       1.21908761       0.35249224
C       -0.78947299      -0.51607532       1.03146500
O       -1.29647633      -1.46412426       0.21469004
H        1.47803949      -1.88595865      -0.08358473
H        0.33823181      -0.37932002      -1.57855217
H        1.64596121       0.70732961      -1.16606397
H        1.04017698       0.62337721       1.25252237
H       -1.36491435       1.22672107      -0.60809176
H       -0.77290312       2.19623006       0.81441273
H       -1.56965826       0.56315576       1.34124886
H       -1.18551505      -1.30873731      -0.73203690
14
Frame=7 idx=003353 GeodesicLength=0.34719706976164194 rxn_smarts="[O:1]([C:2]([C@@:3]1([H:10])[C:4]([H:11])([H:12])[C@:5]1([O:6][H:14])[H:13])([H:8])[H:9])[H:7]>>[O:1]([C:2]([C@@:3]([C:4]([H:11])([H:12])[H:13])([C:5][O:6][H:14])[H:10])([H:8])[H:9])[H:7]"
O        1.94631043      -1.18083063      -0.53897852
C        1.05190707      -0.11661206      -0.77599700
C        0.33908246       0.32038017       0.48175480
C       -0.86123083       1.21784957       0.35149081
C       -0.79185250      -0.51654503       1.02553716
O       -1.27624924      -1.48131936       0.21677669
H        1.47457796      -1.88840313      -0.09349095
H        0.34157659      -0.37306363      -1.57834424
H        1.64895802       0.71240200      -1.15855778
H        1.03586610       0.62138979       1.25924256
H       -1.36284001       1.22429687      -0.61174497
H       -0.76351427       2.20139793       0.79730236
H       -1.57284133       0.57161357       1.35686279
H       -1.20975045      -1.31255605      -0.73185373
14
Frame=8 idx=003353 GeodesicLength=0.3968992811580483 rxn_smarts="[O:1]([C:2]([C@@:3]1([H:10])[C:4]([H:11])([H:12])[C@:5]1([O:6][H:14])[H:13])([H:8])[H:9])[H:7]>>[O:1]([C:2]([C@@:3]([C:4]([H:11])([H:12])[H:13])([C:5][O:6][H:14])[H:10])([H:8])[H:9])[H:7]"
O        1.94674200      -1.17904393      -0.53853853
C        1.05374033      -0.11307767      -0.77373319
C        0.33872670       0.31980125       0.48425668
C       -0.86361850       1.21672446       0.35047731
C       -0.79461437      -0.51708816       1.01914375
O       -1.25593011      -1.49785759       0.21809629
H        1.47136636      -1.89063949      -0.10346205
H        0.34497862      -0.36672680      -1.57817727
H        1.65191347       0.71762136      -1.15092680
H        1.03130208       0.61904981       1.26611088
H       -1.36058539       1.22213888      -0.61547640
H       -0.75402769       2.20629046       0.78006710
H       -1.57561004       0.58037858       1.37273061
H       -1.23438346      -1.31757117      -0.73056837
14
Frame=9 idx=003353 GeodesicLength=0.44660419564593035 rxn_smarts="[O:1]([C:2]([C@@:3]1([H:10])[C:4]([H:11])([H:12])[C@:5]1([O:6][H:14])[H:13])([H:8])[H:9])[H:7]>>[O:1]([C:2]([C@@:3]([C:4]([H:11])([H:12])[H:13])([C:5][O:6][H:14])[H:10])([H:8])[H:9])[H:7]"
O        1.94724467      -1.17712415      -0.53814714
C        1.05559644      -0.10945351      -0.77147168
C        0.33825019       0.31911554       0.48672958
C       -0.86599277       1.21570206       0.34944119
C       -0.79773220      -0.51769599       1.01228154
O       -1.23559218      -1.51369518       0.21867162
H        1.46838374      -1.89266714      -0.11351390
H        0.34846600      -0.36027523      -1.57805409
H        1.65485537       0.72297762      -1.14314440
H        1.02648069       0.61636423       1.27310187
H       -1.35816195       1.22022299      -0.61928517
H       -0.74446241       2.21088572       0.76270994
H       -1.57794342       0.58943178       1.38883885
H       -1.25939218      -1.32378873      -0.72815819
14
Frame=10 idx=003353 GeodesicLength=0.496325917188586 rxn_smarts="[O:1]([C:2]([C@@:3]1([H:10])[C:4]([H:11])([H:12])[C@:5]1([O:6][H:14])[H:13])([H:8])[H:9])[H:7]>>[O:1]([C:2]([C@@:3]([C:4]([H:11])([H:12])[H:13])([C:5][O:6][H:14])[H:10])([H:8])[H:9])[H:7]"
O        1.94781450      -1.17508332      -0.53779531
C        1.05749372      -0.10572854      -0.76921282
C        0.33766062       0.31833708       0.48917174
C       -0.86835492       1.21478732       0.34837103
C       -0.80117716      -0.51836584       1.00496669
O       -1.21532589      -1.52881599       0.21853233
H        1.46559033      -1.89451083      -0.12367900
H        0.35206484      -0.35367618      -1.57799930
H        1.65782359       0.72848154      -1.13519540
H        1.02140923       0.61336181       1.28021425
H       -1.35557536       1.21853725      -0.62318795
H       -0.73484410       2.21518410       0.74525418
H       -1.57982709       0.59875939       1.40517509
H       -1.28475234      -1.33126778      -0.72461551
14
Frame=11 idx=003353 GeodesicLength=0.5460747243576165 rxn_smarts="[O:1]([C:2]([C@@:3]1([H:10])[C:4]([H:11])([H:12])[C@:5]1([O:6][H:14])[H:13])([H:8])[H:9])[H:7]>>[O:1]([C:2]([C@@:3]([C:4]([H:11])([H:12])[H:13])([C:5][O:6][H:14])[H:10])([H:8])[H:9])[H:7]"
O        1.94846195      -1.17292940      -0.53747854
C        1.05945749      -0.10189471      -0.76695851
C        0.33696895       0.31747385       0.49157989
C       -0.87071204       1.21397503       0.34725562
C       -0.80492637      -0.51909280       0.99721756
O       -1.19521627      -1.54320060       0.21771030
H        1.46296382      -1.89617908      -0.13397943
H        0.35580202      -0.34689634      -1.57803431
H        1.66086803       0.73413293      -1.12707131
H        1.01610448       0.61005959       1.28744188
H       -1.35283967       1.21706513      -0.62720047
H       -0.72519456       2.21917337       0.72771542
H       -1.58126802       0.60833614       1.42172263
H       -1.31046981      -1.34002312      -0.71992074
14
Frame=12 idx=003353 GeodesicLength=0.5959704473307644 rxn_smarts="[O:1]([C:2]([C@@:3]1([H:10])[C:4]([H:11])([H:12])[C@:5]1([O:6][H:14])[H:13])([H:8])[H:9])[H:7]>>[O:1]([C:2]([C@@:3]([C:4]([H:11])([H:12])[H:13])([C:5][O:6][H:14])[H:10])([H:8])[H:9])[H:7]"
O        1.94928048      -1.17067439      -0.53719180
C        1.06156113      -0.09793339      -0.76474201
C        0.33621055       0.31652735       0.49396791
C       -0.87309829       1.21326620       0.34607684
C       -0.80899565      -0.51989369       0.98910642
O       -1.17540541      -1.55685442       0.21627226
H        1.46053268      -1.89770053      -0.14442003
H        0.35971052      -0.33987899      -1.57824208
H        1.66412344       0.73995476      -1.11882566
H        1.01064708       0.60645335       1.29482714
H       -1.35002049       1.21581825      -0.63139032
H       -0.71554401       2.22285212       0.71010055
H       -1.58234510       0.61811701       1.43851080
H       -1.33665694      -1.35005362      -0.71405002
14
Frame=13 idx=003353 GeodesicLength=0.6456699815987473 rxn_smarts="[O:1]([C:2]([C@@:3]1([H:10])[C:4]([H:11])([H:12])[C@:5]1([O:6][H:14])[H:13])([H:8])[H:9])[H:7]>>[O:1]([C:2]([C@@:3]([C:4]([H:11])([H:12])[H:13])([C:5][O:6][H:14])[H:10])([H:8])[H:9])[H:7]"
O        1.94996199      -1.16831978      -0.53692174
C        1.06364745      -0.09386355      -0.76244748
C        0.33531546       0.31553461       0.49627414
C       -0.87540648       1.21264883       0.34483951
C       -0.81321107      -0.52070459       0.98046130
O       -1.15575012      -1.56972320       0.21410291
H        1.45806901      -1.89903092      -0.15509127
H        0.36378144      -0.33266497      -1.57841487
H        1.66732209       0.74589130      -1.11022957
H        1.00483491       0.60264156       1.30219383
H       -1.34693169       1.21471240      -0.63560154
H       -0.70586362       2.22620853       0.69245763
H       -1.58284240       0.62812632       1.45533523
H       -1.36292697      -1.36145653      -0.70695809
14
Frame=14 idx=003353 GeodesicLength=0.6952031396323165 rxn_smarts="[O:1]([C:2]([C@@:3]1([H:10])[C:4]([H:11])([H:12])[C@:5]1([O:6][H:14])[H:13])([H:8])[H:9])[H:7]>>[O:1]([C:2]([C@@:3]([C:4]([H:11])([H:12])[H:13])([C:5][O:6][H:14])[H:10])([H:8])[H:9])[H:7]"
O        1.95058486      -1.16593843      -0.53668189
C        1.06575530      -0.08971688      -0.76008846
C        0.33428117       0.31447342       0.49848412
C       -0.87770319       1.21213238       0.34354430
C       -0.81755129      -0.52150396       0.97131241
O       -1.13628964      -1.58175630       0.21123978
H        1.45563837      -1.90022312      -0.16603568
H        0.36805695      -0.32522143      -1.57855954
H        1.67049998       0.75187329      -1.10130593
H        0.99866890       0.59856632       1.30950469
H       -1.34365046       1.21378592      -0.63982046
H       -0.69626473       2.22922675       0.67480875
H       -1.58283235       0.63837978       1.47216354
H       -1.38919385      -1.37407773      -0.69856563
14
Frame=15 idx=003353 GeodesicLength=0.7449019977133723 rxn_smarts="[O:1]([C:2]([C@@:3]1([H:10])[C:4]([H:11])([H:12])[C@:5]1([O:6][H:14])[H:13])([H:8])[H:9])[H:7]>>[O:1]([C:2]([C@@:3]([C:4]([H:11])([H:12])[H:13])([C:5][O:6][H:14])[H:10])([H:8])[H:9])[H:7]"
O        1.95138600      -1.16348107      -0.53648107
C        1.06806937      -0.08541493      -0.75778145
C        0.33322434       0.31336508       0.50067051
C       -0.88002073       1.21171681       0.34215501
C       -0.82214236      -0.52236683       0.96185821
O       -1.11734841      -1.59306655       0.20781615
H        1.45333321      -1.90127319      -0.17714660
H        0.37256385      -0.31745434      -1.57894758
H        1.67403263       0.75803655      -1.09225466
H        0.99242048       0.59425271       1.31696965
H       -1.34029429       1.21306518      -0.64427198
H       -0.68670144       2.23193039       0.65718139
H       -1.58255369       0.64875184       1.48914019
H       -1.41596896      -1.38806165      -0.68890776
14
Frame=16 idx=003353 GeodesicLength=0.7945643170754487 rxn_smarts="[O:1]([C:2]([C@@:3]1([H:10])[C:4]([H:11])([H:12])[C@:5]1([O:6][H:14])[H:13])([H:8])[H:9])[H:7]>>[O:1]([C:2]([C@@:3]([C:4]([H:11])([H:12])[H:13])([C:5][O:6][H:14])[H:10])([H:8])[H:9])[H:7]"
O        1.95217486      -1.16095385      -0.53629725
C        1.07048561      -0.08098032      -0.75543450
C        0.33209098       0.31222111       0.50278713
C       -0.88230528       1.21137835       0.34067027
C       -0.82685055      -0.52324777       0.95197148
O       -1.09876471      -1.60361933       0.20372046
H        1.45101658      -1.90216002      -0.18853751
H        0.37730967      -0.30938716      -1.57941278
H        1.67772875       0.76431862      -1.08288668
H        0.98593023       0.58974144       1.32445880
H       -1.33674769       1.21247944      -0.64884404
H       -0.67717292       2.23430093       0.63956599
H       -1.58186325       0.65926659       1.50609980
H       -1.44303228      -1.40335802      -0.67786117
