11
Frame=0 idx=006236 GeodesicLength=0.0 rxn_smarts="[O:1]=[C:2]1[C:3]([H:7])([H:8])[C:4]([H:9])=[C:5]([H:10])[N:6]1[H:11]>>[O:1]([c:2]1[c:3]([H:7])[c:4]([H:9])[c:5]([H:10])[n:6]1[H:11])[H:8]"
O       -1.56240547       1.60789666       0.31057585
C       -0.58323820       0.84055541      -0.03215742
C       -0.89095796      -0.51183871      -0.34686064
C        0.37777930      -1.21472939      -0.18825028
C        1.32051556      -0.30649604       0.12587303
N        0.73421205       0.97477077       0.19716841
H       -1.60976698      -0.74542628      -1.12304083
H       -1.84671346       0.28748338       0.43333555
H        0.56079811      -2.26140125      -0.37363928
H        2.37718031      -0.42663754       0.30063213
H        1.12259678       1.75582297       0.69636352
11
Frame=1 idx=006236 GeodesicLength=0.044191141350612334 rxn_smarts="[O:1]=[C:2]1[C:3]([H:7])([H:8])[C:4]([H:9])=[C:5]([H:10])[N:6]1[H:11]>>[O:1]([c:2]1[c:3]([H:7])[c:4]([H:9])[c:5]([H:10])[n:6]1[H:11])[H:8]"
O       -1.55888170       1.60707991       0.31604978
C       -0.58130937       0.84546691      -0.04268057
C       -0.89148924      -0.51092633      -0.34681541
C        0.37696616      -1.21429993      -0.18490917
C        1.32153183      -0.30560823       0.12243964
N        0.73542707       0.97384399       0.20006574
H       -1.60415382      -0.74642764      -1.12827532
H       -1.85803298       0.28362223       0.43709083
H        0.55855206      -2.26168559      -0.36756883
H        2.37847695      -0.42623228       0.29534525
H        1.12291305       1.75516698       0.69925806
11
Frame=2 idx=006236 GeodesicLength=0.08837676793827731 rxn_smarts="[O:1]=[C:2]1[C:3]([H:7])([H:8])[C:4]([H:9])=[C:5]([H:10])[N:6]1[H:11]>>[O:1]([c:2]1[c:3]([H:7])[c:4]([H:9])[c:5]([H:10])[n:6]1[H:11])[H:8]"
O       -1.55520882       1.60592229       0.32195580
C       -0.57929328       0.85042585      -0.05309213
C       -0.89200941      -0.50987644      -0.34679704
C        0.37609223      -1.21382588      -0.18142661
C        1.32250730      -0.30474102       0.11914835
N        0.73666073       0.97292726       0.20277878
H       -1.59838978      -0.74730975      -1.13357206
H       -1.86974448       0.27955091       0.44070235
H        0.55626769      -2.26185437      -0.36167933
H        2.37968880      -0.42589822       0.29040631
H        1.12342902       1.75467938       0.70157557
11
Frame=3 idx=006236 GeodesicLength=0.13256405739520571 rxn_smarts="[O:1]=[C:2]1[C:3]([H:7])([H:8])[C:4]([H:9])=[C:5]([H:10])[N:6]1[H:11]>>[O:1]([c:2]1[c:3]([H:7])[c:4]([H:9])[c:5]([H:10])[n:6]1[H:11])[H:8]"
O       -1.55138759       1.60438345       0.32836659
C       -0.57719557       0.85544530      -0.06337944
C       -0.89251671      -0.50868002      -0.34682684
C        0.37516454      -1.21329660      -0.17785136
C        1.32345603      -0.30387997       0.11591909
N        0.73792299       0.97203970       0.20527448
H       -1.59246944      -0.74804647      -1.13896012
H       -1.88186270       0.27523693       0.44417024
H        0.55392301      -2.26192882      -0.35589684
H        2.38080124      -0.42565242       0.28589877
H        1.12416420       1.75437891       0.70328544
11
Frame=4 idx=006236 GeodesicLength=0.1767513244745833 rxn_smarts="[O:1]=[C:2]1[C:3]([H:7])([H:8])[C:4]([H:9])=[C:5]([H:10])[N:6]1[H:11]>>[O:1]([c:2]1[c:3]([H:7])[c:4]([H:9])[c:5]([H:10])[n:6]1[H:11])[H:8]"
O       -1.54739368       1.60243006       0.33533525
C       -0.57502666       0.86052672      -0.07357693
C       -0.89303313      -0.50735537      -0.34683525
C        0.37421170      -1.21268797      -0.17432973
C        1.32439220      -0.30300608       0.11266354
N        0.73924586       0.97121723       0.20734629
H       -1.58654148      -0.74870364      -1.14423841
H       -1.89433208       0.27065910       0.44765638
H        0.55161272      -2.26181952      -0.35069341
H        2.38167253      -0.42561647       0.28261957
H        1.12519202       1.75435595       0.70405270
11
Frame=5 idx=006236 GeodesicLength=0.22093365905064022 rxn_smarts="[O:1]=[C:2]1[C:3]([H:7])([H:8])[C:4]([H:9])=[C:5]([H:10])[N:6]1[H:11]>>[O:1]([c:2]1[c:3]([H:7])[c:4]([H:9])[c:5]([H:10])[n:6]1[H:11])[H:8]"
O       -1.54325170       1.60006206       0.34275223
C       -0.57276882       0.86568610      -0.08364104
C       -0.89353612      -0.50587456      -0.34687337
C        0.37319164      -1.21202404      -0.17065461
C        1.32528420      -0.30216339       0.10961562
N        0.74061521       0.97042727       0.20925402
H       -1.58042292      -0.74921258      -1.14961050
H       -1.90727769       0.26585343       0.45090654
H        0.54922049      -2.26161917      -0.34553770
H        2.38250618      -0.42563752       0.27948169
H        1.12643953       1.75450240       0.70430714
11
Frame=6 idx=006236 GeodesicLength=0.26512328482250547 rxn_smarts="[O:1]=[C:2]1[C:3]([H:7])([H:8])[C:4]([H:9])=[C:5]([H:10])[N:6]1[H:11]>>[O:1]([c:2]1[c:3]([H:7])[c:4]([H:9])[c:5]([H:10])[n:6]1[H:11])[H:8]"
O       -1.53897294       1.59724470       0.35066580
C       -0.57042247       0.87093674      -0.09354522
C       -0.89401761      -0.50421963      -0.34698257
C        0.37209951      -1.21129664      -0.16682380
C        1.32613226      -0.30135453       0.10679551
N        0.74203633       0.96967211       0.21104058
H       -1.57405274      -0.74951977      -1.15516853
H       -1.92074862       0.26079358       0.45383981
H        0.54669085      -2.26137067      -0.34018533
H        2.38335041      -0.42567928       0.27622932
H        1.12790503       1.75479339       0.70413445
11
Frame=7 idx=006236 GeodesicLength=0.3093161712675221 rxn_smarts="[O:1]=[C:2]1[C:3]([H:7])([H:8])[C:4]([H:9])=[C:5]([H:10])[N:6]1[H:11]>>[O:1]([c:2]1[c:3]([H:7])[c:4]([H:9])[c:5]([H:10])[n:6]1[H:11])[H:8]"
O       -1.53454063       1.59394120       0.35904960
C       -0.56797651       0.87629059      -0.10328276
C       -0.89447452      -0.50238353      -0.34715674
C        0.37092115      -1.21050568      -0.16277981
C        1.32693474      -0.30057691       0.10420698
N        0.74351425       0.96895494       0.21274162
H       -1.56739487      -0.74962033      -1.16092284
H       -1.93478288       0.25549111       0.45638894
H        0.54399213      -2.26107651      -0.33455315
H        2.38423695      -0.42571773       0.27268096
H        1.12957019       1.75520285       0.70362719
11
Frame=8 idx=006236 GeodesicLength=0.35351443349803624 rxn_smarts="[O:1]=[C:2]1[C:3]([H:7])([H:8])[C:4]([H:9])=[C:5]([H:10])[N:6]1[H:11]>>[O:1]([c:2]1[c:3]([H:7])[c:4]([H:9])[c:5]([H:10])[n:6]1[H:11])[H:8]"
O       -1.52996475       1.59012724       0.36793588
C       -0.56544225       0.88175761      -0.11287431
C       -0.89491822      -0.50037112      -0.34737320
C        0.36969465      -1.20961625      -0.15868901
C        1.32774422      -0.29978071       0.10158039
N        0.74507345       0.96830617       0.21422524
H       -1.56055464      -0.74953950      -1.16676164
H       -1.94933451       0.24992043       0.45866103
H        0.54115705      -2.26071162      -0.32875723
H        2.38507162      -0.42582869       0.26936682
H        1.13147337       1.75573647       0.70268604
11
Frame=9 idx=006236 GeodesicLength=0.39773044000554336 rxn_smarts="[O:1]=[C:2]1[C:3]([H:7])([H:8])[C:4]([H:9])=[C:5]([H:10])[N:6]1[H:11]>>[O:1]([c:2]1[c:3]([H:7])[c:4]([H:9])[c:5]([H:10])[n:6]1[H:11])[H:8]"
O       -1.52524848       1.58578327       0.37728379
C       -0.56280970       0.88735209      -0.12229763
C       -0.89534075      -0.49816924      -0.34764733
C        0.36839912      -1.20863567      -0.15445681
C        1.32854425      -0.29898273       0.09901625
N        0.74671376       0.96771731       0.21558523
H       -1.55345470      -0.74925009      -1.17275497
H       -1.96446414       0.24409561       0.46054087
H        0.53813901      -2.26030530      -0.32259392
H        2.38593625      -0.42595759       0.26584904
H        1.13358538       1.75635234       0.70147548
11
Frame=10 idx=006236 GeodesicLength=0.4419485314516758 rxn_smarts="[O:1]=[C:2]1[C:3]([H:7])([H:8])[C:4]([H:9])=[C:5]([H:10])[N:6]1[H:11]>>[O:1]([c:2]1[c:3]([H:7])[c:4]([H:9])[c:5]([H:10])[n:6]1[H:11])[H:8]"
O       -1.52039919       1.58086927       0.38706987
C       -0.56007070       0.89308469      -0.13152460
C       -0.89573641      -0.49576715      -0.34798449
C        0.36702298      -1.20757032      -0.15002882
C        1.32932990      -0.29819725       0.09656617
N        0.74843949       0.96718638       0.21688415
H       -1.54603897      -0.74872542      -1.17894434
H       -1.98022386       0.23803948       0.46192438
H        0.53490007      -2.25988366      -0.31589755
H        2.38688640      -0.42606502       0.26181483
H        1.13589028       1.75702901       0.70012039
11
Frame=11 idx=006236 GeodesicLength=0.486190549709903 rxn_smarts="[O:1]=[C:2]1[C:3]([H:7])([H:8])[C:4]([H:9])=[C:5]([H:10])[N:6]1[H:11]>>[O:1]([c:2]1[c:3]([H:7])[c:4]([H:9])[c:5]([H:10])[n:6]1[H:11])[H:8]"
O       -1.51542929       1.57536094       0.39730082
C       -0.55721190       0.89897332      -0.14053302
C       -0.89609308      -0.49314906      -0.34841581
C        0.36555194      -1.20639692      -0.14534908
C        1.33009905      -0.29741549       0.09425820
N        0.75025584       0.96670068       0.21819696
H       -1.53822471      -0.74793865      -1.18540442
H       -1.99666853       0.23174796       0.46266629
H        0.53137076      -2.25946126      -0.30836456
H        2.38799199      -0.42609572       0.25683716
H        1.13835792       1.75767420       0.69880746
11
Frame=12 idx=006236 GeodesicLength=0.5304431995564647 rxn_smarts="[O:1]=[C:2]1[C:3]([H:7])([H:8])[C:4]([H:9])=[C:5]([H:10])[N:6]1[H:11]>>[O:1]([c:2]1[c:3]([H:7])[c:4]([H:9])[c:5]([H:10])[n:6]1[H:11])[H:8]"
O       -1.51033607       1.56923242       0.40791448
C       -0.55423611       0.90502342      -0.14933249
C       -0.89642063      -0.49032422      -0.34889845
C        0.36400510      -1.20511701      -0.14048267
C        1.33087176      -0.29662823       0.09198852
N        0.75217804       0.96628398       0.21945229
H       -1.53008565      -0.74691913      -1.19202762
H       -2.01376006       0.22524716       0.46284320
H        0.52759047      -2.25902126      -0.30015824
H        2.38919911      -0.42609526       0.25119907
H        1.14099403       1.75831813       0.69750190
11
Frame=13 idx=006236 GeodesicLength=0.574698154515947 rxn_smarts="[O:1]=[C:2]1[C:3]([H:7])([H:8])[C:4]([H:9])=[C:5]([H:10])[N:6]1[H:11]>>[O:1]([c:2]1[c:3]([H:7])[c:4]([H:9])[c:5]([H:10])[n:6]1[H:11])[H:8]"
O       -1.50511249       1.56246670       0.41887595
C       -0.55115047       0.91123744      -0.15794395
C       -0.89673140      -0.48730664      -0.34938591
C        0.36240278      -1.20370978      -0.13551466
C        1.33166726      -0.29581101       0.08964198
N        0.75422558       0.96595382       0.22054776
H       -1.52171279      -0.74571178      -1.19868681
H       -2.03144240       0.21854749       0.46254515
H        0.52360451      -2.25851181      -0.29148872
H        2.39043688      -0.42612159       0.24529245
H        1.14381254       1.75896715       0.69611677
11
Frame=14 idx=006236 GeodesicLength=0.6189730145793095 rxn_smarts="[O:1]=[C:2]1[C:3]([H:7])([H:8])[C:4]([H:9])=[C:5]([H:10])[N:6]1[H:11]>>[O:1]([c:2]1[c:3]([H:7])[c:4]([H:9])[c:5]([H:10])[n:6]1[H:11])[H:8]"
O       -1.49976176       1.55510348       0.43004216
C       -0.54795619       0.91761053      -0.16640744
C       -0.89703814      -0.48411485      -0.34983130
C        0.36077180      -1.20216890      -0.13053416
C        1.33250040      -0.29495247       0.08714148
N        0.75640839       0.96572059       0.22141964
H       -1.51322197      -0.74437324      -1.20524464
H       -2.04963155       0.21167057       0.46192700
H        0.51947456      -2.25789696      -0.28259129
H        2.39165390      -0.42621830       0.23944726
H        1.14680058       1.75961955       0.69463129
11
Frame=15 idx=006236 GeodesicLength=0.6632629313676244 rxn_smarts="[O:1]=[C:2]1[C:3]([H:7])([H:8])[C:4]([H:9])=[C:5]([H:10])[N:6]1[H:11]>>[O:1]([c:2]1[c:3]([H:7])[c:4]([H:9])[c:5]([H:10])[n:6]1[H:11])[H:8]"
O       -1.49429969       1.54718970       0.44123661
C       -0.54464466       0.92413759      -0.17475431
C       -0.89734661      -0.48076327      -0.35019768
C        0.35912596      -1.20049619      -0.12557403
C        1.33337278      -0.29405556       0.08449641
N        0.75872793       0.96558084       0.22207762
H       -1.50467960      -0.74294702      -1.21160943
H       -2.06826336       0.20465582       0.46107390
H        0.51523387      -2.25716167      -0.27357575
H        2.39285215      -0.42638660       0.23369422
H        1.14992124       1.76024637       0.69313244
11
Frame=16 idx=006236 GeodesicLength=0.7075647429719418 rxn_smarts="[O:1]=[C:2]1[C:3]([H:7])([H:8])[C:4]([H:9])=[C:5]([H:10])[N:6]1[H:11]>>[O:1]([c:2]1[c:3]([H:7])[c:4]([H:9])[c:5]([H:10])[n:6]1[H:11])[H:8]"
O       -1.48874703       1.53878972       0.45226946
C       -0.54120723       0.93081003      -0.18302184
C       -0.89766196      -0.47726741      -0.35045547
C        0.35748237      -1.19869388      -0.12068206
C        1.33428717      -0.29312220       0.08171004
N        0.76118165       0.96552902       0.22253330
H       -1.49616118      -0.74147536      -1.21769471
H       -2.08725514       0.19753422       0.46010451
H        0.51091881      -2.25629374      -0.26455806
H        2.39402805      -0.42663042       0.22809184
H        1.15313449       1.76082002       0.69170298
