15
Frame=0 idx=010630 GeodesicLength=0.0 rxn_smarts="[O:1]=[C:2]1[C:3]([H:8])([H:9])[C:4]([H:10])([H:11])[C@@:5]2([H:12])[C:6]([H:13])([H:14])[C@@:7]12[H:15]>>[O:1]=[C:2]([C:3]([C:4]([C:5]1([H:12])[C:6]([H:14])=[C:7]1[H:15])([H:10])[H:11])([H:8])[H:9])[H:13]"
O        0.29023127       2.30482505      -0.90365736
C        0.06954615       1.13767104      -0.63306779
C       -1.25190504       0.45286771      -0.23157208
C       -0.94605139      -0.97248769       0.18990110
C        0.51025677      -0.93159090       0.65689727
C        1.47900577      -0.26585364      -0.24253507
C        1.03409773       0.45450103       0.81712769
H       -1.91381113       0.50978591      -1.09606003
H       -1.69134472       1.04069247       0.57467781
H       -1.59266494      -1.29301312       1.00698301
H       -1.07746231      -1.68320029      -0.62955349
H        0.87950628      -1.76507875       1.24761038
H        0.50816482       0.29677155      -1.40593835
H        2.31989315      -0.45579731      -0.89011007
H        1.38253754       1.16990690       1.53929692
15
Frame=1 idx=010630 GeodesicLength=0.08375300904671983 rxn_smarts="[O:1]=[C:2]1[C:3]([H:8])([H:9])[C:4]([H:10])([H:11])[C@@:5]2([H:12])[C:6]([H:13])([H:14])[C@@:7]12[H:15]>>[O:1]=[C:2]([C:3]([C:4]([C:5]1([H:12])[C:6]([H:14])=[C:7]1[H:15])([H:10])[H:11])([H:8])[H:9])[H:13]"
O        0.26514820       2.31915685      -0.89779172
C        0.05797497       1.14819874      -0.63744000
C       -1.25647989       0.45497191      -0.23400532
C       -0.94544901      -0.96883253       0.19098657
C        0.51131313      -0.93271497       0.65521756
C        1.48346456      -0.27301061      -0.24609645
C        1.04075226       0.45204058       0.81491611
H       -1.91844708       0.50344457      -1.09931622
H       -1.70094094       1.04282481       0.56949222
H       -1.59035439      -1.28650792       1.01070959
H       -1.08005480      -1.68159523      -0.62628838
H        0.87594035      -1.76583064       1.24923323
H        0.51906799       0.29664870      -1.41556296
H        2.33682125      -0.46561373      -0.87578531
H        1.40124339       1.15681948       1.54173108
15
Frame=2 idx=010630 GeodesicLength=0.16746452867839345 rxn_smarts="[O:1]=[C:2]1[C:3]([H:8])([H:9])[C:4]([H:10])([H:11])[C@@:5]2([H:12])[C:6]([H:13])([H:14])[C@@:7]12[H:15]>>[O:1]=[C:2]([C:3]([C:4]([C:5]1([H:12])[C:6]([H:14])=[C:7]1[H:15])([H:10])[H:11])([H:8])[H:9])[H:13]"
O        0.23974298       2.33350472      -0.89178222
C        0.04613250       1.15896346      -0.64180356
C       -1.26111108       0.45713019      -0.23638941
C       -0.94474561      -0.96509188       0.19199398
C        0.51242518      -0.93373985       0.65352279
C        1.48806186      -0.28033135      -0.24973431
C        1.04757066       0.44963672       0.81251034
H       -1.92310248       0.49715680      -1.10246983
H       -1.71070149       1.04483612       0.56438480
H       -1.58792764      -1.28001455       1.01431269
H       -1.08251137      -1.67987349      -0.62311180
H        0.87235832      -1.76638366       1.25097177
H        0.53025938       0.29662454      -1.42522646
H        2.35359786      -0.47598521      -0.86107181
H        1.41995092       1.14356744       1.54389303
15
Frame=3 idx=010630 GeodesicLength=0.251144575286031 rxn_smarts="[O:1]=[C:2]1[C:3]([H:8])([H:9])[C:4]([H:10])([H:11])[C@@:5]2([H:12])[C:6]([H:13])([H:14])[C@@:7]12[H:15]>>[O:1]=[C:2]([C:3]([C:4]([C:5]1([H:12])[C:6]([H:14])=[C:7]1[H:15])([H:10])[H:11])([H:8])[H:9])[H:13]"
O        0.21400860       2.34787665      -0.88562459
C        0.03401261       1.16997416      -0.64615313
C       -1.26579838       0.45934465      -0.23872519
C       -0.94393859      -0.96126523       0.19292168
C        0.51359701      -0.93466521       0.65181594
C        1.49280674      -0.28782331      -0.25344265
C        1.05456013       0.44729073       0.80990828
H       -1.92777557       0.49092486      -1.10552582
H       -1.72063021       1.04672314       0.55935466
H       -1.58538462      -1.27353657       1.01778975
H       -1.08482888      -1.67803560      -0.62002697
H        0.86876226      -1.76673440       1.25283444
H        0.54175244       0.29669122      -1.43492872
H        2.37019912      -0.48692291      -0.84598063
H        1.43865737       1.13015780       1.54578294
15
Frame=4 idx=010630 GeodesicLength=0.33479005386347105 rxn_smarts="[O:1]=[C:2]1[C:3]([H:8])([H:9])[C:4]([H:10])([H:11])[C@@:5]2([H:12])[C:6]([H:13])([H:14])[C@@:7]12[H:15]>>[O:1]=[C:2]([C:3]([C:4]([C:5]1([H:12])[C:6]([H:14])=[C:7]1[H:15])([H:10])[H:11])([H:8])[H:9])[H:13]"
O        0.18793797       2.36227402      -0.87930982
C        0.02160780       1.18123629      -0.65048229
C       -1.27053995       0.46161685      -0.24101246
C       -0.94302352      -0.95734881       0.19376806
C        0.51483189      -0.93548792       0.65009761
C        1.49770706      -0.29549441      -0.25721616
C        1.06172443       0.44500335       0.80710498
H       -1.93246009       0.48474961      -1.10848672
H       -1.73073029       1.04848157       0.55440133
H       -1.58272291      -1.26707188       1.02113807
H       -1.08700079      -1.67607862      -0.61703538
H        0.86515266      -1.76687398       1.25482576
H        0.55356245       0.29683690      -1.44466813
H        2.38660025      -0.49843676      -0.83052506
H        1.45735304       1.11659379       1.54740022
15
Frame=5 idx=010630 GeodesicLength=0.41840121515385315 rxn_smarts="[O:1]=[C:2]1[C:3]([H:8])([H:9])[C:4]([H:10])([H:11])[C@@:5]2([H:12])[C:6]([H:13])([H:14])[C@@:7]12[H:15]>>[O:1]=[C:2]([C:3]([C:4]([C:5]1([H:12])[C:6]([H:14])=[C:7]1[H:15])([H:10])[H:11])([H:8])[H:9])[H:13]"
O        0.16152367       2.37669966      -0.87282935
C        0.00891060       1.19275616      -0.65478435
C       -1.27533428       0.46394856      -0.24325130
C       -0.94199664      -0.95333947       0.19453152
C        0.51613296      -0.93620571       0.64836942
C        1.50277083      -0.30335369      -0.26104850
C        1.06906832       0.44277501       0.80409610
H       -1.93715053       0.47863259      -1.11135581
H       -1.74100499       1.05010707       0.54952413
H       -1.57994117      -1.26061960       1.02435483
H       -1.08902171      -1.67400027      -0.61413898
H        0.86152977      -1.76679467       1.25695184
H        0.56570523       0.29704816      -1.45444372
H        2.40277761      -0.51053394      -0.81471988
H        1.47603034       1.10288015       1.54874405
15
Frame=6 idx=010630 GeodesicLength=0.5019782131284468 rxn_smarts="[O:1]=[C:2]1[C:3]([H:8])([H:9])[C:4]([H:10])([H:11])[C@@:5]2([H:12])[C:6]([H:13])([H:14])[C@@:7]12[H:15]>>[O:1]=[C:2]([C:3]([C:4]([C:5]1([H:12])[C:6]([H:14])=[C:7]1[H:15])([H:10])[H:11])([H:8])[H:9])[H:13]"
O        0.13475806       2.39115603      -0.86617445
C       -0.00408664       1.20454010      -0.65905193
C       -1.28017972       0.46634178      -0.24544158
C       -0.94085438      -0.94923388       0.19521043
C        0.51750305      -0.93681658       0.64663344
C        1.50800592      -0.31141129      -0.26493235
C        1.07659661       0.44060559       0.80087755
H       -1.94184114       0.47257582      -1.11413627
H       -1.75145738       1.05159520       0.54472252
H       -1.57703856      -1.25417887       1.02743683
H       -1.09088638      -1.67179799      -0.61133985
H        0.85789323      -1.76648889       1.25921913
H        0.57819742       0.29730906      -1.46425469
H        2.41870834      -0.52321874      -0.79858191
H        1.49468158       1.08902266       1.54981313
15
Frame=7 idx=010630 GeodesicLength=0.5855213869766709 rxn_smarts="[O:1]=[C:2]1[C:3]([H:8])([H:9])[C:4]([H:10])([H:11])[C@@:5]2([H:12])[C:6]([H:13])([H:14])[C@@:7]12[H:15]>>[O:1]=[C:2]([C:3]([C:4]([C:5]1([H:12])[C:6]([H:14])=[C:7]1[H:15])([H:10])[H:11])([H:8])[H:9])[H:13]"
O        0.10763302       2.40564559      -0.85933564
C       -0.01739187       1.21659464      -0.66327682
C       -1.28507461       0.46879870      -0.24758307
C       -0.93959334      -0.94502851       0.19580312
C        0.51894470      -0.93731876       0.64489197
C        1.51341988      -0.31967846      -0.26885984
C        1.08431429       0.43849440       0.79744516
H       -1.94652583       0.46658170      -1.11683134
H       -1.76209055       1.05294123       0.53999597
H       -1.57401462      -1.24774871       1.03038070
H       -1.09258993      -1.66946887      -0.60864021
H        0.85424216      -1.76594897       1.26163445
H        0.59105639       0.29760122      -1.47410078
H        2.43437106      -0.53649327      -0.78212915
H        1.51329926       1.07502805       1.55060548
15
Frame=8 idx=010630 GeodesicLength=0.6690310215777426 rxn_smarts="[O:1]=[C:2]1[C:3]([H:8])([H:9])[C:4]([H:10])([H:11])[C@@:5]2([H:12])[C:6]([H:13])([H:14])[C@@:7]12[H:15]>>[O:1]=[C:2]([C:3]([C:4]([C:5]1([H:12])[C:6]([H:14])=[C:7]1[H:15])([H:10])[H:11])([H:8])[H:9])[H:13]"
O        0.08013998       2.42017089      -0.85230240
C       -0.03101336       1.22892651      -0.66745027
C       -1.29001726       0.47132172      -0.24967547
C       -0.93821044      -0.94071957       0.19630795
C        0.52046019      -0.93771075       0.64314743
C        1.51901992      -0.32816769      -0.27282265
C        1.09222657       0.43644010       0.79379444
H       -1.95119818       0.46065298      -1.11944446
H       -1.77290763       1.05414032       0.53534390
H       -1.57086934      -1.24132781       1.03318311
H       -1.09412807      -1.66700981      -0.60604217
H        0.85057516      -1.76516717       1.26420476
H        0.60430003       0.29790317      -1.48398237
H        2.44974635      -0.55035654      -0.76538037
H        1.53187610       1.06090364       1.55111857
15
Frame=9 idx=010630 GeodesicLength=0.7525075830775448 rxn_smarts="[O:1]=[C:2]1[C:3]([H:8])([H:9])[C:4]([H:10])([H:11])[C@@:5]2([H:12])[C:6]([H:13])([H:14])[C@@:7]12[H:15]>>[O:1]=[C:2]([C:3]([C:4]([C:5]1([H:12])[C:6]([H:14])=[C:7]1[H:15])([H:10])[H:11])([H:8])[H:9])[H:13]"
O        0.05226973       2.43473437      -0.84506370
C       -0.04495991       1.24154271      -0.67156254
C       -1.29500601       0.47391360      -0.25171813
C       -0.93670275      -0.93630307       0.19672306
C        0.52205143      -0.93799123       0.64140245
C        1.52481280      -0.33689248      -0.27681184
C        1.10033867       0.43444081       0.78992080
H       -1.95585189       0.45479329      -1.12197859
H       -1.78391152       1.05518731       0.53076625
H       -1.56760314      -1.23491522       1.03584001
H       -1.09549667      -1.66441711      -0.60354841
H        0.84689022      -1.76413565       1.26693728
H        0.61794702       0.29819028      -1.49390081
H        2.46481692      -0.56480582      -0.74835463
H        1.55040511       1.04665822       1.55134880
15
Frame=10 idx=010630 GeodesicLength=0.8359515182658478 rxn_smarts="[O:1]=[C:2]1[C:3]([H:8])([H:9])[C:4]([H:10])([H:11])[C@@:5]2([H:12])[C:6]([H:13])([H:14])[C@@:7]12[H:15]>>[O:1]=[C:2]([C:3]([C:4]([C:5]1([H:12])[C:6]([H:14])=[C:7]1[H:15])([H:10])[H:11])([H:8])[H:9])[H:13]"
O        0.02401242       2.44933883      -0.83760712
C       -0.05924074       1.25445068      -0.67560315
C       -1.30003923       0.47657743      -0.25371022
C       -0.93506762      -0.93177470       0.19704652
C        0.52372013      -0.93815918       0.63965951
C        1.53080479      -0.34586756      -0.28081835
C        1.10865611       0.43249390       0.78581904
H       -1.96048040       0.44900681      -1.12443680
H       -1.79510513       1.05607688       0.52626311
H       -1.56421677      -1.22850970       1.03834739
H       -1.09669230      -1.66168672      -0.60116168
H        0.84318499      -1.76284642       1.26983907
H        0.63201631       0.29843403      -1.50385862
H        2.47956816      -0.57983575      -0.73107050
H        1.56887928       1.03230146       1.55129180
15
Frame=11 idx=010630 GeodesicLength=0.9193634302665292 rxn_smarts="[O:1]=[C:2]1[C:3]([H:8])([H:9])[C:4]([H:10])([H:11])[C@@:5]2([H:12])[C:6]([H:13])([H:14])[C@@:7]12[H:15]>>[O:1]=[C:2]([C:3]([C:4]([C:5]1([H:12])[C:6]([H:14])=[C:7]1[H:15])([H:10])[H:11])([H:8])[H:9])[H:13]"
O       -0.00464294       2.46398738      -0.82991870
C       -0.07386580       1.26765854      -0.67956035
C       -1.30511537       0.47931669      -0.25565070
C       -0.93330253      -0.92712982       0.19727617
C        0.52546774      -0.93821365       0.63792104
C        1.53700166      -0.35510859      -0.28483276
C        1.11718454       0.43059622       0.78148351
H       -1.96507695       0.44329852      -1.12682215
H       -1.80649164       1.05680327       0.52183474
H       -1.56071124      -1.22211011       1.04070073
H       -1.09771182      -1.65881402      -0.59888514
H        0.83945665      -1.76129111       1.27291731
H        0.64652753       0.29860221      -1.51385978
H        2.49398788      -0.59543987      -0.71354600
H        1.58729229       1.01784434       1.55094208
15
Frame=12 idx=010630 GeodesicLength=1.0027439456914196 rxn_smarts="[O:1]=[C:2]1[C:3]([H:8])([H:9])[C:4]([H:10])([H:11])[C@@:5]2([H:12])[C:6]([H:13])([H:14])[C@@:7]12[H:15]>>[O:1]=[C:2]([C:3]([C:4]([C:5]1([H:12])[C:6]([H:14])=[C:7]1[H:15])([H:10])[H:11])([H:8])[H:9])[H:13]"
O       -0.03370849       2.47868380      -0.82198238
C       -0.08884574       1.28117515      -0.68342114
C       -1.31023300       0.48213526      -0.25753834
C       -0.93140516      -0.92236344       0.19740962
C        0.52729552      -0.93815384       0.63618930
C        1.54340854      -0.36463244      -0.28884563
C        1.12592989       0.42874395       0.77690778
H       -1.96963446       0.43767418      -1.12913788
H       -1.81807456       1.05736029       0.51748157
H       -1.55708783      -1.21571525       1.04289515
H       -1.09855256      -1.65579383      -0.59672232
H        0.83570196      -1.75946080       1.27617923
H        0.66150060       0.29865807      -1.52391001
H        2.50806669      -0.61161009      -0.69579771
H        1.60563860       1.00329898       1.55029277
15
Frame=13 idx=010630 GeodesicLength=1.0860940885373462 rxn_smarts="[O:1]=[C:2]1[C:3]([H:8])([H:9])[C:4]([H:10])([H:11])[C@@:5]2([H:12])[C:6]([H:13])([H:14])[C@@:7]12[H:15]>>[O:1]=[C:2]([C:3]([C:4]([C:5]1([H:12])[C:6]([H:14])=[C:7]1[H:15])([H:10])[H:11])([H:8])[H:9])[H:13]"
O       -0.06319795       2.49343258      -0.81378001
C       -0.10419210       1.29501050      -0.68717100
C       -1.31539085       0.48503760      -0.25937159
C       -0.92937328      -0.91747019       0.19744409
C        0.52920457      -0.93797893       0.63446620
C        1.55003003      -0.37445690      -0.29284761
C        1.13489839       0.42693285       0.77208439
H       -1.97414578       0.43214059      -1.13138723
H       -1.82985772       1.05774122       0.51320442
H       -1.55334792      -1.20932421       1.04492520
H       -1.09921216      -1.65262025      -0.59467750
H        0.83191749      -1.75734595       1.27963204
H        0.67695576       0.29856000      -1.53401737
H        2.52179810      -0.62833794      -0.67783973
H        1.62391342       0.98867906       1.54933569
15
Frame=14 idx=010630 GeodesicLength=1.169414282621289 rxn_smarts="[O:1]=[C:2]1[C:3]([H:8])([H:9])[C:4]([H:10])([H:11])[C@@:5]2([H:12])[C:6]([H:13])([H:14])[C@@:7]12[H:15]>>[O:1]=[C:2]([C:3]([C:4]([C:5]1([H:12])[C:6]([H:14])=[C:7]1[H:15])([H:10])[H:11])([H:8])[H:9])[H:13]"
O       -0.09312603       2.50823853      -0.80529053
C       -0.11991770       1.30917531      -0.69079417
C       -1.32058780       0.48802874      -0.26114847
C       -0.92720451      -0.91244400       0.19737635
C        0.53119613      -0.93768768       0.63275294
C        1.55687057      -0.38460041      -0.29682948
C        1.14409639       0.42515840       0.76700434
H       -1.97860362       0.42670576      -1.13357310
H       -1.84184503       1.05793882       0.50900486
H       -1.54949264      -1.20293593       1.04678489
H       -1.09968825      -1.64928637      -0.59275552
H        0.82809981      -1.75493568       1.28328221
H        0.69291373       0.29826020      -1.54419233
H        2.53517832      -0.64561486      -0.65968376
H        1.64211063       0.97399916       1.54806178
15
Frame=15 idx=010630 GeodesicLength=1.252712348509384 rxn_smarts="[O:1]=[C:2]1[C:3]([H:8])([H:9])[C:4]([H:10])([H:11])[C@@:5]2([H:12])[C:6]([H:13])([H:14])[C@@:7]12[H:15]>>[O:1]=[C:2]([C:3]([C:4]([C:5]1([H:12])[C:6]([H:14])=[C:7]1[H:15])([H:10])[H:11])([H:8])[H:9])[H:13]"
O       -0.12351002       2.52311031      -0.79649054
C       -0.13603582       1.32368389      -0.69427264
C       -1.32582486       0.49111416      -0.26286744
C       -0.92489850      -0.90727934       0.19720310
C        0.53327166      -0.93727920       0.63105258
C        1.56393590      -0.39508241      -0.30078243
C        1.15353384       0.42341558       0.76165869
H       -1.98300264       0.42137834      -1.13570174
H       -1.85404459       1.05794391       0.50488447
H       -1.54552716      -1.19655249       1.04846846
H       -1.09998111      -1.64578518      -0.59096305
H        0.82424547      -1.75221977       1.28713959
H        0.70939661       0.29770822      -1.55445054
H        2.54820893      -0.66343349      -0.64133922
H        1.66023229       0.95927746       1.54646071
15
Frame=16 idx=010630 GeodesicLength=1.3359702664475976 rxn_smarts="[O:1]=[C:2]1[C:3]([H:8])([H:9])[C:4]([H:10])([H:11])[C@@:5]2([H:12])[C:6]([H:13])([H:14])[C@@:7]12[H:15]>>[O:1]=[C:2]([C:3]([C:4]([C:5]1([H:12])[C:6]([H:14])=[C:7]1[H:15])([H:10])[H:11])([H:8])[H:9])[H:13]"
O       -0.15437574       2.53805149      -0.78734600
C       -0.15256176       1.33854827      -0.69758041
C       -1.33109435       0.49430035      -0.26452455
C       -0.92244646      -0.90196739       0.19691808
C        0.53542918      -0.93674965       0.62936598
C        1.57122109      -0.40592737      -0.30469182
C        1.16320990       0.42169943       0.75603515
H       -1.98732274       0.41616775      -1.13777158
H       -1.86645554       1.05774895       0.50084192
H       -1.54144625      -1.19017062       1.04995864
H       -1.10007650      -1.64210656      -0.58930651
H        0.82034553      -1.74918124       1.29120718
H        0.72642610       0.29683979      -1.56479706
H        2.56087498      -0.68179010      -0.62281531
H        1.67827255       0.94453689       1.54450628
