16
Frame=0 idx=008732 GeodesicLength=0.0 rxn_smarts="[C:1]([C@@:2]([O:3][H:12])([C:4]([C:5](=[O:6])[N:7]([H:15])[H:16])([H:13])[H:14])[H:11])([H:8])([H:9])[H:10]>>[C:1]([C:4]([C:2](=[O:3])[H:11])([H:13])[H:14])([H:8])([H:9])[H:10].[C:5](=[O:6])([N:7]([H:15])[H:16])[H:12]"
C       -2.32414855      -0.17081455      -0.43161125
C       -0.76853384       0.06378229      -0.80757846
O       -0.43264712       1.33443677      -0.75542059
C       -0.27309964      -0.72147453       0.30109475
C        1.86236391       0.16896664      -0.01602526
O        2.40719083      -0.57732069      -0.79903075
N        2.40085223       0.52209142       1.18634195
H       -2.56900684       0.32136378       0.50728372
H       -2.63238633      -1.21479055      -0.42121578
H       -2.83426390       0.34321808      -1.24331779
H       -0.62479393      -0.45268914      -1.77255612
H        0.90309199       0.86009774      -0.31851310
H       -0.30805544      -0.27377743       1.28835884
H       -0.18947128      -1.80389878       0.24907539
H        3.36531585       0.28742806       1.36086038
H        2.01759203       1.31338093       1.67225409
16
Frame=1 idx=008732 GeodesicLength=0.1306492209817684 rxn_smarts="[C:1]([C@@:2]([O:3][H:12])([C:4]([C:5](=[O:6])[N:7]([H:15])[H:16])([H:13])[H:14])[H:11])([H:8])([H:9])[H:10]>>[C:1]([C:4]([C:2](=[O:3])[H:11])([H:13])[H:14])([H:8])([H:9])[H:10].[C:5](=[O:6])([N:7]([H:15])[H:16])[H:12]"
C       -2.32064138      -0.17306370      -0.40095732
C       -0.76598521       0.08603283      -0.81891344
O       -0.40860573       1.34910877      -0.74278165
C       -0.27113503      -0.72840876       0.27220544
C        1.88253874       0.12723323      -0.01340639
O        2.46169311      -0.64299509      -0.74687486
N        2.37532178       0.53790164       1.19002792
H       -2.55115762       0.31877924       0.54189849
H       -2.63843298      -1.21425676      -0.39060759
H       -2.85210340       0.34181445      -1.19899585
H       -0.64725502      -0.41143580      -1.79710308
H        0.94656171       0.86269474      -0.38894758
H       -0.29665367      -0.30541861       1.27060567
H       -0.19872634      -1.80963992       0.18775740
H        3.33611207       0.32642422       1.40732996
H        1.94846896       1.33522950       1.62876288
16
Frame=2 idx=008732 GeodesicLength=0.2603567674483843 rxn_smarts="[C:1]([C@@:2]([O:3][H:12])([C:4]([C:5](=[O:6])[N:7]([H:15])[H:16])([H:13])[H:14])[H:11])([H:8])([H:9])[H:10]>>[C:1]([C:4]([C:2](=[O:3])[H:11])([H:13])[H:14])([H:8])([H:9])[H:10].[C:5](=[O:6])([N:7]([H:15])[H:16])[H:12]"
C       -2.31588014      -0.17556523      -0.37088729
C       -0.76273323       0.10845737      -0.82866607
O       -0.38121903       1.36241757      -0.72972880
C       -0.26985354      -0.73572213       0.24416477
C        1.90075115       0.08833828      -0.00969456
O        2.51210544      -0.70497752      -0.69059391
N        2.34857425       0.55399057       1.19111419
H       -2.53263872       0.31618303       0.57545624
H       -2.64370216      -1.21373819      -0.35987873
H       -2.86729652       0.34010943      -1.15544555
H       -0.66912528      -0.36932876      -1.81927767
H        0.98971855       0.86363422      -0.45893318
H       -0.28608831      -0.33843304       1.25328227
H       -0.20774585      -1.81447701       0.12620088
H        3.30342989       0.36501679       1.44993348
H        1.88170351       1.35409464       1.58295391
16
Frame=3 idx=008732 GeodesicLength=0.38906962833275244 rxn_smarts="[C:1]([C@@:2]([O:3][H:12])([C:4]([C:5](=[O:6])[N:7]([H:15])[H:16])([H:13])[H:14])[H:11])([H:8])([H:9])[H:10]>>[C:1]([C:4]([C:2](=[O:3])[H:11])([H:13])[H:14])([H:8])([H:9])[H:10].[C:5](=[O:6])([N:7]([H:15])[H:16])[H:12]"
C       -2.31013826      -0.17875673      -0.34195857
C       -0.75878809       0.13090134      -0.83694972
O       -0.35132992       1.37445673      -0.71751652
C       -0.26945331      -0.74256162       0.21769198
C        1.91702155       0.05255047      -0.00529758
O        2.55757013      -0.76182083      -0.63260335
N        2.32163799       0.56912052       1.18988883
H       -2.51427652       0.31371401       0.60701264
H       -2.64798692      -1.21380428      -0.32898221
H       -2.88007075       0.33688056      -1.11389978
H       -0.68968864      -0.32724067      -1.83879418
H        1.03152804       0.86458502      -0.52595542
H       -0.27664931      -0.37092963       1.23666930
H       -0.21661236      -1.81761348       0.06615064
H        3.26865988       0.40159774       1.48806478
H        1.81857648       1.36892084       1.53647916
16
Frame=4 idx=008732 GeodesicLength=0.5169627092796195 rxn_smarts="[C:1]([C@@:2]([O:3][H:12])([C:4]([C:5](=[O:6])[N:7]([H:15])[H:16])([H:13])[H:14])[H:11])([H:8])([H:9])[H:10]>>[C:1]([C:4]([C:2](=[O:3])[H:11])([H:13])[H:14])([H:8])([H:9])[H:10].[C:5](=[O:6])([N:7]([H:15])[H:16])[H:12]"
C       -2.30377531      -0.18298313      -0.31449872
C       -0.75430566       0.15336188      -0.84389918
O       -0.31993908       1.38556001      -0.70678547
C       -0.26998356      -0.74826891       0.19318509
C        1.93158091       0.01961297      -0.00052280
O        2.59801031      -0.81327285      -0.57469098
N        2.29531972       0.58261526       1.18672623
H       -2.49684450       0.31129946       0.63607481
H       -2.65118610      -1.21495446      -0.29796951
H       -2.89087903       0.33126402      -1.07510558
H       -0.70860103      -0.28562571      -1.85565850
H        1.07157766       0.86692495      -0.58881109
H       -0.26842394      -0.40149975       1.22094563
H       -0.22537501      -1.81853975       0.00874208
H        3.23286180       0.43479895       1.52197865
H        1.75996284       1.37970705       1.49028932
16
Frame=5 idx=008732 GeodesicLength=0.6440590285238744 rxn_smarts="[C:1]([C@@:2]([O:3][H:12])([C:4]([C:5](=[O:6])[N:7]([H:15])[H:16])([H:13])[H:14])[H:11])([H:8])([H:9])[H:10]>>[C:1]([C:4]([C:2](=[O:3])[H:11])([H:13])[H:14])([H:8])([H:9])[H:10].[C:5](=[O:6])([N:7]([H:15])[H:16])[H:12]"
C       -2.29704419      -0.18834569      -0.28867897
C       -0.74945437       0.17591128      -0.84961689
O       -0.28783097       1.39599790      -0.69763727
C       -0.27145228      -0.75253712       0.17080519
C        1.94458828      -0.01114710       0.00454850
O        2.63369298      -0.85983784      -0.51775860
N        2.27016097       0.59410459       1.18196698
H       -2.48081899       0.30882478       0.66244993
H       -2.65324149      -1.21735935      -0.26698702
H       -2.90004842       0.32297888      -1.03944890
H       -0.72576450      -0.24454718      -1.87002110
H        1.10976809       0.87133693      -0.64726100
H       -0.26145733      -0.42946777       1.20624132
H       -0.23412715      -1.81709770      -0.04540184
H        3.19703033       0.46482203       1.55172807
H        1.70599903       1.38636338       1.44507159
16
Frame=6 idx=008732 GeodesicLength=0.7706743499086246 rxn_smarts="[C:1]([C@@:2]([O:3][H:12])([C:4]([C:5](=[O:6])[N:7]([H:15])[H:16])([H:13])[H:14])[H:11])([H:8])([H:9])[H:10]>>[C:1]([C:4]([C:2](=[O:3])[H:11])([H:13])[H:14])([H:8])([H:9])[H:10].[C:5](=[O:6])([N:7]([H:15])[H:16])[H:12]"
C       -2.29024799      -0.19495059      -0.26443231
C       -0.74442669       0.19861803      -0.85419445
O       -0.25555988       1.40608595      -0.68997353
C       -0.27372981      -0.75521500       0.15046499
C        1.95637111      -0.04016755       0.00978605
O        2.66520640      -0.90230464      -0.46223854
N        2.24641710       0.60379569       1.17582890
H       -2.46655947       0.30612019       0.68630943
H       -2.65426294      -1.22122989      -0.23611002
H       -2.90805520       0.31185426      -1.00687116
H       -0.74137257      -0.20401696      -1.88212165
H        1.14639990       0.87837798      -0.70179810
H       -0.25557064      -0.45452745       1.19254154
H       -0.24281833      -1.81329816      -0.09627191
H        3.16133521       0.49082721       1.57836631
H        1.65687383       1.39003094       1.40071445
16
Frame=7 idx=008732 GeodesicLength=0.8968778435471954 rxn_smarts="[C:1]([C@@:2]([O:3][H:12])([C:4]([C:5](=[O:6])[N:7]([H:15])[H:16])([H:13])[H:14])[H:11])([H:8])([H:9])[H:10]>>[C:1]([C:4]([C:2](=[O:3])[H:11])([H:13])[H:14])([H:8])([H:9])[H:10].[C:5](=[O:6])([N:7]([H:15])[H:16])[H:12]"
C       -2.28353410      -0.20274297      -0.24168638
C       -0.73934787       0.22153766      -0.85769101
O       -0.22342934       1.41595855      -0.68358165
C       -0.27674090      -0.75634694       0.13204019
C        1.96707262      -0.06799003       0.01522114
O        2.69301489      -0.94146971      -0.40813680
N        2.22423033       0.61180837       1.16848729
H       -2.45418098       0.30309306       0.70782175
H       -2.65432360      -1.22652270      -0.20543661
H       -2.91512365       0.29802440      -0.97726931
H       -0.75563153      -0.16391628      -1.89217024
H        1.18168731       0.88818679      -0.75296746
H       -0.25066974      -0.47674811       1.17983377
H       -0.25146622      -1.80729081      -0.14398444
H        3.12611085       0.51328407       1.60223652
H        1.61233191       1.39113466       1.35728325
16
Frame=8 idx=008732 GeodesicLength=1.0227935722506383 rxn_smarts="[C:1]([C@@:2]([O:3][H:12])([C:4]([C:5](=[O:6])[N:7]([H:15])[H:16])([H:13])[H:14])[H:11])([H:8])([H:9])[H:10]>>[C:1]([C:4]([C:2](=[O:3])[H:11])([H:13])[H:14])([H:8])([H:9])[H:10].[C:5](=[O:6])([N:7]([H:15])[H:16])[H:12]"
C       -2.27702877      -0.21166418      -0.22031969
C       -0.73431167       0.24469751      -0.86016108
O       -0.19160499       1.42571868      -0.67828281
C       -0.28040193      -0.75602357       0.11538131
C        1.97683794      -0.09501167       0.02086909
O        2.71757281      -0.97801650      -0.35537589
N        2.20367530       0.61836720       1.16003984
H       -2.44374357       0.29969160       0.72720692
H       -2.65353340      -1.23319491      -0.17501060
H       -2.92144508       0.28163604      -0.95046601
H       -0.76876776      -0.12417211      -1.90036275
H        1.21588352       0.90087559      -0.80136170
H       -0.24664679      -0.49627529       1.16808770
H       -0.26006366      -1.79926659      -0.18875793
H        3.09145456       0.53241534       1.62379518
H        1.57212349       1.39022286       1.31471842
16
Frame=9 idx=008732 GeodesicLength=1.1484250393999993 rxn_smarts="[C:1]([C@@:2]([O:3][H:12])([C:4]([C:5](=[O:6])[N:7]([H:15])[H:16])([H:13])[H:14])[H:11])([H:8])([H:9])[H:10]>>[C:1]([C:4]([C:2](=[O:3])[H:11])([H:13])[H:14])([H:8])([H:9])[H:10].[C:5](=[O:6])([N:7]([H:15])[H:16])[H:12]"
C       -2.27078561      -0.22158944      -0.20026593
C       -0.72935428       0.26811598      -0.86163292
O       -0.16016291       1.43535457      -0.67386224
C       -0.28469250      -0.75440139       0.10038469
C        1.98566519      -0.12170095       0.02684646
O        2.73922235      -1.01247294      -0.30381861
N        2.18477453       0.62347309       1.15060961
H       -2.43525550       0.29590646       0.74458748
H       -2.65196897      -1.24108903      -0.14490926
H       -2.92705706       0.26294432      -0.92636849
H       -0.78089909      -0.08466273      -1.90684350
H        1.24911087       0.91645103      -0.84735531
H       -0.24350939      -0.51337644       1.15730850
H       -0.26865920      -1.78944200      -0.23073816
H        3.05772327       0.54919440       1.64293545
H        1.53584829       1.38729507       1.27312223
16
Frame=10 idx=008732 GeodesicLength=1.2738686891734454 rxn_smarts="[C:1]([C@@:2]([O:3][H:12])([C:4]([C:5](=[O:6])[N:7]([H:15])[H:16])([H:13])[H:14])[H:11])([H:8])([H:9])[H:10]>>[C:1]([C:4]([C:2](=[O:3])[H:11])([H:13])[H:14])([H:8])([H:9])[H:10].[C:5](=[O:6])([N:7]([H:15])[H:16])[H:12]"
C       -2.26488421      -0.23251105      -0.18138355
C       -0.72454697       0.29178188      -0.86214001
O       -0.12918716       1.44494083      -0.67024157
C       -0.28950911      -0.75151340       0.08695265
C        1.99368406      -0.14818880       0.03309017
O        2.75826504      -1.04529291      -0.25341640
N        2.16758558       0.62746387       1.14013160
H       -2.42873186       0.29170176       0.76016031
H       -2.64969723      -1.25021626      -0.11512997
H       -2.93209680       0.24196650      -0.90479113
H       -0.79224867      -0.04543337      -1.91172625
H        1.28158707       0.93513325      -0.89150628
H       -0.24109216      -0.52806772       1.14747215
H       -0.27718266      -1.77793896      -0.27008494
H        3.02462981       0.56309390       1.66037098
H        1.50342527       1.38308049       1.23224225
16
Frame=11 idx=008732 GeodesicLength=1.3991414834019495 rxn_smarts="[C:1]([C@@:2]([O:3][H:12])([C:4]([C:5](=[O:6])[N:7]([H:15])[H:16])([H:13])[H:14])[H:11])([H:8])([H:9])[H:10]>>[C:1]([C:4]([C:2](=[O:3])[H:11])([H:13])[H:14])([H:8])([H:9])[H:10].[C:5](=[O:6])([N:7]([H:15])[H:16])[H:12]"
C       -2.25935220      -0.24434434      -0.16360067
C       -0.71990470       0.31568933      -0.86169232
O       -0.09868328       1.45444844      -0.66727141
C       -0.29483386      -0.74748471       0.07501252
C        2.00088209      -0.17477816       0.03969005
O        2.77492139      -1.07687714      -0.20401579
N        2.15212146       0.63038025       1.12864903
H       -2.42416237       0.28707767       0.77402262
H       -2.64678341      -1.26046296      -0.08572530
H       -2.93656019       0.21886386      -0.88564537
H       -0.80292345      -0.00642862      -1.91509855
H        1.31341186       0.95704116      -0.93410561
H       -0.23938630      -0.54054570       1.13858456
H       -0.28565630      -1.76492846      -0.30693679
H        2.99233662       0.57468817       1.67604625
H        1.47457267       1.37766120       1.19208679
16
Frame=12 idx=008732 GeodesicLength=1.5242729202435255 rxn_smarts="[C:1]([C@@:2]([O:3][H:12])([C:4]([C:5](=[O:6])[N:7]([H:15])[H:16])([H:13])[H:14])[H:11])([H:8])([H:9])[H:10]>>[C:1]([C:4]([C:2](=[O:3])[H:11])([H:13])[H:14])([H:8])([H:9])[H:10].[C:5](=[O:6])([N:7]([H:15])[H:16])[H:12]"
C       -2.25421241      -0.25702507      -0.14683658
C       -0.71543563       0.33981367      -0.86030517
O       -0.06865272       1.46384969      -0.66485549
C       -0.30064024      -0.74241414       0.06451420
C        2.00725464      -0.20169837       0.04670134
O        2.78939799      -1.10754183      -0.15552062
N        2.13840651       0.63230414       1.11614157
H       -2.42153577       0.28204662       0.78626555
H       -2.64328933      -1.27174316      -0.05671963
H       -2.94043931       0.19374664      -0.86884030
H       -0.81302064       0.03234548      -1.91703427
H        1.34467625       0.98238465      -0.97542954
H       -0.23836547      -0.55093444       1.13065997
H       -0.29408398      -1.75056329      -0.34138823
H        2.96086158       0.58423451       1.69005354
H        1.44907853       1.37119490       1.15259365
16
Frame=13 idx=008732 GeodesicLength=1.6492832767608259 rxn_smarts="[C:1]([C@@:2]([O:3][H:12])([C:4]([C:5](=[O:6])[N:7]([H:15])[H:16])([H:13])[H:14])[H:11])([H:8])([H:9])[H:10]>>[C:1]([C:4]([C:2](=[O:3])[H:11])([H:13])[H:14])([H:8])([H:9])[H:10].[C:5](=[O:6])([N:7]([H:15])[H:16])[H:12]"
C       -2.24948197      -0.27049183      -0.13102706
C       -0.71113476       0.36411865      -0.85798924
O       -0.03908649       1.47309923      -0.66290060
C       -0.30691627      -0.73639905       0.05542986
C        2.01277206      -0.22917528       0.05420175
O        2.80186752      -1.13756590      -0.10784041
N        2.12646141       0.63327004       1.10258731
H       -2.42084768       0.27662832       0.79694740
H       -2.63928098      -1.28396844      -0.02814552
H       -2.94370153       0.16671399      -0.85431275
H       -0.82260489       0.07086421      -1.91759246
H        1.37544647       1.01144185      -1.01567420
H       -0.23802660      -0.55934187       1.12372676
H       -0.30247914      -1.73499166      -0.37350091
H        2.93026486       0.59202674       1.70237550
H        1.42674797       1.36377102       1.11371456
16
Frame=14 idx=008732 GeodesicLength=1.7741894174842694 rxn_smarts="[C:1]([C@@:2]([O:3][H:12])([C:4]([C:5](=[O:6])[N:7]([H:15])[H:16])([H:13])[H:14])[H:11])([H:8])([H:9])[H:10]>>[C:1]([C:4]([C:2](=[O:3])[H:11])([H:13])[H:14])([H:8])([H:9])[H:10].[C:5](=[O:6])([N:7]([H:15])[H:16])[H:12]"
C       -2.24515876      -0.28469007      -0.11609823
C       -0.70698901       0.38855232      -0.85476804
O       -0.00998017       1.48214442      -0.66136327
C       -0.31364006      -0.72951783       0.04775000
C        2.01740052      -0.25739775       0.06224326
O        2.81249018      -1.16717427      -0.06092145
N        2.11632310       0.63332975       1.08789338
H       -2.42207324       0.27085990       0.80611354
H       -2.63480356      -1.29705377       0.00000758
H       -2.94629439       0.13783084      -0.84199454
H       -0.83173117       0.10905873      -1.91682993
H        1.40575458       1.04459198      -1.05501856
H       -0.23834694      -0.56582037       1.11781970
H       -0.31084008      -1.71835010      -0.40329037
H        2.90046090       0.59814449       1.71312158
H        1.40742811       1.35549173       1.07533536
16
Frame=15 idx=008732 GeodesicLength=1.8990068731117111 rxn_smarts="[C:1]([C@@:2]([O:3][H:12])([C:4]([C:5](=[O:6])[N:7]([H:15])[H:16])([H:13])[H:14])[H:11])([H:8])([H:9])[H:10]>>[C:1]([C:4]([C:2](=[O:3])[H:11])([H:13])[H:14])([H:8])([H:9])[H:10].[C:5](=[O:6])([N:7]([H:15])[H:16])[H:12]"
C       -2.24124810      -0.29956164      -0.10200014
C       -0.70296914       0.41304766      -0.85066373
O        0.01868226       1.49091193      -0.66018137
C       -0.32081483      -0.72186242       0.04148431
C        2.02107479      -0.28658866       0.07092617
O        2.82141228      -1.19658607      -0.01470623
N        2.10802073       0.63245796       1.07199036
H       -2.42521001       0.26479033       0.81376892
H       -2.62992901      -1.31090315       0.02773414
H       -2.94814602       0.10716527      -0.83185363
H       -0.84040864       0.14684464      -1.91480084
H        1.43561084       1.08231279      -1.09353035
H       -0.23934802      -0.57042727       1.11299089
H       -0.31919008      -1.70079036      -0.43074626
H        2.87149472       0.60282672       1.72220417
H        1.39096822       1.34636227       1.03738360
16
Frame=16 idx=008732 GeodesicLength=2.023748546124132 rxn_smarts="[C:1]([C@@:2]([O:3][H:12])([C:4]([C:5](=[O:6])[N:7]([H:15])[H:16])([H:13])[H:14])[H:11])([H:8])([H:9])[H:10]>>[C:1]([C:4]([C:2](=[O:3])[H:11])([H:13])[H:14])([H:8])([H:9])[H:10].[C:5](=[O:6])([N:7]([H:15])[H:16])[H:12]"
C       -2.23777323      -0.31504983      -0.08871876
C       -0.69903310       0.43751926      -0.84569404
O        0.04692195       1.49930584      -0.65925579
C       -0.32847643      -0.71354217       0.03666152
C        2.02368714      -0.31701428       0.08042244
O        2.82874332      -1.22604857       0.03090204
N        2.10155125       0.63053822       1.05485919
H       -2.43029206       0.25847053       0.81986636
H       -2.62476834      -1.32541414       0.05499037
H       -2.94917073       0.07478769      -0.82390841
H       -0.84859617       0.18412307      -1.91155740
H        1.46500166       1.12521160      -1.13112806
H       -0.24110899      -0.57323233       1.10931031
H       -0.32758090      -1.68248078      -0.45583841
H        2.84368321       0.60652272       1.72924662
H        1.37721141       1.33630318       0.99984201
