18
Frame=0 idx=002228 GeodesicLength=0.0 rxn_smarts="[C:1]([O:2][C:3]([C:4]([C:5]([H:13])([H:14])[H:15])([C:6]([H:16])([H:17])[H:18])[H:12])([H:10])[H:11])([H:7])([H:8])[H:9]>>[C:1]([O+:2]=[C-:3][H:11])([H:7])([H:8])[H:9].[C:4]([C:5]([H:13])([H:14])[H:15])([C:6]([H:16])([H:17])[H:18])([H:10])[H:12]"
C        2.61392865       0.44273690       0.46566787
O        1.50634422      -0.24106229       1.02593227
C        0.87671898      -1.05953669       0.16819386
C       -0.82442930       0.10512144      -0.60944944
C       -1.04083348       1.05404937       0.53635077
C       -1.88483365      -0.94559585      -0.82758100
H        3.26607470      -0.25741018      -0.05972185
H        3.14719297       0.91939762       1.28696904
H        2.27436724       1.21030040      -0.23778721
H        0.36700256      -0.51902680      -0.78761055
H        0.12455894      -1.62180609       0.72523070
H       -0.63148509       0.65749001      -1.53686790
H       -0.14331341       1.63455986       0.75766590
H       -1.84268521       1.76225904       0.30486904
H       -1.31452664       0.51866252       1.44749982
H       -1.53439299      -1.72936312      -1.50445236
H       -2.17230670      -1.41834942       0.11402521
H       -2.78738183      -0.51242668      -1.26893415
18
Frame=1 idx=002228 GeodesicLength=0.06655504991019719 rxn_smarts="[C:1]([O:2][C:3]([C:4]([C:5]([H:13])([H:14])[H:15])([C:6]([H:16])([H:17])[H:18])[H:12])([H:10])[H:11])([H:7])([H:8])[H:9]>>[C:1]([O+:2]=[C-:3][H:11])([H:7])([H:8])[H:9].[C:4]([C:5]([H:13])([H:14])[H:15])([C:6]([H:16])([H:17])[H:18])([H:10])[H:12]"
C        2.63060937       0.43533398       0.47077320
O        1.50775711      -0.22784599       1.02517262
C        0.87741873      -1.04657363       0.16838642
C       -0.82667650       0.10589679      -0.60977096
C       -1.05641819       1.05788239       0.53290303
C       -1.88713133      -0.94665167      -0.82631131
H        3.27586332      -0.27764606      -0.04619552
H        3.16587550       0.90663362       1.29386682
H        2.30705741       1.20546161      -0.23741164
H        0.36981536      -0.51422305      -0.81084127
H        0.14366013      -1.62730857       0.73205638
H       -0.64759631       0.66442245      -1.53652894
H       -0.16845409       1.65562447       0.74674651
H       -1.87156609       1.75102432       0.30280673
H       -1.31795154       0.52247767       1.44773662
H       -1.54259993      -1.72289670      -1.51462987
H       -2.16327341      -1.42880544       0.11401363
H       -2.79638953      -0.51280619      -1.25277247
18
Frame=2 idx=002228 GeodesicLength=0.13299479508434175 rxn_smarts="[C:1]([O:2][C:3]([C:4]([C:5]([H:13])([H:14])[H:15])([C:6]([H:16])([H:17])[H:18])[H:12])([H:10])[H:11])([H:7])([H:8])[H:9]>>[C:1]([O+:2]=[C-:3][H:11])([H:7])([H:8])[H:9].[C:4]([C:5]([H:13])([H:14])[H:15])([C:6]([H:16])([H:17])[H:18])([H:10])[H:12]"
C        2.64745844       0.42760372       0.47587984
O        1.50931919      -0.21410649       1.02412232
C        0.87799187      -1.03312928       0.16849993
C       -0.82901870       0.10694904      -0.61007532
C       -1.07236842       1.06173722       0.52950554
C       -1.88933382      -0.94765677      -0.82504287
H        3.28539518      -0.29852620      -0.03222182
H        3.18456759       0.89360416       1.30079296
H        2.34050227       1.19988754      -0.23733301
H        0.37229674      -0.50897533      -0.83411789
H        0.16368473      -1.63249505       0.73875135
H       -0.66385734       0.67140889      -1.53607757
H       -0.19452426       1.67683825       0.73574784
H       -1.90072183       1.73938475       0.30097867
H       -1.32146457       0.52644569       1.44799947
H       -1.55074573      -1.71625401      -1.52464801
H       -2.15397489      -1.43917710       0.11383572
H       -2.80520644      -0.51353904      -1.23659714
18
Frame=3 idx=002228 GeodesicLength=0.19931402538373938 rxn_smarts="[C:1]([O:2][C:3]([C:4]([C:5]([H:13])([H:14])[H:15])([C:6]([H:16])([H:17])[H:18])[H:12])([H:10])[H:11])([H:7])([H:8])[H:9]>>[C:1]([O+:2]=[C-:3][H:11])([H:7])([H:8])[H:9].[C:4]([C:5]([H:13])([H:14])[H:15])([C:6]([H:16])([H:17])[H:18])([H:10])[H:12]"
C        2.66447368       0.41953031       0.48098796
O        1.51104266      -0.19980677       1.02276354
C        0.87844417      -1.01918937       0.16855222
C       -0.83146350       0.10828865      -0.61036025
C       -1.08869107       1.06560885       0.52616465
C       -1.89143564      -0.94861138      -0.82377582
H        3.29462656      -0.32007572      -0.01775521
H        3.20326522       0.88031006       1.30774110
H        2.37472816       1.19351581      -0.23756811
H        0.37443891      -0.50326416      -0.85744745
H        0.18467608      -1.63732148       0.74527854
H       -0.68027854       0.67845945      -1.53551355
H       -0.22155720       1.69819154       0.72467027
H       -1.93015282       1.72732418       0.29939962
H       -1.32506579       0.53057214       1.44829179
H       -1.55881893      -1.70943991      -1.53450054
H       -2.14440245      -1.44945642       0.11349017
H       -2.81382949      -0.51463577      -1.22041893
18
Frame=4 idx=002228 GeodesicLength=0.26550605267902666 rxn_smarts="[C:1]([O:2][C:3]([C:4]([C:5]([H:13])([H:14])[H:15])([C:6]([H:16])([H:17])[H:18])[H:12])([H:10])[H:11])([H:7])([H:8])[H:9]>>[C:1]([O+:2]=[C-:3][H:11])([H:7])([H:8])[H:9].[C:4]([C:5]([H:13])([H:14])[H:15])([C:6]([H:16])([H:17])[H:18])([H:10])[H:12]"
C        2.68164680       0.41109977       0.48609990
O        1.51294062      -0.18491254       1.02107646
C        0.87878025      -1.00474302       0.16856187
C       -0.83401591       0.10992551      -0.61062434
C       -1.10538971       1.06949242       0.52288574
C       -1.89343026      -0.94951433      -0.82251015
H        3.30350883      -0.34231257      -0.00274730
H        3.22195597       0.86675848       1.31470573
H        2.40975421       1.18627620      -0.23813419
H        0.37623430      -0.49707357      -0.88083788
H        0.20667990      -1.64174478       0.75159849
H       -0.69686849       0.68558306      -1.53483750
H       -0.24958155       1.71967133       0.71351286
H       -1.95985307       1.71482606       0.29808562
H       -1.32875137       0.53486351       1.44861620
H       -1.56680955      -1.70245796      -1.54418347
H       -2.13454499      -1.45963437       0.11297518
H       -2.82225600      -0.51610320      -1.20424323
18
Frame=5 idx=002228 GeodesicLength=0.3315608197794472 rxn_smarts="[C:1]([O:2][C:3]([C:4]([C:5]([H:13])([H:14])[H:15])([C:6]([H:16])([H:17])[H:18])[H:12])([H:10])[H:11])([H:7])([H:8])[H:9]>>[C:1]([O+:2]=[C-:3][H:11])([H:7])([H:8])[H:9].[C:4]([C:5]([H:13])([H:14])[H:15])([C:6]([H:16])([H:17])[H:18])([H:10])[H:12]"
C        2.69896189       0.40230098       0.49121969
O        1.51502917      -0.16940096       1.01903910
C        0.87900679      -0.98978583       0.16854519
C       -0.83667649       0.11186678      -0.61086513
C       -1.12245944       1.07338183       0.51967393
C       -1.89531286      -0.95036213      -0.82124443
H        3.31199540      -0.36524802       0.01284645
H        3.24061216       0.85296470       1.32168509
H        2.44557762       1.17810478      -0.23904702
H        0.37767681      -0.49039308      -0.90430033
H        0.22974099      -1.64572253       0.75766656
H       -0.71363054       0.69278457      -1.53404917
H       -0.27861808       1.74125824       0.70227953
H       -1.98980457       1.70187779       0.29704919
H       -1.33251185       0.53932805       1.44897576
H       -1.57470992      -1.69531531      -1.55368706
H       -2.12439695      -1.46969672       0.11229344
H       -2.83048015      -0.51794315      -1.18808078
18
Frame=6 idx=002228 GeodesicLength=0.39746330629421284 rxn_smarts="[C:1]([O:2][C:3]([C:4]([C:5]([H:13])([H:14])[H:15])([C:6]([H:16])([H:17])[H:18])[H:12])([H:10])[H:11])([H:7])([H:8])[H:9]>>[C:1]([O+:2]=[C-:3][H:11])([H:7])([H:8])[H:9].[C:4]([C:5]([H:13])([H:14])[H:15])([C:6]([H:16])([H:17])[H:18])([H:10])[H:12]"
C        2.71639724       0.39312566       0.49635382
O        1.51732676      -0.15324953       1.01662941
C        0.87912902      -0.97431890       0.16851754
C       -0.83944255       0.11411736      -0.61108163
C       -1.13989082       1.07727037       0.51653329
C       -1.89707564      -0.95115162      -0.81997763
H        3.32001806      -0.38887286       0.02907199
H        3.25921132       0.83894507       1.32867268
H        2.48219084       1.16892336      -0.24030977
H        0.37876123      -0.48321707      -0.92784576
H        0.25389823      -1.64920919       0.76344033
H       -0.73056573       0.70006707      -1.53314972
H       -0.30868383       1.76293185       0.69096411
H       -2.01998309       1.68846304       0.29630698
H       -1.33633247       0.54397586       1.44937163
H       -1.58251648      -1.68801357      -1.56300959
H       -2.11394582      -1.47963128       0.11144443
H       -2.83849628      -0.52015564      -1.17193210
18
Frame=7 idx=002228 GeodesicLength=0.4631945259389899 rxn_smarts="[C:1]([O:2][C:3]([C:4]([C:5]([H:13])([H:14])[H:15])([C:6]([H:16])([H:17])[H:18])[H:12])([H:10])[H:11])([H:7])([H:8])[H:9]>>[C:1]([O+:2]=[C-:3][H:11])([H:7])([H:8])[H:9].[C:4]([C:5]([H:13])([H:14])[H:15])([C:6]([H:16])([H:17])[H:18])([H:10])[H:12]"
C        2.73391764       0.38357118       0.50150837
O        1.51985361      -0.13645632       1.01382753
C        0.87915401      -0.95835559       0.16849509
C       -0.84230452       0.11667830      -0.61127198
C       -1.15766227       1.08115064       0.51346691
C       -1.89871225      -0.95187616      -0.81870701
H        3.32751800      -0.41316262       0.04595586
H        3.27770623       0.82473183       1.33567289
H        2.51955428       1.15866657      -0.24192454
H        0.37948424      -0.47555161      -0.95148650
H        0.27918372      -1.65216997       0.76887267
H       -0.74766354       0.70742728      -1.53213964
H       -0.33978016       1.78466291       0.67956770
H       -2.05034583       1.67457324       0.29587055
H       -1.34018991       0.54881814       1.44980543
H       -1.59022759      -1.68055984      -1.57214167
H       -2.10319190      -1.48941600       0.11043199
H       -2.84629375      -0.52273198      -1.15580366
18
Frame=8 idx=002228 GeodesicLength=0.5287339017753037 rxn_smarts="[C:1]([O:2][C:3]([C:4]([C:5]([H:13])([H:14])[H:15])([C:6]([H:16])([H:17])[H:18])[H:12])([H:10])[H:11])([H:7])([H:8])[H:9]>>[C:1]([O+:2]=[C-:3][H:11])([H:7])([H:8])[H:9].[C:4]([C:5]([H:13])([H:14])[H:15])([C:6]([H:16])([H:17])[H:18])([H:10])[H:12]"
C        2.75148179       0.37364046       0.50669103
O        1.52263307      -0.11902508       1.01061730
C        0.87908591      -0.94191977       0.16849981
C       -0.84524784       0.11954697      -0.61143415
C       -1.17574494       1.08501480       0.51047644
C       -1.90021629      -0.95252737      -0.81743097
H        3.33441726      -0.43807887       0.06352411
H        3.29605868       0.81035890       1.34267628
H        2.55760313       1.14727060      -0.24387993
H        0.37984351      -0.46741233      -0.97523176
H        0.30563169      -1.65457027       0.77391533
H       -0.76490589       0.71485838      -1.53101945
H       -0.37190429       1.80641812       0.66809106
H       -2.08084060       1.66019939       0.29575116
H       -1.34405688       0.55387027       1.45027663
H       -1.59784560      -1.67295743      -1.58107814
H       -2.09213229      -1.49902950       0.10925749
H       -2.85386043      -0.52565727      -1.13970224
18
Frame=9 idx=002228 GeodesicLength=0.5940950289737893 rxn_smarts="[C:1]([O:2][C:3]([C:4]([C:5]([H:13])([H:14])[H:15])([C:6]([H:16])([H:17])[H:18])[H:12])([H:10])[H:11])([H:7])([H:8])[H:9]>>[C:1]([O+:2]=[C-:3][H:11])([H:7])([H:8])[H:9].[C:4]([C:5]([H:13])([H:14])[H:15])([C:6]([H:16])([H:17])[H:18])([H:10])[H:12]"
C        2.76907313       0.36334036       0.51189167
O        1.52569262      -0.10093557       1.00700130
C        0.87893922      -0.92505418       0.16855204
C       -0.84825278       0.12271602      -0.61156082
C       -1.19412016       1.08884245       0.50757596
C       -1.90158002      -0.95309064      -0.81617467
H        3.34068439      -0.46354065       0.08175725
H        3.31427550       0.79591259       1.34961146
H        2.59629662       1.13461228      -0.24616418
H        0.37985672      -0.45881505      -0.99908829
H        0.33313350      -1.65638609       0.77864813
H       -0.78226876       0.72236841      -1.52977335
H       -0.40506447       1.82814384       0.65657763
H       -2.11144361       1.64530158       0.29597572
H       -1.34790239       0.55913242       1.45079377
H       -1.60534669      -1.66520460      -1.58983600
H       -2.08080325      -1.50844087       0.10789851
H       -2.86116959      -0.52890231      -1.12368616
18
Frame=10 idx=002228 GeodesicLength=0.6592300852585591 rxn_smarts="[C:1]([O:2][C:3]([C:4]([C:5]([H:13])([H:14])[H:15])([C:6]([H:16])([H:17])[H:18])[H:12])([H:10])[H:11])([H:7])([H:8])[H:9]>>[C:1]([O+:2]=[C-:3][H:11])([H:7])([H:8])[H:9].[C:4]([C:5]([H:13])([H:14])[H:15])([C:6]([H:16])([H:17])[H:18])([H:10])[H:12]"
C        2.78661313       0.35268293       0.51712761
O        1.52905014      -0.08224328       1.00294833
C        0.87870942      -0.90778530       0.16867964
C       -0.85129973       0.12618235      -0.61165195
C       -1.21273593       1.09263512       0.50475853
C       -1.90279703      -0.95355929      -0.81491352
H        3.34621302      -0.48951125       0.10071961
H        3.33225969       0.78140297       1.35652045
H        2.63550783       1.12069411      -0.24877036
H        0.37950832      -0.44979317      -1.02306664
H        0.36182345      -1.65759997       0.78291049
H       -0.79972145       0.72993346      -1.52841250
H       -0.43921751       1.84981284       0.64498880
H       -2.14205885       1.62990970       0.29654089
H       -1.35169854       0.56462936       1.45135005
H       -1.61275918      -1.65730659      -1.59839175
H       -2.06917849      -1.51763534       0.10637794
H       -2.86821830      -0.53244865      -1.10771565
18
Frame=11 idx=002228 GeodesicLength=0.7241247738041199 rxn_smarts="[C:1]([O:2][C:3]([C:4]([C:5]([H:13])([H:14])[H:15])([C:6]([H:16])([H:17])[H:18])[H:12])([H:10])[H:11])([H:7])([H:8])[H:9]>>[C:1]([O+:2]=[C-:3][H:11])([H:7])([H:8])[H:9].[C:4]([C:5]([H:13])([H:14])[H:15])([C:6]([H:16])([H:17])[H:18])([H:10])[H:12]"
C        2.80404338       0.34168942       0.52239690
O        1.53272651      -0.06299270       0.99844581
C        0.87840261      -0.89015965       0.16890811
C       -0.85436431       0.12993692      -0.61170117
C       -1.23154820       1.09638163       0.50203114
C       -1.90386072      -0.95392087      -0.81364733
H        3.35094674      -0.51592749       0.12043778
H        3.34994932       0.76689703       1.36338585
H        2.67512257       1.10547055      -0.25169233
H        0.37880079      -0.44038006      -1.04717583
H        0.39170786      -1.65819923       0.78665580
H       -0.81722623       0.73754426      -1.52693083
H       -0.47432161       1.87137715       0.63332666
H       -2.17261879       1.61402630       0.29745640
H       -1.35541372       0.57037212       1.45194849
H       -1.62008541      -1.64926525      -1.60674032
H       -2.05727137      -1.52658780       0.10469717
H       -2.87498941      -0.53626233      -1.09180229
18
Frame=12 idx=002228 GeodesicLength=0.7887622487034561 rxn_smarts="[C:1]([O:2][C:3]([C:4]([C:5]([H:13])([H:14])[H:15])([C:6]([H:16])([H:17])[H:18])[H:12])([H:10])[H:11])([H:7])([H:8])[H:9]>>[C:1]([O+:2]=[C-:3][H:11])([H:7])([H:8])[H:9].[C:4]([C:5]([H:13])([H:14])[H:15])([C:6]([H:16])([H:17])[H:18])([H:10])[H:12]"
C        2.82130087       0.33038435       0.52770001
O        1.53674162      -0.04324421       0.99349454
C        0.87802052      -0.87223893       0.16927518
C       -0.85741517       0.13396605      -0.61170129
C       -1.25050371       1.10007297       0.49939650
C       -1.90476502      -0.95416021      -0.81237645
H        3.35482401      -0.54269328       0.14090649
H        3.36728943       0.75246412       1.37018613
H        2.71499495       1.08891188      -0.25490300
H        0.37773768      -0.43062769      -1.07141674
H        0.42278062      -1.65818452       0.78983392
H       -0.83473231       0.74518481      -1.52532372
H       -0.51032654       1.89278370       0.62159083
H       -2.20303883       1.59766141       0.29872756
H       -1.35901450       0.57637557       1.45258851
H       -1.62733233      -1.64108162      -1.61487842
H       -2.04509825      -1.53527199       0.10285742
H       -2.88146304      -0.54030242      -1.07595747
18
Frame=13 idx=002228 GeodesicLength=0.8531267726585925 rxn_smarts="[C:1]([O:2][C:3]([C:4]([C:5]([H:13])([H:14])[H:15])([C:6]([H:16])([H:17])[H:18])[H:12])([H:10])[H:11])([H:7])([H:8])[H:9]>>[C:1]([O+:2]=[C-:3][H:11])([H:7])([H:8])[H:9].[C:4]([C:5]([H:13])([H:14])[H:15])([C:6]([H:16])([H:17])[H:18])([H:10])[H:12]"
C        2.83831008       0.31880774       0.53303463
O        1.54111352      -0.02309225       0.98810402
C        0.87756646      -0.85410504       0.16982040
C       -0.86041408       0.13824921      -0.61164494
C       -1.26953514       1.10369973       0.49685601
C       -1.90550703      -0.95426061      -0.81110036
H        3.35779579      -0.56969062       0.16210610
H        3.38420991       0.73818923       1.37689628
H        2.75494256       1.07101320      -0.25836862
H        0.37632904      -0.42060087      -1.09579097
H        0.45502180      -1.65757565       0.79239486
H       -0.85217414       0.75283260      -1.52358535
H       -0.54715645       1.91397325       0.60978871
H       -2.23322098       1.58083317       0.30035458
H       -1.36246003       0.58265739       1.45326960
H       -1.63451054      -1.63276006      -1.62279680
H       -2.03269257      -1.54365455       0.10086253
H       -2.88761819      -0.54451587      -1.06020069
18
Frame=14 idx=002228 GeodesicLength=0.9172086777478061 rxn_smarts="[C:1]([O:2][C:3]([C:4]([C:5]([H:13])([H:14])[H:15])([C:6]([H:16])([H:17])[H:18])[H:12])([H:10])[H:11])([H:7])([H:8])[H:9]>>[C:1]([O+:2]=[C-:3][H:11])([H:7])([H:8])[H:9].[C:4]([C:5]([H:13])([H:14])[H:15])([C:6]([H:16])([H:17])[H:18])([H:10])[H:12]"
C        2.85499457       0.30700953       0.53839563
O        1.54585927      -0.00263849       0.98230597
C        0.87704108      -0.83585625       0.17059663
C       -0.86331566       0.14275927      -0.61152051
C       -1.28856900       1.10725221       0.49441089
C       -1.90608483      -0.95420309      -0.80982323
H        3.35981459      -0.59677226       0.18398566
H        3.40066839       0.72415730       1.38348179
H        2.79475531       1.05179626      -0.26204468
H        0.37458734      -0.41038400      -1.12029023
H        0.48838115      -1.65642198       0.79430942
H       -0.86947086       0.76046237      -1.52170796
H       -0.58472935       1.93488303       0.59791834
H       -2.26305661       1.56356772       0.30233311
H       -1.36571298       0.58923255       1.45398997
H       -1.64163613      -1.62429775      -1.63049730
H       -2.02009313      -1.55170713       0.09870923
H       -2.89343314      -0.54883931      -1.04455271
18
Frame=15 idx=002228 GeodesicLength=0.9809968945373458 rxn_smarts="[C:1]([O:2][C:3]([C:4]([C:5]([H:13])([H:14])[H:15])([C:6]([H:16])([H:17])[H:18])[H:12])([H:10])[H:11])([H:7])([H:8])[H:9]>>[C:1]([O+:2]=[C-:3][H:11])([H:7])([H:8])[H:9].[C:4]([C:5]([H:13])([H:14])[H:15])([C:6]([H:16])([H:17])[H:18])([H:10])[H:12]"
C        2.87126913       0.29505168       0.54377592
O        1.55098865       0.01797601       0.97615199
C        0.87644099      -0.81761021       0.17166948
C       -0.86606737       0.14746171      -0.61131710
C       -1.30752055       1.11072652       0.49205408
C       -1.90650032      -0.95396795      -0.80854613
H        3.36084466      -0.62376035       0.20644485
H        3.41661893       0.71044687       1.38990756
H        2.83418035       1.03133310      -0.26585861
H        0.37253150      -0.40008043      -1.14490002
H        0.52280157      -1.65479773       0.79553999
H       -0.88652361       0.76803730      -1.51968666
H       -0.62294033       1.95544679       0.58598725
H       -2.29242115       1.54590655       0.30464515
H       -1.36873381       0.59612586       1.45474257
H       -1.64872541      -1.61570211      -1.63796905
H       -2.00735774      -1.55939312       0.09640315
H       -2.89888550      -0.55320050      -1.02904441
18
Frame=16 idx=002228 GeodesicLength=1.0444966247256722 rxn_smarts="[C:1]([O:2][C:3]([C:4]([C:5]([H:13])([H:14])[H:15])([C:6]([H:16])([H:17])[H:18])[H:12])([H:10])[H:11])([H:7])([H:8])[H:9]>>[C:1]([O+:2]=[C-:3][H:11])([H:7])([H:8])[H:9].[C:4]([C:5]([H:13])([H:14])[H:15])([C:6]([H:16])([H:17])[H:18])([H:10])[H:12]"
C        2.88706643       0.28299651       0.54916847
O        1.55650435       0.03862393       0.96972119
C        0.87576031      -0.79948831       0.17311499
C       -0.86861803       0.15232073      -0.61101900
C       -1.32631585       1.11411864       0.48978149
C       -1.90675621      -0.95353748      -0.80727578
H        3.36086478      -0.65047683       0.22936871
H        3.43205490       0.69712671       1.39612633
H        2.87297888       1.00970601      -0.26975183
H        0.37018503      -0.38979081      -1.16959644
H        0.55820392      -1.65279402       0.79606670
H       -0.90323208       0.77552574      -1.51751226
H       -0.66169768       1.97560493       0.57399599
H       -2.32120708       1.52789154       0.30727067
H       -1.37149601       0.60336065       1.45552274
H       -1.65579106      -1.60697405      -1.64521308
H       -1.99454764      -1.56668548       0.09394262
H       -2.90395697      -0.55752842      -1.01371151
