11
Frame=0 idx=000908 GeodesicLength=0.0 rxn_smarts="[N:1]([c:2]1[n:3][n:4]([H:9])[c:5]([H:10])[c:6]1[H:11])([H:7])[H:8]>>[N:1]([C:6](=[C:2]=[N:3][N:4]([C:5][H:10])[H:9])[H:11])([H:7])[H:8]"
N       -2.06652839      -0.12335241       0.10291166
C       -0.38231015       0.01042617      -0.18995591
N        0.41702147      -0.95668150      -0.32036105
N        1.75472813      -0.64228696      -0.06984182
C        2.23774099       0.54980384       0.05044909
C       -1.18490372       1.02171980      -0.03877852
H       -2.60170503      -0.45031794      -0.68657092
H       -2.41724807      -0.39493885       1.01112892
H        2.28164879      -1.50709144      -0.02478478
H        3.31554920       0.41410571       0.24044600
H       -1.35399323       2.07861354      -0.07464263
11
Frame=1 idx=000908 GeodesicLength=0.10693705328199056 rxn_smarts="[N:1]([c:2]1[n:3][n:4]([H:9])[c:5]([H:10])[c:6]1[H:11])([H:7])[H:8]>>[N:1]([C:6](=[C:2]=[N:3][N:4]([C:5][H:10])[H:9])[H:11])([H:7])[H:8]"
N       -2.06275838      -0.11042751       0.12042250
C       -0.39484755      -0.03843833      -0.28136597
N        0.41501434      -1.00435049      -0.33730096
N        1.74141452      -0.65078097      -0.07824973
C        2.16738515       0.55991576       0.08459325
C       -1.12121627       1.01056741      -0.02072267
H       -2.65520593      -0.37506863      -0.65101486
H       -2.35683874      -0.43532352       1.03074038
H        2.29697625      -1.49624976      -0.02319610
H        3.25065205       0.47487192       0.27596558
H       -1.28057544       2.06528412      -0.11987142
11
Frame=2 idx=000908 GeodesicLength=0.21566640751859495 rxn_smarts="[N:1]([c:2]1[n:3][n:4]([H:9])[c:5]([H:10])[c:6]1[H:11])([H:7])[H:8]>>[N:1]([C:6](=[C:2]=[N:3][N:4]([C:5][H:10])[H:9])[H:11])([H:7])[H:8]"
N       -2.05705886      -0.09844499       0.13680389
C       -0.40634725      -0.08097062      -0.34697533
N        0.41317740      -1.04145754      -0.35949084
N        1.72919739      -0.65664102      -0.09161753
C        2.10087422       0.56617742       0.12095972
C       -1.05850179       0.99796788      -0.00786356
H       -2.69405956      -0.30415256      -0.61671346
H       -2.30765268      -0.47537440       1.03965328
H        2.30439628      -1.48607682      -0.00988043
H        3.18892220       0.53097919       0.29359102
H       -1.21294734       2.04799346      -0.15846676
11
Frame=3 idx=000908 GeodesicLength=0.32470099967457844 rxn_smarts="[N:1]([c:2]1[n:3][n:4]([H:9])[c:5]([H:10])[c:6]1[H:11])([H:7])[H:8]>>[N:1]([C:6](=[C:2]=[N:3][N:4]([C:5][H:10])[H:9])[H:11])([H:7])[H:8]"
N       -2.04930223      -0.08681249       0.15506250
C       -0.41706352      -0.11850175      -0.39731551
N        0.41182384      -1.07233744      -0.38529317
N        1.71792413      -0.66102107      -0.10721357
C        2.03878430       0.56988937       0.15011319
C       -0.99883510       0.98578844      -0.00285969
H       -2.72310960      -0.24007677      -0.57832442
H       -2.26367917      -0.51096444       1.04570175
H        2.30900726      -1.47616964      -0.00186748
H        3.12662743       0.58087523       0.31988912
H       -1.15217734       2.02933056      -0.19789272
11
Frame=4 idx=000908 GeodesicLength=0.4356969701931349 rxn_smarts="[N:1]([c:2]1[n:3][n:4]([H:9])[c:5]([H:10])[c:6]1[H:11])([H:7])[H:8]>>[N:1]([C:6](=[C:2]=[N:3][N:4]([C:5][H:10])[H:9])[H:11])([H:7])[H:8]"
N       -2.04170662      -0.07659325       0.17294448
C       -0.42685570      -0.15070976      -0.43607924
N        0.41135214      -1.09769251      -0.41235941
N        1.70751298      -0.66456185      -0.12025614
C        1.98268718       0.57385857       0.16288433
C       -0.94196198       0.97428449       0.00218943
H       -2.74547602      -0.17793393      -0.54169258
H       -2.22793709      -0.54971836       1.04534389
H        2.31053746      -1.46721786       0.01443783
H        3.06864638       0.62548072       0.34374473
H       -1.09679875       2.01080374      -0.23115732
11
Frame=5 idx=000908 GeodesicLength=0.543768185543749 rxn_smarts="[N:1]([c:2]1[n:3][n:4]([H:9])[c:5]([H:10])[c:6]1[H:11])([H:7])[H:8]>>[N:1]([C:6](=[C:2]=[N:3][N:4]([C:5][H:10])[H:9])[H:11])([H:7])[H:8]"
N       -2.03195948      -0.06569551       0.19251105
C       -0.43617476      -0.18060634      -0.46712956
N        0.41093679      -1.12080396      -0.43625059
N        1.69756640      -0.66715471      -0.13322223
C        1.92963455       0.57534820       0.18130138
C       -0.88883604       0.96375804      -0.00027093
H       -2.76063581      -0.12165628      -0.50072830
H       -2.19392373      -0.58142975       1.04423770
H        2.31268148      -1.45766940       0.01482053
H        3.00901883       0.66484666       0.37519764
H       -1.04830822       1.99106306      -0.27046668
11
Frame=6 idx=000908 GeodesicLength=0.6539379984473424 rxn_smarts="[N:1]([c:2]1[n:3][n:4]([H:9])[c:5]([H:10])[c:6]1[H:11])([H:7])[H:8]>>[N:1]([C:6](=[C:2]=[N:3][N:4]([C:5][H:10])[H:9])[H:11])([H:7])[H:8]"
N       -2.02357135      -0.05576549       0.21135505
C       -0.44462111      -0.20748821      -0.49050003
N        0.41096741      -1.14140171      -0.45616040
N        1.68874191      -0.66938491      -0.14385827
C        1.88035370       0.57612487       0.19215299
C       -0.83797897       0.95384036      -0.00205051
H       -2.77211521      -0.06668695      -0.46267566
H       -2.16858597      -0.61448734       1.03850325
H        2.31607422      -1.44775165       0.01684146
H        2.95365994       0.70116528       0.40177948
H       -1.00292456       1.97183574      -0.30538737
11
Frame=7 idx=000908 GeodesicLength=0.7627339537588066 rxn_smarts="[N:1]([c:2]1[n:3][n:4]([H:9])[c:5]([H:10])[c:6]1[H:11])([H:7])[H:8]>>[N:1]([C:6](=[C:2]=[N:3][N:4]([C:5][H:10])[H:9])[H:11])([H:7])[H:8]"
N       -2.01499798      -0.04637570       0.22995374
C       -0.45234399      -0.23212472      -0.50846416
N        0.41114571      -1.16012322      -0.47313870
N        1.68053673      -0.67124102      -0.15272334
C        1.83555538       0.57616909       0.20247032
C       -0.78974161       0.94440428      -0.00495775
H       -2.77916650      -0.01367304      -0.42505840
H       -2.14804771      -0.64660161       1.02894158
H        2.31868529      -1.43801705       0.01689040
H        2.90000657       0.73522706       0.42485891
H       -0.96163189       1.95235595      -0.33877262
11
Frame=8 idx=000908 GeodesicLength=0.8721039689222426 rxn_smarts="[N:1]([c:2]1[n:3][n:4]([H:9])[c:5]([H:10])[c:6]1[H:11])([H:7])[H:8]>>[N:1]([C:6](=[C:2]=[N:3][N:4]([C:5][H:10])[H:9])[H:11])([H:7])[H:8]"
N       -2.00721924      -0.03779302       0.24825100
C       -0.45932628      -0.25467927      -0.52168376
N        0.41160614      -1.17721312      -0.48697209
N        1.67321154      -0.67284744      -0.16023738
C        1.79399987       0.57587925       0.20952842
C       -0.74362107       0.93539658      -0.00777677
H       -2.78337731       0.03807893      -0.38865165
H       -2.13359114      -0.67865558       1.01580281
H        2.32223279      -1.42825480       0.01679381
H        2.84943536       0.76708454       0.44463259
H       -0.92335065       1.93300392      -0.36968699
11
Frame=9 idx=000908 GeodesicLength=0.9809990169869603 rxn_smarts="[N:1]([c:2]1[n:3][n:4]([H:9])[c:5]([H:10])[c:6]1[H:11])([H:7])[H:8]>>[N:1]([C:6](=[C:2]=[N:3][N:4]([C:5][H:10])[H:9])[H:11])([H:7])[H:8]"
N       -1.99984868      -0.03016345       0.26642739
C       -0.46569098      -0.27535119      -0.53131468
N        0.41222083      -1.19275889      -0.49863465
N        1.66655329      -0.67416000      -0.16669689
C        1.75634156       0.57594713       0.21312695
C       -0.69954500       0.92676637      -0.01066169
H       -2.78488034       0.08844245      -0.35257780
H       -2.12386456      -0.71055894       0.99916268
H        2.32534324      -1.41853385       0.01737356
H        2.80163940       0.79666372       0.46220838
H       -0.88826876       1.91370665      -0.39841324
11
Frame=10 idx=000908 GeodesicLength=1.0898591156158344 rxn_smarts="[N:1]([c:2]1[n:3][n:4]([H:9])[c:5]([H:10])[c:6]1[H:11])([H:7])[H:8]>>[N:1]([C:6](=[C:2]=[N:3][N:4]([C:5][H:10])[H:9])[H:11])([H:7])[H:8]"
N       -1.99323475      -0.02355933       0.28422356
C       -0.47131013      -0.29436908      -0.53758172
N        0.41301854      -1.20712913      -0.50773882
N        1.66061293      -0.67547282      -0.17177021
C        1.72203985       0.57596717       0.21453501
C       -0.65719599       0.91833543      -0.01289206
H       -2.78404994       0.13785943      -0.31730457
H       -2.11940156      -0.74236893       0.97857502
H        2.32862528      -1.40904097       0.01872373
H        2.75654065       0.82525937       0.47549056
H       -0.85564488       1.89451884      -0.42426050
11
Frame=11 idx=000908 GeodesicLength=1.1987636206496213 rxn_smarts="[N:1]([c:2]1[n:3][n:4]([H:9])[c:5]([H:10])[c:6]1[H:11])([H:7])[H:8]>>[N:1]([C:6](=[C:2]=[N:3][N:4]([C:5][H:10])[H:9])[H:11])([H:7])[H:8]"
N       -1.98741126      -0.01811700       0.30167562
C       -0.47618885      -0.31185443      -0.54099313
N        0.41401336      -1.22044688      -0.51458193
N        1.65532392      -0.67683476      -0.17557943
C        1.69078780       0.57645890       0.21314441
C       -0.61645145       0.91005489      -0.01425734
H       -2.78113131       0.18636179      -0.28251806
H       -2.11988948      -0.77401546       0.95387803
H        2.33203057      -1.39996864       0.02146583
H        2.71432686       0.85287611       0.48480298
H       -0.82541014       1.87548547      -0.44703700
11
Frame=12 idx=000908 GeodesicLength=1.307409454632407 rxn_smarts="[N:1]([c:2]1[n:3][n:4]([H:9])[c:5]([H:10])[c:6]1[H:11])([H:7])[H:8]>>[N:1]([C:6](=[C:2]=[N:3][N:4]([C:5][H:10])[H:9])[H:11])([H:7])[H:8]"
N       -1.98223972      -0.01402423       0.31899025
C       -0.48042290      -0.32784577      -0.54226868
N        0.41516646      -1.23267152      -0.51994070
N        1.65062523      -0.67824802      -0.17836835
C        1.66284846       0.57782727       0.20794722
C       -0.57717227       0.90198027      -0.01497097
H       -2.77640054       0.23370170      -0.24745092
H       -2.12451222      -0.80535977       0.92518386
H        2.33492981      -1.39133576       0.02642276
H        2.67487505       0.87925136       0.49144372
H       -0.79769737       1.85672446      -0.46698818
11
Frame=13 idx=000908 GeodesicLength=1.4157852883855182 rxn_smarts="[N:1]([c:2]1[n:3][n:4]([H:9])[c:5]([H:10])[c:6]1[H:11])([H:7])[H:8]>>[N:1]([C:6](=[C:2]=[N:3][N:4]([C:5][H:10])[H:9])[H:11])([H:7])[H:8]"
N       -1.97774940      -0.01143895       0.33611369
C       -0.48398755      -0.34243634      -0.54175077
N        0.41647464      -1.24390834      -0.52403243
N        1.64646076      -0.67981855      -0.17999306
C        1.63806870       0.57994411       0.19929715
C       -0.53917576       0.89403774      -0.01488739
H       -2.77000220       0.27987205      -0.21182098
H       -2.13303247      -0.83621555       0.89218008
H        2.33715147      -1.38317800       0.03393920
H        2.63808967       0.90485902       0.49485611
H       -0.77229787       1.83828281      -0.48390159
11
Frame=14 idx=000908 GeodesicLength=1.5240455043737287 rxn_smarts="[N:1]([c:2]1[n:3][n:4]([H:9])[c:5]([H:10])[c:6]1[H:11])([H:7])[H:8]>>[N:1]([C:6](=[C:2]=[N:3][N:4]([C:5][H:10])[H:9])[H:11])([H:7])[H:8]"
N       -1.97396480      -0.01048263       0.35307249
C       -0.48687849      -0.35573512      -0.53972005
N        0.41797616      -1.25429038      -0.52703503
N        1.64282178      -0.68163424      -0.18049091
C        1.61620151       0.58294737       0.18673870
C       -0.50231735       0.88620635      -0.01390201
H       -2.76204144       0.32480992      -0.17528019
H       -2.14520032      -0.86630106       0.85462150
H        2.33874890      -1.37560654       0.04443617
H        2.60380196       0.92982577       0.49516819
H       -0.74914791       1.82026055      -0.49760887
11
Frame=15 idx=000908 GeodesicLength=1.632293936027392 rxn_smarts="[N:1]([c:2]1[n:3][n:4]([H:9])[c:5]([H:10])[c:6]1[H:11])([H:7])[H:8]>>[N:1]([C:6](=[C:2]=[N:3][N:4]([C:5][H:10])[H:9])[H:11])([H:7])[H:8]"
N       -1.97092300      -0.01121777       0.36982317
C       -0.48909112      -0.36797724      -0.53622835
N        0.41963167      -1.26405727      -0.52866607
N        1.63966050      -0.68369081      -0.17990022
C        1.59697566       0.58675358       0.17054465
C       -0.46644674       0.87840241      -0.01197692
H       -2.75251692       0.36841309      -0.13761788
H       -2.16086473      -0.89505916       0.81229733
H        2.33991243      -1.36849894       0.05744026
H        2.57170052       0.95436514       0.49247252
H       -0.72803829       1.80256696      -0.50818849
11
Frame=16 idx=000908 GeodesicLength=1.7404406733699398 rxn_smarts="[N:1]([c:2]1[n:3][n:4]([H:9])[c:5]([H:10])[c:6]1[H:11])([H:7])[H:8]>>[N:1]([C:6](=[C:2]=[N:3][N:4]([C:5][H:10])[H:9])[H:11])([H:7])[H:8]"
N       -1.96838424      -0.01369661       0.38663754
C       -0.49070678      -0.37929495      -0.53174967
N        0.42146382      -1.27327041      -0.52950087
N        1.63699922      -0.68597202      -0.17867641
C        1.58046851       0.59141485       0.14959402
C       -0.43135969       0.87068958      -0.00971432
H       -2.74151453       0.41039634      -0.09794285
H       -2.17916225      -0.92186347       0.76563871
H        2.34038221      -1.36173119       0.07322935
H        2.54088009       0.97811859       0.48881919
H       -0.70906634       1.78520928      -0.51633469
