14
Frame=0 idx=009419 GeodesicLength=0.0 rxn_smarts="[O:1]([C@@:2]1([H:9])[C:3]([H:10])([H:11])[O:4][C:5]([H:12])=[N:6][C:7]1([H:13])[H:14])[H:8]>>[O:1]1[C@:2]([C:3]([O:4][H:8])([H:10])[H:11])([H:9])[C:7]([H:13])([H:14])[N:6]=[C:5]1[H:12]"
O       -0.15371590      -0.73471162       1.22184526
C       -0.85877496      -0.13462794       0.12001326
C       -0.27947955       1.32420758       0.13834975
O        0.89854905       1.20427041       0.87423783
C        1.38263455      -0.59743687       0.28985783
N        1.11001335      -0.94656384      -0.85221049
C       -0.33040659      -0.86237568      -1.11099237
H        0.27003950       0.16398665       1.61227693
H       -1.93166060      -0.22292991       0.27669008
H       -0.09839844       1.66671479      -0.88669638
H       -0.97393223       2.02465344       0.61775596
H        2.22873508      -0.70651050       0.94866835
H       -0.54180411      -0.30238223      -2.02255399
H       -0.72179910      -1.87629430      -1.22724206
14
Frame=1 idx=009419 GeodesicLength=0.07791368862925051 rxn_smarts="[O:1]([C@@:2]1([H:9])[C:3]([H:10])([H:11])[O:4][C:5]([H:12])=[N:6][C:7]1([H:13])[H:14])[H:8]>>[O:1]1[C@:2]([C:3]([O:4][H:8])([H:10])[H:11])([H:9])[C:7]([H:13])([H:14])[N:6]=[C:5]1[H:12]"
O       -0.16109714      -0.73286241       1.22599415
C       -0.85900494      -0.13341914       0.11897435
C       -0.28632211       1.32497405       0.13596911
O        0.90057912       1.20738044       0.86279076
C        1.38777515      -0.60119598       0.29028319
N        1.11242809      -0.96208176      -0.84939856
C       -0.32641785      -0.86312809      -1.10931525
H        0.27415533       0.17813185       1.62464231
H       -1.93290491      -0.22090830       0.26879352
H       -0.11574269       1.67750692      -0.88694290
H       -0.97878835       2.01817466       0.62802860
H        2.23869757      -0.71919945       0.94200234
H       -0.52503885      -0.30105140      -2.02261035
H       -0.72831843      -1.87232138      -1.22921129
14
Frame=2 idx=009419 GeodesicLength=0.15581616704934775 rxn_smarts="[O:1]([C@@:2]1([H:9])[C:3]([H:10])([H:11])[O:4][C:5]([H:12])=[N:6][C:7]1([H:13])[H:14])[H:8]>>[O:1]1[C@:2]([C:3]([O:4][H:8])([H:10])[H:11])([H:9])[C:7]([H:13])([H:14])[N:6]=[C:5]1[H:12]"
O       -0.16857313      -0.73100228       1.23015033
C       -0.85924918      -0.13225103       0.11793499
C       -0.29326667       1.32572787       0.13358631
O        0.90249766       1.21042516       0.85114495
C        1.39299521      -0.60498497       0.29069512
N        1.11472141      -0.97788056      -0.84635848
C       -0.32234681      -0.86386363      -1.10761318
H        0.27845548       0.19281586       1.63702814
H       -1.93411960      -0.21900184       0.26084712
H       -0.13346729       1.68832026      -0.88701313
H       -0.98349765       2.01162408       0.63829480
H        2.24863752      -0.73213343       0.93519989
H       -0.50800040      -0.29965490      -2.02246582
H       -0.73478655      -1.86814059      -1.23143104
14
Frame=3 idx=009419 GeodesicLength=0.2337159660835435 rxn_smarts="[O:1]([C@@:2]1([H:9])[C:3]([H:10])([H:11])[O:4][C:5]([H:12])=[N:6][C:7]1([H:13])[H:14])[H:8]>>[O:1]1[C@:2]([C:3]([O:4][H:8])([H:10])[H:11])([H:9])[C:7]([H:13])([H:14])[N:6]=[C:5]1[H:12]"
O       -0.17614912      -0.72913975       1.23431322
C       -0.85951112      -0.13112571       0.11689676
C       -0.30031465       1.32646607       0.13120404
O        0.90430406       1.21340118       0.83929966
C        1.39829791      -0.60880692       0.29108928
N        1.11688506      -0.99395559      -0.84308649
C       -0.31819437      -0.86458341      -1.10588736
H        0.28295528       0.20806315       1.64943093
H       -1.93530950      -0.21721303       0.25285231
H       -0.15156778       1.69914486      -0.88689693
H       -0.98806132       2.00500163       0.64855007
H        2.25854853      -0.74531323       0.92826247
H       -0.49068592      -0.29819054      -2.02211404
H       -0.74119706      -1.86374871      -1.23391392
14
Frame=4 idx=009419 GeodesicLength=0.3116097695176693 rxn_smarts="[O:1]([C@@:2]1([H:9])[C:3]([H:10])([H:11])[O:4][C:5]([H:12])=[N:6][C:7]1([H:13])[H:14])[H:8]>>[O:1]1[C@:2]([C:3]([O:4][H:8])([H:10])[H:11])([H:9])[C:7]([H:13])([H:14])[N:6]=[C:5]1[H:12]"
O       -0.18382966      -0.72728548       1.23847826
C       -0.85979229      -0.13004516       0.11586059
C       -0.30746758       1.32718509       0.12882477
O        0.90599480       1.21630299       0.82725256
C        1.40368357      -0.61266598       0.29146091
N        1.11890844      -1.01030054      -0.83957737
C       -0.31396031      -0.86528760      -1.10413635
H        0.28766851       0.22389803       1.66184394
H       -1.93647489      -0.21554349       0.24480900
H       -0.17004067       1.70996988      -0.88658259
H       -0.99247843       1.99830748       0.65878929
H        2.26842057      -0.75873914       0.92118902
H       -0.47309213      -0.29665516      -2.02154367
H       -0.74753992      -1.85914093      -1.23666837
14
Frame=5 idx=009419 GeodesicLength=0.38949732620476096 rxn_smarts="[O:1]([C@@:2]1([H:9])[C:3]([H:10])([H:11])[O:4][C:5]([H:12])=[N:6][C:7]1([H:13])[H:14])[H:8]>>[O:1]1[C@:2]([C:3]([O:4][H:8])([H:10])[H:11])([H:9])[C:7]([H:13])([H:14])[N:6]=[C:5]1[H:12]"
O       -0.19162039      -0.72545072       1.24264140
C       -0.86009497      -0.12901149       0.11482730
C       -0.31472670       1.32788114       0.12645144
O        0.90756706       1.21912499       0.81500204
C        1.40915275      -0.61656680       0.29180526
N        1.12078140      -1.02690755      -0.83582714
C       -0.30964491      -0.86597676      -1.10235946
H        0.29261036       0.24034680       1.67426060
H       -1.93761745      -0.21399477       0.23671673
H       -0.18888103       1.72078424      -0.88605838
H       -0.99674833       1.99154153       0.66900831
H        2.27824404      -0.77241086       0.91397963
H       -0.45521685      -0.29504649      -2.02074432
H       -0.75380497      -1.85431326      -1.23970341
14
Frame=6 idx=009419 GeodesicLength=0.46737856009229384 rxn_smarts="[O:1]([C@@:2]1([H:9])[C:3]([H:10])([H:11])[O:4][C:5]([H:12])=[N:6][C:7]1([H:13])[H:14])[H:8]>>[O:1]1[C@:2]([C:3]([O:4][H:8])([H:10])[H:11])([H:9])[C:7]([H:13])([H:14])[N:6]=[C:5]1[H:12]"
O       -0.19952799      -0.72364792       1.24679816
C       -0.86042171      -0.12802684       0.11379749
C       -0.32209291       1.32855019       0.12408739
O        0.90901797       1.22186098       0.80254734
C        1.41470556      -0.62051471       0.29211755
N        1.12249391      -1.04376662      -0.83183291
C       -0.30524876      -0.86665167      -1.10055615
H        0.29779678       0.25743719       1.68667399
H       -1.93873919      -0.21256808       0.22857436
H       -0.20808222       1.73157655      -0.88531220
H       -1.00087030       1.98470364       0.67920323
H        2.28800927      -0.78632729       0.90663474
H       -0.43705939      -0.29336305      -2.01970561
H       -0.75998102      -1.84926237      -1.24302738
14
Frame=7 idx=009419 GeodesicLength=0.5452534929667597 rxn_smarts="[O:1]([C@@:2]1([H:9])[C:3]([H:10])([H:11])[O:4][C:5]([H:12])=[N:6][C:7]1([H:13])[H:14])[H:8]>>[O:1]1[C@:2]([C:3]([O:4][H:8])([H:10])[H:11])([H:9])[C:7]([H:13])([H:14])[N:6]=[C:5]1[H:12]"
O       -0.20756013      -0.72189050       1.25094382
C       -0.86077537      -0.12709346       0.11277160
C       -0.32956690       1.32918788       0.12173636
O        0.91034468       1.22450426       0.78988806
C        1.42034161      -0.62451575       0.29239318
N        1.12403615      -1.06086596      -0.82759276
C       -0.30077270      -0.86731323      -1.09872601
H        0.30324485       0.27519895       1.69907652
H       -1.93984240      -0.21126440       0.22037998
H       -0.22763644       1.74233527      -0.88433160
H       -1.00484364       1.97779325       0.68937088
H        2.29770645      -0.80048696       0.89915520
H       -0.41862009      -0.29160387      -2.01841699
H       -0.76605607      -1.84398548      -1.24664823
14
Frame=8 idx=009419 GeodesicLength=0.6231221960562113 rxn_smarts="[O:1]([C@@:2]1([H:9])[C:3]([H:10])([H:11])[O:4][C:5]([H:12])=[N:6][C:7]1([H:13])[H:14])[H:8]>>[O:1]1[C@:2]([C:3]([O:4][H:8])([H:10])[H:11])([H:9])[C:7]([H:13])([H:14])[N:6]=[C:5]1[H:12]"
O       -0.21572567      -0.72019300       1.25507332
C       -0.86115907      -0.12621373       0.11174980
C       -0.33714912       1.32978951       0.11940251
O        0.91154433       1.22704757       0.77702445
C        1.42605992      -0.62857674       0.29262785
N        1.12539863      -1.07819196      -0.82310587
C       -0.29621787      -0.86796253      -1.09686870
H        0.30897278       0.29366402       1.71145983
H       -1.94092967      -0.21008443       0.21213079
H       -0.24753453       1.75304884      -0.88310372
H       -1.00866768       1.97080931       0.69950868
H        2.30732576      -0.81488791       0.89154227
H       -0.39990051      -0.28976854      -2.01686785
H       -0.77201730      -1.83848042      -1.25057335
14
Frame=9 idx=009419 GeodesicLength=0.7009850995509217 rxn_smarts="[O:1]([C@@:2]1([H:9])[C:3]([H:10])([H:11])[O:4][C:5]([H:12])=[N:6][C:7]1([H:13])[H:14])[H:8]>>[O:1]1[C@:2]([C:3]([O:4][H:8])([H:10])[H:11])([H:9])[C:7]([H:13])([H:14])[N:6]=[C:5]1[H:12]"
O       -0.22403473      -0.71857143       1.25918104
C       -0.86157627      -0.12539013       0.11073200
C       -0.34483966       1.33035008       0.11709055
O        0.91261403       1.22948301       0.76395759
C        1.43185892      -0.63270523       0.29281758
N        1.12657226      -1.09572918      -0.81837264
C       -0.29158567      -0.86860081      -1.09498416
H        0.31499969       0.31286661       1.72381520
H       -1.94200392      -0.20902852       0.20382319
H       -0.26776586       1.76370559      -0.88161531
H       -1.01234165       1.96375056       0.70961470
H        2.31685760      -0.82952745       0.88379751
H       -0.38090361      -0.28785739      -2.01504779
H       -0.77785112      -1.83274572      -1.25480946
14
Frame=10 idx=009419 GeodesicLength=0.7788426434036523 rxn_smarts="[O:1]([C@@:2]1([H:9])[C:3]([H:10])([H:11])[O:4][C:5]([H:12])=[N:6][C:7]1([H:13])[H:14])[H:8]>>[O:1]1[C@:2]([C:3]([O:4][H:8])([H:10])[H:11])([H:9])[C:7]([H:13])([H:14])[N:6]=[C:5]1[H:12]"
O       -0.23249883      -0.71704299       1.26326109
C       -0.86203075      -0.12462536       0.10971786
C       -0.35263842       1.33086420       0.11480565
O        0.91355091       1.23180218       0.75068913
C        1.43773633      -0.63690957       0.29295899
N        1.12754861      -1.11346042      -0.81339479
C       -0.28687776      -0.86922945      -1.09307240
H        0.32134615       0.33284391       1.73613284
H       -1.94306834      -0.20809683       0.19545257
H       -0.28831864       1.77429404      -0.87985263
H       -1.01586490       1.95661495       0.71968782
H        2.32629247      -0.84440288       0.87592294
H       -0.36163371      -0.28587115      -2.01294634
H       -0.78354311      -1.82678063      -1.25936272
14
Frame=11 idx=009419 GeodesicLength=0.856695539852498 rxn_smarts="[O:1]([C@@:2]1([H:9])[C:3]([H:10])([H:11])[O:4][C:5]([H:12])=[N:6][C:7]1([H:13])[H:14])[H:8]>>[O:1]1[C@:2]([C:3]([O:4][H:8])([H:10])[H:11])([H:9])[C:7]([H:13])([H:14])[N:6]=[C:5]1[H:12]"
O       -0.24113112      -0.71562652       1.26730692
C       -0.86252664      -0.12392225       0.10870665
C       -0.36054494       1.33132610       0.11255364
O        0.91435203       1.23399601       0.73722175
C        1.44368915      -0.64119891       0.29304949
N        1.12832008      -1.13136644      -0.80817551
C       -0.28209609      -0.86985004      -1.09113370
H        0.32803389       0.35363616       1.74840233
H       -1.94412645      -0.20728908       0.18701310
H       -0.30917957       1.78480287      -0.87780142
H       -1.01923678       1.94939996       0.72972770
H        2.33562127      -0.85951121       0.86792076
H       -0.34209689      -0.28381132      -2.01055333
H       -0.78907795      -1.82058533      -1.26423840
14
Frame=12 idx=009419 GeodesicLength=0.9345445380314206 rxn_smarts="[O:1]([C@@:2]1([H:9])[C:3]([H:10])([H:11])[O:4][C:5]([H:12])=[N:6][C:7]1([H:13])[H:14])[H:8]>>[O:1]1[C@:2]([C:3]([O:4][H:8])([H:10])[H:11])([H:9])[C:7]([H:13])([H:14])[N:6]=[C:5]1[H:12]"
O       -0.24994638      -0.71434233       1.27131163
C       -0.86306837      -0.12328389       0.10769739
C       -0.36855861       1.33172966       0.11034095
O        0.91501449       1.23605496       0.72355883
C        1.44971354      -0.64558319       0.29308743
N        1.12888009      -1.14942630      -0.80271952
C       -0.27724278      -0.87046428      -1.08916846
H        0.33508645       0.37528743       1.76061191
H       -1.94518203      -0.20660475       0.17849778
H       -0.33033427       1.79522119      -0.87544678
H       -1.02245688       1.94210206       0.73973500
H        2.34483506      -0.87484994       0.85979364
H       -0.32230075      -0.28167975      -2.00785872
H       -0.79443955      -1.81416087      -1.26944107
14
Frame=13 idx=009419 GeodesicLength=1.0123908974979874 rxn_smarts="[O:1]([C@@:2]1([H:9])[C:3]([H:10])([H:11])[O:4][C:5]([H:12])=[N:6][C:7]1([H:13])[H:14])[H:8]>>[O:1]1[C@:2]([C:3]([O:4][H:8])([H:10])[H:11])([H:9])[C:7]([H:13])([H:14])[N:6]=[C:5]1[H:12]"
O       -0.25896123      -0.71321261       1.27526751
C       -0.86366080      -0.12271363       0.10668864
C       -0.37667850       1.33206833       0.10817478
O        0.91553536       1.23796889       0.70970483
C        1.45580498      -0.65007308       0.29307225
N        1.12922330      -1.16761736      -0.79703327
C       -0.27232015      -0.87107409      -1.08717744
H        0.34252875       0.39784600       1.77274890
H       -1.94623921      -0.20604295       0.16989816
H       -0.35176726       1.80553850      -0.87277312
H       -1.02552477       1.93471701       0.74971157
H        2.35392533      -0.89041676       0.85154460
H       -0.30225470      -0.27947895      -2.00485306
H       -0.79961111      -1.80750932      -1.27497436
14
Frame=14 idx=009419 GeodesicLength=1.0902351644663404 rxn_smarts="[O:1]([C@@:2]1([H:9])[C:3]([H:10])([H:11])[O:4][C:5]([H:12])=[N:6][C:7]1([H:13])[H:14])[H:8]>>[O:1]1[C@:2]([C:3]([O:4][H:8])([H:10])[H:11])([H:9])[C:7]([H:13])([H:14])[N:6]=[C:5]1[H:12]"
O       -0.26819413      -0.71226129       1.27916633
C       -0.86430893      -0.12221517       0.10567867
C       -0.38490364       1.33233515       0.10606311
O        0.91591167       1.23972728       0.69566456
C        1.46195785      -0.65467989       0.29300458
N        1.12934549      -1.18591562      -0.79112458
C       -0.26733062      -0.87168137      -1.08516148
H        0.35038833       0.42136526       1.78479834
H       -1.94730204      -0.20560276       0.16120447
H       -0.37346247       1.81574513      -0.86976387
H       -1.02844038       1.92723898       0.75966063
H        2.36288311      -0.90621065       0.84317735
H       -0.28196930      -0.27721146      -2.00152680
H       -0.80457495      -1.80063358      -1.28084130
14
Frame=15 idx=009419 GeodesicLength=1.1680861128334799 rxn_smarts="[O:1]([C@@:2]1([H:9])[C:3]([H:10])([H:11])[O:4][C:5]([H:12])=[N:6][C:7]1([H:13])[H:14])[H:8]>>[O:1]1[C@:2]([C:3]([O:4][H:8])([H:10])[H:11])([H:9])[C:7]([H:13])([H:14])[N:6]=[C:5]1[H:12]"
O       -0.27766609      -0.71151486       1.28299912
C       -0.86501950      -0.12179214       0.10466483
C       -0.39323344       1.33252377       0.10401549
O        0.91614109       1.24131883       0.68144698
C        1.46816747      -0.65941742       0.29288802
N        1.12924534      -1.20429744      -0.78500395
C       -0.26227720      -0.87228975      -1.08312301
H        0.35869316       0.44590526       1.79674686
H       -1.94837745      -0.20528197       0.15240296
H       -0.39540204       1.82583313      -0.86640129
H       -1.03120469       1.91966409       0.76958778
H        2.37170604      -0.92222992       0.83469402
H       -0.26145843      -0.27488209      -1.99787315
H       -0.80931426      -1.79353950      -1.28704465
14
Frame=16 idx=009419 GeodesicLength=1.2459244855931784 rxn_smarts="[O:1]([C@@:2]1([H:9])[C:3]([H:10])([H:11])[O:4][C:5]([H:12])=[N:6][C:7]1([H:13])[H:14])[H:8]>>[O:1]1[C@:2]([C:3]([O:4][H:8])([H:10])[H:11])([H:9])[C:7]([H:13])([H:14])[N:6]=[C:5]1[H:12]"
O       -0.28740375      -0.71100169       1.28675460
C       -0.86579647      -0.12144928       0.10364487
C       -0.40166355       1.33262283       0.10204050
O        0.91621764       1.24272929       0.66705622
C        1.47441929      -0.66429684       0.29272645
N        1.12891851      -1.22272991      -0.77868026
C       -0.25716179      -0.87289819      -1.08105926
H        0.36747557       0.47152561       1.80857101
H       -1.94946510      -0.20508036       0.14348044
H       -0.41756244       1.83579216      -0.86266572
H       -1.03381429       1.91197597       0.77949574
H        2.38037885      -0.93846892       0.82609359
H       -0.24073496      -0.27249220      -1.99387950
H       -0.81380753      -1.78622845      -1.29357869
