16
Frame=0 idx=006871 GeodesicLength=0.0 rxn_smarts="[C:1]([N:2]1[C:3]([H:11])([H:12])[C@:4]1([C:5](=[O:6])[C:7]([H:14])([H:15])[H:16])[H:13])([H:8])([H:9])[H:10]>>[C:1]([N:2]1[C:3]([H:11])([H:12])[C:4]([H:13])=[C:5]([C:7]([H:14])([H:15])[H:16])[O:6]1)([H:8])([H:9])[H:10]"
C        0.80457388      -0.35095752      -2.03726073
N        1.46125048       0.30388378      -0.96074744
C        1.58111286      -0.35533421       0.25137049
C        0.15221218      -0.47004368       0.71115796
C       -0.71568955       0.63234731       0.56808696
O       -0.50981428       1.57317818      -0.20127326
C       -1.92750685       0.67105384       1.48435659
H        1.45760443      -0.26455685      -2.91287819
H       -0.10212096       0.21363298      -2.28635925
H        0.53199143      -1.39759723      -1.84794587
H        1.89784301      -1.40167615       0.10927632
H        2.26280814       0.15264900       0.93516942
H       -0.21329493      -1.42590917       1.06344094
H       -2.81286974       0.90144644       0.89205133
H       -2.08107983      -0.26042237       2.02709354
H       -1.78702027       1.47830559       2.20446117
16
Frame=1 idx=006871 GeodesicLength=0.07903716928673533 rxn_smarts="[C:1]([N:2]1[C:3]([H:11])([H:12])[C@:4]1([C:5](=[O:6])[C:7]([H:14])([H:15])[H:16])[H:13])([H:8])([H:9])[H:10]>>[C:1]([N:2]1[C:3]([H:11])([H:12])[C:4]([H:13])=[C:5]([C:7]([H:14])([H:15])[H:16])[O:6]1)([H:8])([H:9])[H:10]"
C        0.84000881      -0.35370914      -2.05266128
N        1.41931846       0.32281543      -0.94357682
C        1.55626598      -0.35351451       0.26068223
C        0.11591549      -0.49285838       0.66748527
C       -0.75620201       0.60783680       0.54894604
O       -0.57914357       1.53163106      -0.25180163
C       -1.91272802       0.69067235       1.52850204
H        1.53812198      -0.25710414      -2.89115188
H       -0.06680325       0.18617726      -2.34977907
H        0.58209763      -1.40637881      -1.87669839
H        1.90277487      -1.38808382       0.10938996
H        2.20760891       0.16573042       0.96476605
H       -0.25229076      -1.46053571       0.98278697
H       -2.82590390       0.92138180       0.98008810
H       -2.04795341      -0.22529262       2.10170277
H       -1.72108722       1.51123201       2.22131965
16
Frame=2 idx=006871 GeodesicLength=0.15659065547926562 rxn_smarts="[C:1]([N:2]1[C:3]([H:11])([H:12])[C@:4]1([C:5](=[O:6])[C:7]([H:14])([H:15])[H:16])[H:13])([H:8])([H:9])[H:10]>>[C:1]([N:2]1[C:3]([H:11])([H:12])[C:4]([H:13])=[C:5]([C:7]([H:14])([H:15])[H:16])[O:6]1)([H:8])([H:9])[H:10]"
C        0.87188750      -0.35428925      -2.06517260
N        1.37428465       0.33907154      -0.92730129
C        1.53072177      -0.35232150       0.26963428
C        0.08203383      -0.51484529       0.62744369
C       -0.79598889       0.58220654       0.53168283
O       -0.64855739       1.48769713      -0.29949873
C       -1.89557352       0.70862601       1.56756822
H        1.61360473      -0.24963102      -2.86382782
H       -0.02892344       0.16534057      -2.41119777
H        0.62447976      -1.41150701      -1.90180721
H        1.90592356      -1.37455814       0.10977519
H        2.15315591       0.17687650       0.99173978
H       -0.28686879      -1.49258439       0.90902315
H       -2.83334166       0.93904178       1.06215683
H       -2.00989345      -0.19126507       2.17005892
H       -1.65694456       1.54214159       2.22972253
16
Frame=3 idx=006871 GeodesicLength=0.23334497837102308 rxn_smarts="[C:1]([N:2]1[C:3]([H:11])([H:12])[C@:4]1([C:5](=[O:6])[C:7]([H:14])([H:15])[H:16])[H:13])([H:8])([H:9])[H:10]>>[C:1]([N:2]1[C:3]([H:11])([H:12])[C:4]([H:13])=[C:5]([C:7]([H:14])([H:15])[H:16])[O:6]1)([H:8])([H:9])[H:10]"
C        0.90041350      -0.35288375      -2.07505315
N        1.32669392       0.35273072      -0.91190592
C        1.50487248      -0.35169077       0.27820489
C        0.05050010      -0.53642307       0.59094644
C       -0.83499860       0.55517776       0.51636509
O       -0.71768941       1.44113726      -0.34416821
C       -1.87654243       0.72533561       1.60189382
H        1.68390024      -0.24194877      -2.83137358
H        0.01123984       0.15075640      -2.47004337
H        0.65986718      -1.41352536      -1.92412073
H        1.90797434      -1.36096060       0.11023670
H        2.09973073       0.18643958       1.01630917
H       -0.31722327      -1.52299927       0.84132643
H       -2.83594154       0.95505381       1.13849783
H       -1.96796657      -0.15767772       2.23259183
H       -1.59483051       1.57147818       2.23029277
16
Frame=4 idx=006871 GeodesicLength=0.3097424208471456 rxn_smarts="[C:1]([N:2]1[C:3]([H:11])([H:12])[C@:4]1([C:5](=[O:6])[C:7]([H:14])([H:15])[H:16])[H:13])([H:8])([H:9])[H:10]>>[C:1]([N:2]1[C:3]([H:11])([H:12])[C:4]([H:13])=[C:5]([C:7]([H:14])([H:15])[H:16])[O:6]1)([H:8])([H:9])[H:10]"
C        0.92575345      -0.34967783      -2.08253020
N        1.27706951       0.36383811      -0.89733926
C        1.47906463      -0.35158602       0.28641792
C        0.02125876      -0.55788906       0.55788894
C       -0.87309887       0.52664342       0.50310659
O       -0.78613089       1.39190695      -0.38563505
C       -1.85605288       0.74113635       1.63177173
H        1.74875553      -0.23387716      -2.79436740
H        0.05328470       0.14198099      -2.52569222
H        0.68904108      -1.41290469      -1.94434165
H        1.90945156      -1.34720825       0.11067640
H        2.04759800       0.19466536       1.03871356
H       -0.34359305      -1.55245610       0.77880260
H       -2.83434601       0.96997116       1.20924728
H       -1.92310401      -0.12405561       2.28961636
H       -1.53495153       1.59951239       2.22366439
16
Frame=5 idx=006871 GeodesicLength=0.3862042795217836 rxn_smarts="[C:1]([N:2]1[C:3]([H:11])([H:12])[C@:4]1([C:5](=[O:6])[C:7]([H:14])([H:15])[H:16])[H:13])([H:8])([H:9])[H:10]>>[C:1]([N:2]1[C:3]([H:11])([H:12])[C:4]([H:13])=[C:5]([C:7]([H:14])([H:15])[H:16])[O:6]1)([H:8])([H:9])[H:10]"
C        0.94818911      -0.34474981      -2.08787193
N        1.22576388       0.37248517      -0.88344965
C        1.45342171      -0.35201569       0.29439019
C       -0.00594535      -0.57962503       0.52797244
C       -0.91041620       0.49642321       0.49182382
O       -0.85394598       1.33970228      -0.42406655
C       -1.83433046       0.75634855       1.65753379
H        1.80822310      -0.22511334      -2.75327739
H        0.09697060       0.13869256      -2.57787764
H        0.71284928      -1.40996902      -1.96320840
H        1.91068233      -1.33326423       0.11111580
H        1.99670389       0.20169357       1.05940783
H       -0.36630620      -1.58159503       0.72073161
H       -2.82907198       0.98434638       1.27484640
H       -1.87575460      -0.08986208       2.34166777
H       -1.47703316       1.62650252       2.21026192
16
Frame=6 idx=006871 GeodesicLength=0.4628457256767469 rxn_smarts="[C:1]([N:2]1[C:3]([H:11])([H:12])[C@:4]1([C:5](=[O:6])[C:7]([H:14])([H:15])[H:16])[H:13])([H:8])([H:9])[H:10]>>[C:1]([N:2]1[C:3]([H:11])([H:12])[C:4]([H:13])=[C:5]([C:7]([H:14])([H:15])[H:16])[O:6]1)([H:8])([H:9])[H:10]"
C        0.96778088      -0.33825595      -2.09119268
N        1.17326892       0.37865017      -0.87015130
C        1.42824021      -0.35300448       0.30214184
C       -0.03107590      -0.60171447       0.50114662
C       -0.94663709       0.46461474       0.48275466
O       -0.92053299       1.28475238      -0.45912894
C       -1.81169691       0.77115949       1.67933286
H        1.86195872      -0.21562946      -2.70881880
H        0.14172310       0.14048326      -2.62586244
H        0.73193138      -1.40498725      -1.98107058
H        1.91194693      -1.31912222       0.11147802
H        1.94734101       0.20755776       1.07851745
H       -0.38555554      -1.61062359       0.66628738
H       -2.82057293       0.99844586       1.33517512
H       -1.82663215      -0.05483560       2.38880360
H       -1.42148764       1.65250938       2.19058717
16
Frame=7 idx=006871 GeodesicLength=0.5398673025096071 rxn_smarts="[C:1]([N:2]1[C:3]([H:11])([H:12])[C@:4]1([C:5](=[O:6])[C:7]([H:14])([H:15])[H:16])[H:13])([H:8])([H:9])[H:10]>>[C:1]([N:2]1[C:3]([H:11])([H:12])[C:4]([H:13])=[C:5]([C:7]([H:14])([H:15])[H:16])[O:6]1)([H:8])([H:9])[H:10]"
C        0.98471306      -0.33026222      -2.09265104
N        1.11991680       0.38237428      -0.85727995
C        1.40361531      -0.35460449       0.30976402
C       -0.05428575      -0.62433961       0.47719067
C       -0.98171335       0.43120814       0.47592729
O       -0.98575107       1.22702610      -0.49083298
C       -1.78831844       0.78575519       1.69737665
H        1.90997418      -0.20529524      -2.66157062
H        0.18715376       0.14706337      -2.66929502
H        0.74696629      -1.39811939      -1.99832706
H        1.91338021      -1.30480273       0.11177441
H        1.89950650       0.21223369       1.09635659
H       -0.40160918      -1.63977707       0.61484554
H       -2.80923075       1.01257260       1.39044042
H       -1.77606217      -0.01864391       2.43130402
H       -1.36825538       1.67761129       2.16497707
16
Frame=8 idx=006871 GeodesicLength=0.6173876404748675 rxn_smarts="[C:1]([N:2]1[C:3]([H:11])([H:12])[C@:4]1([C:5](=[O:6])[C:7]([H:14])([H:15])[H:16])[H:13])([H:8])([H:9])[H:10]>>[C:1]([N:2]1[C:3]([H:11])([H:12])[C:4]([H:13])=[C:5]([C:7]([H:14])([H:15])[H:16])[O:6]1)([H:8])([H:9])[H:10]"
C        0.99911222      -0.32084837      -2.09235938
N        1.06604762       0.38368933      -0.84468743
C        1.37966221      -0.35686572       0.31732727
C       -0.07566233      -0.64758130       0.45593458
C       -1.01550513       0.39629275       0.47141595
O       -1.04933657       1.16665821      -0.51910775
C       -1.76436407       0.80025600       1.71181377
H        1.95226842      -0.19408504      -2.61215601
H        0.23278145       0.15813011      -2.70780266
H        0.75852539      -1.38948875      -2.01521704
H        1.91507476      -1.29034001       0.11200683
H        1.85326911       0.21566975       1.11315747
H       -0.41469298      -1.66912058       0.56585853
H       -2.79538579       1.02696450       1.44071947
H       -1.72442095       0.01890562       2.46928966
H       -1.31737337       1.70176351       2.13380674
16
Frame=9 idx=006871 GeodesicLength=0.6955360111652439 rxn_smarts="[C:1]([N:2]1[C:3]([H:11])([H:12])[C@:4]1([C:5](=[O:6])[C:7]([H:14])([H:15])[H:16])[H:13])([H:8])([H:9])[H:10]>>[C:1]([N:2]1[C:3]([H:11])([H:12])[C:4]([H:13])=[C:5]([C:7]([H:14])([H:15])[H:16])[O:6]1)([H:8])([H:9])[H:10]"
C        1.01111068      -0.31006607      -2.09042506
N        1.01195077       0.38263894      -0.83221170
C        1.35644144      -0.35986577       0.32491353
C       -0.09531496      -0.67150680       0.43719469
C       -1.04789859       0.35997246       0.46925999
O       -1.11110075       1.10379230      -0.54392208
C       -1.73995258       0.81475817       1.72277825
H        1.98894041      -0.18196263      -2.56114209
H        0.27816522       0.17341593      -2.74114026
H        0.76712625      -1.37915401      -2.03194215
H        1.91704541      -1.27581107       0.11218826
H        1.80864561       0.21775266       1.12917588
H       -0.42504481      -1.69866052       0.51889926
H       -2.77934299       1.04174551       1.48611983
H       -1.67191618       0.05800711       2.50289809
H       -1.26885494       1.72494380       2.09735555
16
Frame=10 idx=006871 GeodesicLength=0.7743311427570165 rxn_smarts="[C:1]([N:2]1[C:3]([H:11])([H:12])[C@:4]1([C:5](=[O:6])[C:7]([H:14])([H:15])[H:16])[H:13])([H:8])([H:9])[H:10]>>[C:1]([N:2]1[C:3]([H:11])([H:12])[C:4]([H:13])=[C:5]([C:7]([H:14])([H:15])[H:16])[O:6]1)([H:8])([H:9])[H:10]"
C        1.02076409      -0.29800915      -2.08693513
N        0.95797190       0.37928542      -0.81972880
C        1.33411427      -0.36364227       0.33257395
C       -0.11324761      -0.69606192       0.42086344
C       -1.07866928       0.32249667       0.46952559
O       -1.17072356       1.03874865      -0.56519438
C       -1.71528125       0.82927409       1.73036985
H        2.02011037      -0.16915811      -2.50911859
H        0.32283095       0.19274872      -2.76912318
H        0.77299073      -1.36718750      -2.04857772
H        1.91936341      -1.26129364       0.11230462
H        1.76584084       0.21842475       1.14456744
H       -0.43282406      -1.72825487       0.47368701
H       -2.76143785       1.05699258       1.52658386
H       -1.61895700       0.09864909       2.53213102
H       -1.22284596       1.74698746       2.05607101
16
Frame=11 idx=006871 GeodesicLength=0.853823009212099 rxn_smarts="[C:1]([N:2]1[C:3]([H:11])([H:12])[C@:4]1([C:5](=[O:6])[C:7]([H:14])([H:15])[H:16])[H:13])([H:8])([H:9])[H:10]>>[C:1]([N:2]1[C:3]([H:11])([H:12])[C:4]([H:13])=[C:5]([C:7]([H:14])([H:15])[H:16])[O:6]1)([H:8])([H:9])[H:10]"
C        1.02816254      -0.28474513      -2.08197631
N        0.90439451       0.37371297      -0.80711062
C        1.31276779      -0.36824303       0.34035788
C       -0.12951327      -0.72120474       0.40679485
C       -1.10766056       0.28408475       0.47221829
O       -1.22799470       0.97180194      -0.58291597
C       -1.69048902       0.84380902       1.73469921
H        2.04601256      -0.15586635      -2.45658500
H        0.36639849       0.21594752      -2.79166721
H        0.77633748      -1.35360253      -2.06519483
H        1.92203173      -1.24687162       0.11234300
H        1.72495848       0.21759888       1.15950164
H       -0.43823299      -1.75775031       0.43002892
H       -2.74197070       1.07271159       1.56215642
H       -1.56579586       0.14085003       2.55703809
H       -1.17940648       1.76776704       2.01031165
16
Frame=12 idx=006871 GeodesicLength=0.9340162887902385 rxn_smarts="[C:1]([N:2]1[C:3]([H:11])([H:12])[C@:4]1([C:5](=[O:6])[C:7]([H:14])([H:15])[H:16])[H:13])([H:8])([H:9])[H:10]>>[C:1]([N:2]1[C:3]([H:11])([H:12])[C:4]([H:13])=[C:5]([C:7]([H:14])([H:15])[H:16])[O:6]1)([H:8])([H:9])[H:10]"
C        1.03339400      -0.27038074      -2.07563014
N        0.85150823       0.36602828      -0.79426882
C        1.29249619      -0.37368120       0.34828963
C       -0.14414919      -0.74682698       0.39484209
C       -1.13469819       0.24502252       0.47731708
O       -1.28266733       0.90337100      -0.59708585
C       -1.66572453       0.85832577       1.73589142
H        2.06691212      -0.14233793      -2.40404503
H        0.40849042       0.24272376      -2.80874144
H        0.77735474      -1.33843223      -2.08179245
H        1.92504890      -1.23261178       0.11229092
H        1.68612634       0.21523629       1.17408977
H       -0.44148212      -1.78691334       0.38777727
H       -2.72124266       1.08888712       1.59287606
H       -1.51277166       0.18448925       2.57762951
H       -1.13859527       1.78710021       1.96055997
16
Frame=13 idx=006871 GeodesicLength=1.0149275163689997 rxn_smarts="[C:1]([N:2]1[C:3]([H:11])([H:12])[C@:4]1([C:5](=[O:6])[C:7]([H:14])([H:15])[H:16])[H:13])([H:8])([H:9])[H:10]>>[C:1]([N:2]1[C:3]([H:11])([H:12])[C:4]([H:13])=[C:5]([C:7]([H:14])([H:15])[H:16])[O:6]1)([H:8])([H:9])[H:10]"
C        1.03656226      -0.25500286      -2.06798158
N        0.79955103       0.35636027      -0.78112502
C        1.27335351      -0.37997066       0.35638693
C       -0.15722384      -0.77282714       0.38483700
C       -1.15966667       0.20558614       0.48474970
O       -1.33459069       0.83382975      -0.60776101
C       -1.64110347       0.87277649       1.73407585
H        2.08315210      -0.12881631      -2.35189187
H        0.44884573       0.27283146      -2.82040892
H        0.77617489      -1.32167996      -2.09837820
H        1.92838373      -1.21859022       0.11213260
H        1.64942124       0.21129623       1.18844353
H       -0.44281009      -1.81553321       0.34689628
H       -2.69953108       1.10543162       1.61885128
H       -1.46008986       0.22946362       2.59395218
H       -1.10042878       1.80484478       1.90722126
16
Frame=14 idx=006871 GeodesicLength=1.0965460561727425 rxn_smarts="[C:1]([N:2]1[C:3]([H:11])([H:12])[C@:4]1([C:5](=[O:6])[C:7]([H:14])([H:15])[H:16])[H:13])([H:8])([H:9])[H:10]>>[C:1]([N:2]1[C:3]([H:11])([H:12])[C:4]([H:13])=[C:5]([C:7]([H:14])([H:15])[H:16])[O:6]1)([H:8])([H:9])[H:10]"
C        1.03776833      -0.23871482      -2.05911023
N        0.74875340       0.34486470      -0.76762736
C        1.25540763      -0.38709172       0.36465072
C       -0.16878286      -0.79907014       0.37662639
C       -1.18245422       0.16606692       0.49441786
O       -1.38362285       0.76359257      -0.61503944
C       -1.61675009       0.88708743       1.72939583
H        2.09509976      -0.11562149      -2.30049873
H        0.48726483       0.30600722      -2.82678495
H        0.77283189      -1.30334814      -2.11491830
H        1.93202610      -1.20485703       0.11184864
H        1.61494648       0.20578748       1.20263188
H       -0.44243845      -1.84338332       0.30738859
H       -2.67710710       1.12225081       1.64019071
H       -1.40802371       0.27558177       2.60605534
H       -1.06491912       1.82084774       1.85077306
16
Frame=15 idx=006871 GeodesicLength=1.1788642529908064 rxn_smarts="[C:1]([N:2]1[C:3]([H:11])([H:12])[C@:4]1([C:5](=[O:6])[C:7]([H:14])([H:15])[H:16])[H:13])([H:8])([H:9])[H:10]>>[C:1]([N:2]1[C:3]([H:11])([H:12])[C:4]([H:13])=[C:5]([C:7]([H:14])([H:15])[H:16])[O:6]1)([H:8])([H:9])[H:10]"
C        1.03712392      -0.22161404      -2.04909691
N        0.69930497       0.33171343      -0.75374249
C        1.23869916      -0.39501195       0.37307265
C       -0.17888938      -0.82541998       0.37004564
C       -1.20299236       0.12674468       0.50618469
O       -1.42968122       0.69304971      -0.61905422
C       -1.59276686       0.90117792       1.72200211
H        2.10314392      -0.10305447      -2.25016578
H        0.52363809       0.34197613      -2.82802739
H        0.76734015      -1.28342677      -2.13138169
H        1.93595202      -1.19145175       0.11141971
H        1.58276560       0.19873834       1.21671136
H       -0.44060069      -1.87026811       0.26931177
H       -2.65421526       1.13922082       1.65704812
H       -1.35678356       0.32264531       2.61401215
H       -1.03203850       1.83498070       1.79166028
16
Frame=16 idx=006871 GeodesicLength=1.2618495921423203 rxn_smarts="[C:1]([N:2]1[C:3]([H:11])([H:12])[C@:4]1([C:5](=[O:6])[C:7]([H:14])([H:15])[H:16])[H:13])([H:8])([H:9])[H:10]>>[C:1]([N:2]1[C:3]([H:11])([H:12])[C:4]([H:13])=[C:5]([C:7]([H:14])([H:15])[H:16])[O:6]1)([H:8])([H:9])[H:10]"
C        1.03475446      -0.20381901      -2.03802845
N        0.65137569       0.31709439      -0.73947260
C        1.22325766      -0.40367095       0.38162929
C       -0.18761220      -0.85171670       0.36492300
C       -1.22123523       0.08791473       0.51988355
O       -1.47270259       0.62263743      -0.61996507
C       -1.56925343       0.91495455       1.71207226
H        2.10768164      -0.09142736      -2.20116397
H        0.55792919       0.38040287      -2.82434181
H        0.75970604      -1.26192656      -2.14771952
H        1.94013676      -1.17839491       0.11083472
H        1.55292610       0.19022282       1.23070648
H       -0.43753708      -1.89599931       0.23272471
H       -2.63109457       1.15617940       1.66962580
H       -1.30656844       0.37040470       2.61792251
H       -1.00176399       1.84714394       1.73036909
