19
Frame=0 idx=008292 GeodesicLength=0.0 rxn_smarts="[C:1]([C:2]([C:3]([H:12])([H:13])[H:14])([C@@:4]1([H:15])[C:5]([H:16])([H:17])[C@:6]1([O:7][H:19])[H:18])[H:11])([H:8])([H:9])[H:10]>>[C:1]([C:2]([C:3]([H:12])([H:13])[H:14])([C:4]1([H:15])[C:5]([H:16])=[C:6]1[H:18])[H:11])([H:8])([H:9])[H:10].[O:7]([H:17])[H:19]"
C        1.46311454       1.14154830       0.22568260
C        0.69853573      -0.17622991       0.13369061
C        1.55366852      -1.27930303      -0.48099489
C       -0.58446063      -0.02050841      -0.66669746
C       -1.82217565      -0.83527444      -0.39700016
C       -1.85042141       0.55686363      -0.15305655
O       -1.94880812       0.57169028       1.51633074
H        0.85460564       1.93318572       0.67349132
H        2.37276620       1.03771771       0.82138367
H        1.75620866       1.48697426      -0.76954869
H        0.43310044      -0.50688363       1.14563954
H        2.47396506      -1.43443999       0.08653495
H        1.83312026      -1.02307658      -1.50713929
H        1.00077272      -2.21966032      -0.50760341
H       -0.36980697       0.30840762      -1.68969713
H       -2.41678106      -1.34216441      -1.14363632
H       -1.90969309      -0.47711845       1.26241713
H       -2.42391358       1.41864877      -0.46078919
H       -1.11379733       0.85962296       1.91099261
19
Frame=1 idx=008292 GeodesicLength=0.07823412653377676 rxn_smarts="[C:1]([C:2]([C:3]([H:12])([H:13])[H:14])([C@@:4]1([H:15])[C:5]([H:16])([H:17])[C@:6]1([O:7][H:19])[H:18])[H:11])([H:8])([H:9])[H:10]>>[C:1]([C:2]([C:3]([H:12])([H:13])[H:14])([C:4]1([H:15])[C:5]([H:16])=[C:6]1[H:18])[H:11])([H:8])([H:9])[H:10].[O:7]([H:17])[H:19]"
C        1.46456486       1.14133420       0.22371550
C        0.69905455      -0.17586555       0.13034322
C        1.55497404      -1.27976099      -0.48194839
C       -0.58199131      -0.01820502      -0.67223620
C       -1.82116131      -0.82898624      -0.39790818
C       -1.84635014       0.56251254      -0.15588592
O       -1.95421369       0.57008712       1.53123467
H        0.85548668       1.93218931       0.67199602
H        2.37333031       1.03641988       0.82056765
H        1.75894721       1.48695036      -0.77107185
H        0.43134960      -0.50489812       1.14211246
H        2.47345281      -1.43553653       0.08834290
H        1.83788301      -1.02373203      -1.50718225
H        1.00182739      -2.21998239      -0.51005672
H       -0.36764667       0.30397060      -1.69706697
H       -2.41696162      -1.34453268      -1.13740390
H       -1.91402081      -0.49231744       1.26108104
H       -2.42488138       1.42063491      -0.46393470
H       -1.12364352       0.86971808       1.92530162
19
Frame=2 idx=008292 GeodesicLength=0.15644049807634605 rxn_smarts="[C:1]([C:2]([C:3]([H:12])([H:13])[H:14])([C@@:4]1([H:15])[C:5]([H:16])([H:17])[C@:6]1([O:7][H:19])[H:18])[H:11])([H:8])([H:9])[H:10]>>[C:1]([C:2]([C:3]([H:12])([H:13])[H:14])([C:4]1([H:15])[C:5]([H:16])=[C:6]1[H:18])[H:11])([H:8])([H:9])[H:10].[O:7]([H:17])[H:19]"
C        1.46603333       1.14112573       0.22169887
C        0.69957751      -0.17548794       0.12695994
C        1.55627064      -1.28023409      -0.48288982
C       -0.57949849      -0.01589828      -0.67784030
C       -1.82014234      -0.82261592      -0.39884717
C       -1.84220215       0.56822809      -0.15872928
O       -1.95960965       0.56830645       1.54642644
H        0.85637620       1.93119596       0.67044208
H        2.37390349       1.03512796       0.81971015
H        1.76170965       1.48691146      -0.77264780
H        0.42957497      -0.50284969       1.13855176
H        2.47291120      -1.43664271       0.09017739
H        1.84265343      -1.02443558      -1.50720434
H        1.00286688      -2.22031406      -0.51247913
H       -0.36548320       0.29949463      -1.70447095
H       -2.41707968      -1.34682435      -1.13108091
H       -1.91834450      -0.50793929       1.25952586
H       -2.42574468       1.42269545      -0.46700889
H       -1.13377260       0.88015619       1.93970609
19
Frame=3 idx=008292 GeodesicLength=0.23463348648152793 rxn_smarts="[C:1]([C:2]([C:3]([H:12])([H:13])[H:14])([C@@:4]1([H:15])[C:5]([H:16])([H:17])[C@:6]1([O:7][H:19])[H:18])[H:11])([H:8])([H:9])[H:10]>>[C:1]([C:2]([C:3]([H:12])([H:13])[H:14])([C:4]1([H:15])[C:5]([H:16])=[C:6]1[H:18])[H:11])([H:8])([H:9])[H:10].[O:7]([H:17])[H:19]"
C        1.46751983       1.14092164       0.21963367
C        0.70010445      -0.17509818       0.12354090
C        1.55755749      -1.28072285      -0.48382031
C       -0.57698274      -0.01358893      -0.68350884
C       -1.81911922      -0.81616237      -0.39981427
C       -1.83797717       0.57401115      -0.16158806
O       -1.96498062       0.56634520       1.56191760
H        0.85727454       1.93020437       0.66883096
H        2.37448551       1.03384013       0.81881207
H        1.76449561       1.48685694      -0.77427545
H        0.42777695      -0.50074014       1.13495709
H        2.47233942      -1.43775947       0.09203672
H        1.84743038      -1.02518685      -1.50720633
H        1.00389029      -2.22065584      -0.51487268
H       -0.36331764       0.29497792      -1.71190793
H       -2.41712910      -1.34903889      -1.12466351
H       -1.92266236      -0.52400512       1.25773596
H       -2.42650337       1.42483371      -0.47000727
H       -1.14420225       0.89096758       1.95419966
19
Frame=4 idx=008292 GeodesicLength=0.31283358478500367 rxn_smarts="[C:1]([C:2]([C:3]([H:12])([H:13])[H:14])([C@@:4]1([H:15])[C:5]([H:16])([H:17])[C@:6]1([O:7][H:19])[H:18])[H:11])([H:8])([H:9])[H:10]>>[C:1]([C:2]([C:3]([H:12])([H:13])[H:14])([C:4]1([H:15])[C:5]([H:16])=[C:6]1[H:18])[H:11])([H:8])([H:9])[H:10].[O:7]([H:17])[H:19]"
C        1.46902415       1.14072088       0.21752054
C        0.70063531      -0.17469738       0.12008643
C        1.55883392      -1.28122787      -0.48474065
C       -0.57444474      -0.01127814      -0.68924038
C       -1.81809261      -0.80962457      -0.40080551
C       -1.83367478       0.57986298      -0.16446375
O       -1.97030999       0.56420262       1.57772077
H        0.85818181       1.92921321       0.66716418
H        2.37507639       1.03255506       0.81787351
H        1.76730399       1.48678631      -0.77595418
H        0.42595631      -0.49857120       1.13132841
H        2.47173703      -1.43888742       0.09391948
H        1.85221269      -1.02598574      -1.50718878
H        1.00489702      -2.22100840      -0.51723870
H       -0.36115135       0.29041735      -1.71937667
H       -2.41710512      -1.35117325      -1.11815030
H       -1.92697047      -0.54053845       1.25569521
H       -2.42715704       1.42705326      -0.47292592
H       -1.15495252       0.90218074       1.96877633
19
Frame=5 idx=008292 GeodesicLength=0.39104409129079737 rxn_smarts="[C:1]([C:2]([C:3]([H:12])([H:13])[H:14])([C@@:4]1([H:15])[C:5]([H:16])([H:17])[C@:6]1([O:7][H:19])[H:18])[H:11])([H:8])([H:9])[H:10]>>[C:1]([C:2]([C:3]([H:12])([H:13])[H:14])([C:4]1([H:15])[C:5]([H:16])=[C:6]1[H:18])[H:11])([H:8])([H:9])[H:10].[O:7]([H:17])[H:19]"
C        1.47054604       1.14052230       0.21536013
C        0.70116996      -0.17428666       0.11659667
C        1.56009929      -1.28174975      -0.48565178
C       -0.57188516      -0.00896705      -0.69503393
C       -1.81706302      -0.80300091      -0.40181732
C       -1.82929443       0.58578518      -0.16735868
O       -1.97557958       0.56187496       1.59384897
H        0.85909802       1.92822092       0.66544337
H        2.37567613       1.03127135       0.81689471
H        1.77013389       1.48669911      -0.77768331
H        0.42411379      -0.49634473       1.12766551
H        2.47110343      -1.44002742       0.09582416
H        1.85699937      -1.02683210      -1.50715230
H        1.00588646      -2.22137241      -0.51957882
H       -0.35898538       0.28580989      -1.72687612
H       -2.41700230      -1.35322526      -1.11153862
H       -1.93126639      -0.55756028       1.25338759
H       -2.42770561       1.42935786      -0.47576019
H       -1.16604453       0.91382501       1.98342995
19
Frame=6 idx=008292 GeodesicLength=0.46928507552579846 rxn_smarts="[C:1]([C:2]([C:3]([H:12])([H:13])[H:14])([C@@:4]1([H:15])[C:5]([H:16])([H:17])[C@:6]1([O:7][H:19])[H:18])[H:11])([H:8])([H:9])[H:10]>>[C:1]([C:2]([C:3]([H:12])([H:13])[H:14])([C:4]1([H:15])[C:5]([H:16])=[C:6]1[H:18])[H:11])([H:8])([H:9])[H:10].[O:7]([H:17])[H:19]"
C        1.47208524       1.14032453       0.21315348
C        0.70170839      -0.17386747       0.11307193
C        1.56135293      -1.28228920      -0.48655494
C       -0.56930471      -0.00665697      -0.70088782
C       -1.81603160      -0.79629036      -0.40284441
C       -1.82483572       0.59177897      -0.17027397
O       -1.98076811       0.55936338       1.61031692
H        0.86002310       1.92722544       0.66367090
H        2.37628486       1.02998715       0.81587582
H        1.77298384       1.48659492      -0.77946181
H        0.42225047      -0.49406326       1.12396825
H        2.47043825      -1.44118034       0.09774885
H        1.86178919      -1.02772564      -1.50709781
H        1.00685808      -2.22174863      -0.52189495
H       -0.35682163       0.28115239      -1.73440442
H       -2.41681483      -1.35519186      -1.10482633
H       -1.93554467      -0.57509629       1.25079341
H       -2.42814886       1.43175114      -0.47850623
H       -1.17750422       0.92593213       1.99815313
19
Frame=7 idx=008292 GeodesicLength=0.5475641042158381 rxn_smarts="[C:1]([C:2]([C:3]([H:12])([H:13])[H:14])([C@@:4]1([H:15])[C:5]([H:16])([H:17])[C@:6]1([O:7][H:19])[H:18])[H:11])([H:8])([H:9])[H:10]>>[C:1]([C:2]([C:3]([H:12])([H:13])[H:14])([C:4]1([H:15])[C:5]([H:16])=[C:6]1[H:18])[H:11])([H:8])([H:9])[H:10].[O:7]([H:17])[H:19]"
C        1.47364135       1.14012648       0.21090104
C        0.70225077      -0.17344121       0.10951266
C        1.56259462      -1.28284694      -0.48745088
C       -0.56670412      -0.00434981      -0.70680021
C       -1.81499917      -0.78949170      -0.40388127
C       -1.82029778       0.59784636      -0.17321209
O       -1.98585379       0.55666836       1.62714044
H        0.86095660       1.92622480       0.66184885
H        2.37690287       1.02870147       0.81481619
H        1.77585192       1.48647352      -0.78128939
H        0.42036787      -0.49172890       1.12023675
H        2.46974144      -1.44234679       0.09969187
H        1.86658115      -1.02866638      -1.50702593
H        1.00781186      -2.22213802      -0.52418825
H       -0.35466170       0.27643966      -1.74196021
H       -2.41653883      -1.35706714      -1.09801386
H       -1.93979994      -0.59316986       1.24789555
H       -2.42848641       1.43423688      -0.48116023
H       -1.18935871       0.93852919       2.01293898
19
Frame=8 idx=008292 GeodesicLength=0.625878115251655 rxn_smarts="[C:1]([C:2]([C:3]([H:12])([H:13])[H:14])([C@@:4]1([H:15])[C:5]([H:16])([H:17])[C@:6]1([O:7][H:19])[H:18])[H:11])([H:8])([H:9])[H:10]>>[C:1]([C:2]([C:3]([H:12])([H:13])[H:14])([C:4]1([H:15])[C:5]([H:16])=[C:6]1[H:18])[H:11])([H:8])([H:9])[H:10].[O:7]([H:17])[H:19]"
C        1.47521401       1.13992682       0.20860344
C        0.70279741      -0.17300953       0.10591884
C        1.56382431      -1.28342381      -0.48834096
C       -0.56408396      -0.00204756      -0.71276968
C       -1.81396724      -0.78260306      -0.40492125
C       -1.81567924       0.60399032      -0.17617627
O       -1.99081044       0.55378833       1.64433643
H        0.86189790       1.92521604       0.65998025
H        2.37753072       1.02741280       0.81371494
H        1.77873583       1.48633491      -0.78316551
H        0.41846779      -0.48934449       1.11647072
H        2.46901326      -1.44352760       0.10165130
H        1.87137477      -1.02965418      -1.50693764
H        1.00874810      -2.22254156      -0.52646068
H       -0.35250745       0.27166613      -1.74954231
H       -2.41616944      -1.35884562      -1.09109819
H       -1.94402525      -0.61180304       1.24467628
H       -2.42871728       1.43682072      -0.48371865
H       -1.20164379       0.95164439       2.02777895
19
Frame=9 idx=008292 GeodesicLength=0.7042239203114012 rxn_smarts="[C:1]([C:2]([C:3]([H:12])([H:13])[H:14])([C@@:4]1([H:15])[C:5]([H:16])([H:17])[C@:6]1([O:7][H:19])[H:18])[H:11])([H:8])([H:9])[H:10]>>[C:1]([C:2]([C:3]([H:12])([H:13])[H:14])([C:4]1([H:15])[C:5]([H:16])=[C:6]1[H:18])[H:11])([H:8])([H:9])[H:10].[O:7]([H:17])[H:19]"
C        1.47680200       1.13972510       0.20626051
C        0.70334892      -0.17257423       0.10229130
C        1.56504309      -1.28402039      -0.48922560
C       -0.56144518       0.00024622      -0.71879316
C       -1.81293604      -0.77562488      -0.40595719
C       -1.81097887       0.61021225      -0.17916918
O       -1.99561698       0.55073522       1.66192247
H        0.86284511       1.92419708       0.65806724
H        2.37816866       1.02612206       0.81256991
H        1.78163152       1.48617962      -0.78509095
H        0.41655303      -0.48691267       1.11267077
H        2.46825539      -1.44472204       0.10362542
H        1.87616972      -1.03068881      -1.50683356
H        1.00966894      -2.22296061      -0.52871238
H       -0.35036083       0.26682185      -1.75714877
H       -2.41570985      -1.36051690      -1.08408845
H       -1.94821187      -0.63101127       1.24112402
H       -2.42883824       1.43950601      -0.48618196
H       -1.21438855       0.96528640       2.04266956
19
Frame=10 idx=008292 GeodesicLength=0.7826024866066859 rxn_smarts="[C:1]([C:2]([C:3]([H:12])([H:13])[H:14])([C@@:4]1([H:15])[C:5]([H:16])([H:17])[C@:6]1([O:7][H:19])[H:18])[H:11])([H:8])([H:9])[H:10]>>[C:1]([C:2]([C:3]([H:12])([H:13])[H:14])([C:4]1([H:15])[C:5]([H:16])=[C:6]1[H:18])[H:11])([H:8])([H:9])[H:10].[O:7]([H:17])[H:19]"
C        1.47840525       1.13951910       0.20387371
C        0.70390545      -0.17213738       0.09862997
C        1.56625028      -1.28463786      -0.49010682
C       -0.55878849       0.00252946      -0.72486955
C       -1.81190788      -0.76855342      -0.40698039
C       -1.80619524       0.61651587      -0.18219373
O       -2.00023788       0.54750325       1.67991805
H        0.86379812       1.92316369       0.65611427
H        2.37881762       1.02482597       0.81138083
H        1.78453685       1.48600733      -0.78706416
H        0.41462511      -0.48443708       1.10883651
H        2.46746771      -1.44593180       0.10561126
H        1.88096467      -1.03177032      -1.50671525
H        1.01057387      -2.22339641      -0.53094612
H       -0.34822435       0.26190355      -1.76477779
H       -2.41514992      -1.36207643      -1.07697559
H       -1.95235283      -0.65082501       1.23721080
H       -2.42885035       1.44229878      -0.48854433
H       -1.22763798       0.97949871       2.05759834
19
Frame=11 idx=008292 GeodesicLength=0.8610106662542113 rxn_smarts="[C:1]([C:2]([C:3]([H:12])([H:13])[H:14])([C@@:4]1([H:15])[C:5]([H:16])([H:17])[C@:6]1([O:7][H:19])[H:18])[H:11])([H:8])([H:9])[H:10]>>[C:1]([C:2]([C:3]([H:12])([H:13])[H:14])([C:4]1([H:15])[C:5]([H:16])=[C:6]1[H:18])[H:11])([H:8])([H:9])[H:10].[O:7]([H:17])[H:19]"
C        1.48002266       1.13930766       0.20144343
C        0.70446729      -0.17170095       0.09493528
C        1.56744610      -1.28527709      -0.49098571
C       -0.55611488       0.00479876      -0.73099637
C       -1.81088449      -0.76138609      -0.40798163
C       -1.80132656       0.62290481      -0.18525310
O       -2.00464619       0.54410077       1.69834102
H        0.86475531       1.92211268       0.65412463
H        2.37947794       1.02352394       0.81014600
H        1.78744790       1.48581839      -0.78908517
H        0.41268613      -0.48192096       1.10496815
H        2.46665130      -1.44715681       0.10760646
H        1.88575858      -1.03289867      -1.50658387
H        1.01146406      -2.22385045      -0.53316277
H       -0.34610077       0.25690283      -1.77242726
H       -2.41448627      -1.36351502      -1.06975822
H       -1.95643782      -0.67126755       1.23291458
H       -2.42875117       1.44520436      -0.49080513
H       -1.24142913       0.99429939       2.07255968
19
Frame=12 idx=008292 GeodesicLength=0.9394424578391951 rxn_smarts="[C:1]([C:2]([C:3]([H:12])([H:13])[H:14])([C@@:4]1([H:15])[C:5]([H:16])([H:17])[C@:6]1([O:7][H:19])[H:18])[H:11])([H:8])([H:9])[H:10]>>[C:1]([C:2]([C:3]([H:12])([H:13])[H:14])([C:4]1([H:15])[C:5]([H:16])=[C:6]1[H:18])[H:11])([H:8])([H:9])[H:10].[O:7]([H:17])[H:19]"
C        1.48165340       1.13908940       0.19897010
C        0.70503517      -0.17126731       0.09120766
C        1.56863131      -1.28593914      -0.49186366
C       -0.55342533       0.00705022      -0.73717091
C       -1.80986768      -0.75412044      -0.40894969
C       -1.79637085       0.62938281      -0.18835074
O       -2.00880773       0.54053736       1.71721330
H        0.86571510       1.92103996       0.65210255
H        2.38015078       1.02221506       0.80886316
H        1.79036026       1.48561329      -0.79115399
H        0.41073910      -0.47936803       1.10106603
H        2.46580800      -1.44839723       0.10960805
H        1.89055069      -1.03407394      -1.50644088
H        1.01234127      -2.22432448      -0.53536350
H       -0.34399333       0.25181063      -1.78009499
H       -2.41371664      -1.36482182      -1.06243615
H       -1.96045434      -0.69236102       1.22821350
H       -2.42853817       1.44822866      -0.49296407
H       -1.25581100       1.00970602       2.08754424
19
Frame=13 idx=008292 GeodesicLength=1.017889730756697 rxn_smarts="[C:1]([C:2]([C:3]([H:12])([H:13])[H:14])([C@@:4]1([H:15])[C:5]([H:16])([H:17])[C@:6]1([O:7][H:19])[H:18])[H:11])([H:8])([H:9])[H:10]>>[C:1]([C:2]([C:3]([H:12])([H:13])[H:14])([C:4]1([H:15])[C:5]([H:16])=[C:6]1[H:18])[H:11])([H:8])([H:9])[H:10].[O:7]([H:17])[H:19]"
C        1.48329626       1.13886312       0.19645376
C        0.70560988      -0.17083892       0.08744777
C        1.56980703      -1.28662508      -0.49274155
C       -0.55072099       0.00927917      -0.74338990
C       -1.80885916      -0.74675498      -0.40987316
C       -1.79132605       0.63595288      -0.19148942
O       -2.01268716       0.53682548       1.73655807
H        0.86667533       1.91994160       0.65005154
H        2.38083692       1.02089920       0.80752954
H        1.79326892       1.48539246      -0.79327128
H        0.40878740      -0.47678204       1.09713090
H        2.46494008      -1.44965275       0.11161358
H        1.89534031      -1.03529640      -1.50628732
H        1.01320797      -2.22482048      -0.53754841
H       -0.34190573       0.24661642      -1.78777800
H       -2.41284142      -1.36598257      -1.05501501
H       -1.96439001      -0.71412858       1.22308535
H       -2.42820876       1.45137665      -0.49502038
H       -1.27083079       1.02573481       2.10254391
19
Frame=14 idx=008292 GeodesicLength=1.0963429621269498 rxn_smarts="[C:1]([C:2]([C:3]([H:12])([H:13])[H:14])([C@@:4]1([H:15])[C:5]([H:16])([H:17])[C@:6]1([O:7][H:19])[H:18])[H:11])([H:8])([H:9])[H:10]>>[C:1]([C:2]([C:3]([H:12])([H:13])[H:14])([C:4]1([H:15])[C:5]([H:16])=[C:6]1[H:18])[H:11])([H:8])([H:9])[H:10].[O:7]([H:17])[H:19]"
C        1.48495026       1.13862803       0.19389357
C        0.70619244      -0.17041793       0.08365623
C        1.57097442      -1.28733605      -0.49361982
C       -0.54800284       0.01148073      -0.74965006
C       -1.80786090      -0.73928567      -0.41073839
C       -1.78618902       0.64262053      -0.19467330
O       -2.01624862       0.53297960       1.75639863
H        0.86763406       1.91881389       0.64797456
H        2.38153783       1.01957685       0.80614102
H        1.79616848       1.48515640      -0.79543884
H        0.40683464      -0.47416583       1.09316356
H        2.46404998      -1.45092272       0.11362092
H        1.90012671      -1.03656700      -1.50612412
H        1.01406660      -2.22534043      -0.53971651
H       -0.33984176       0.24130797      -1.79547387
H       -2.41186160      -1.36698168      -1.04749656
H       -1.96823025      -0.73659452       1.21750586
H       -2.42775848       1.45465589      -0.49697508
H       -1.28654194       1.04239195       2.11755219
19
Frame=15 idx=008292 GeodesicLength=1.1747832457664031 rxn_smarts="[C:1]([C:2]([C:3]([H:12])([H:13])[H:14])([C@@:4]1([H:15])[C:5]([H:16])([H:17])[C@:6]1([O:7][H:19])[H:18])[H:11])([H:8])([H:9])[H:10]>>[C:1]([C:2]([C:3]([H:12])([H:13])[H:14])([C:4]1([H:15])[C:5]([H:16])=[C:6]1[H:18])[H:11])([H:8])([H:9])[H:10].[O:7]([H:17])[H:19]"
C        1.48661470       1.13838315       0.19128868
C        0.70678413      -0.17000677       0.07983345
C        1.57213498      -1.28807341      -0.49449923
C       -0.54527193       0.01364964      -0.75594817
C       -1.80687484      -0.73170945      -0.41153064
C       -1.78095646       0.64939118      -0.19790690
O       -2.01944982       0.52901542       1.77676134
H        0.86858953       1.91765234       0.64587529
H        2.38225559       1.01824824       0.80469306
H        1.79905337       1.48490573      -0.79765859
H        0.40488513      -0.47152258       1.08916482
H        2.46314066      -1.45220681       0.11562765
H        1.90490950      -1.03788675      -1.50595244
H        1.01491996      -2.22588665      -0.54186724
H       -0.33780570       0.23587207      -1.80317966
H       -2.41077930      -1.36780115      -1.03988431
H       -1.97195763      -0.75978006       1.21145259
H       -2.42718306       1.45807412      -0.49882938
H       -1.30300882       1.05968174       2.13255969
19
Frame=16 idx=008292 GeodesicLength=1.2531987087111653 rxn_smarts="[C:1]([C:2]([C:3]([H:12])([H:13])[H:14])([C@@:4]1([H:15])[C:5]([H:16])([H:17])[C@:6]1([O:7][H:19])[H:18])[H:11])([H:8])([H:9])[H:10]>>[C:1]([C:2]([C:3]([H:12])([H:13])[H:14])([C:4]1([H:15])[C:5]([H:16])=[C:6]1[H:18])[H:11])([H:8])([H:9])[H:10].[O:7]([H:17])[H:19]"
C        1.48828866       1.13812776       0.18863760
C        0.70738623      -0.16960758       0.07598038
C        1.57329005      -1.28883839      -0.49537972
C       -0.54252953       0.01578036      -0.76228003
C       -1.80590276      -0.72402300      -0.41223423
C       -1.77562509       0.65626971      -0.20119372
O       -2.02224864       0.52495507       1.79767380
H        0.86953994       1.91645304       0.64375632
H        2.38299221       1.01691430       0.80318028
H        1.80191755       1.48464073      -0.79993337
H        0.40294322      -0.46885475       1.08513618
H        2.46221506      -1.45350418       0.11763187
H        1.90968764      -1.03925707      -1.50577295
H        1.01577078      -2.22646128      -0.54399836
H       -0.33580247       0.23029500      -1.81089168
H       -2.40959821      -1.36842056      -1.03218521
H       -1.97555394      -0.78371067       1.20489964
H       -2.42647731       1.46163859      -0.50058512
H       -1.32029338       1.07760293       2.14755831
