12
Frame=0 idx=001920 GeodesicLength=0.0 rxn_smarts="[C:1]([C:2]([C:3]([H:9])([H:10])[H:11])([O:4][H:12])[H:8])([H:5])([H:6])[H:7]>>[C:1]([C:2](=[C:3]([H:9])[H:11])[H:8])([H:5])([H:6])[H:7].[O:4]([H:10])[H:12]"
C       -1.13193946      -0.62701091       0.56726765
C       -0.04008914      -0.25409180      -0.37752155
C        1.32406625      -0.27757693      -0.00142389
O       -0.12083154       1.65070486      -0.26591479
H       -2.08981271      -0.20172975       0.27610766
H       -1.21765187      -1.71827346       0.56965628
H       -0.88998220      -0.30495070       1.57978422
H       -0.28628858      -0.33015946      -1.43253810
H        2.06142632      -0.48564899      -0.76779358
H        0.97151660       1.06842027      -0.02836270
H        1.56500254      -0.62014417       0.99898497
H       -0.14541616       2.10046103      -1.11824613
12
Frame=1 idx=001920 GeodesicLength=0.048468139085079555 rxn_smarts="[C:1]([C:2]([C:3]([H:9])([H:10])[H:11])([O:4][H:12])[H:8])([H:5])([H:6])[H:7]>>[C:1]([C:2](=[C:3]([H:9])[H:11])[H:8])([H:5])([H:6])[H:7].[O:4]([H:10])[H:12]"
C       -1.13156689      -0.63308062       0.56750965
C       -0.04308426      -0.25107957      -0.37819051
C        1.32192694      -0.27416575      -0.00290515
O       -0.12608775       1.66030444      -0.26595545
H       -2.08932402      -0.20379270       0.28097851
H       -1.21836130      -1.72408877       0.56273331
H       -0.88884899      -0.31706810       1.58186261
H       -0.28728463      -0.33909100      -1.43312720
H        2.05414449      -0.50900805      -0.76670341
H        0.98209634       1.08414562      -0.03026014
H        1.56334618      -0.60313636       1.00224686
H       -0.13695611       2.11006086      -1.11818909
12
Frame=2 idx=001920 GeodesicLength=0.09682118401123768 rxn_smarts="[C:1]([C:2]([C:3]([H:9])([H:10])[H:11])([O:4][H:12])[H:8])([H:5])([H:6])[H:7]>>[C:1]([C:2](=[C:3]([H:9])[H:11])[H:8])([H:5])([H:6])[H:7].[O:4]([H:10])[H:12]"
C       -1.13112244      -0.63915773       0.56766392
C       -0.04614675      -0.24809402      -0.37898194
C        1.31974512      -0.27062677      -0.00451206
O       -0.13126767       1.66991683      -0.26599207
H       -2.08874333      -0.20578868       0.28595416
H       -1.21908732      -1.72982676       0.55567383
H       -0.88747889      -0.32933024       1.58379566
H       -0.28825772      -0.34818471      -1.43369750
H        2.04655811      -0.53266067      -0.76483815
H        0.99293468       1.10001679      -0.03237384
H        1.56162590      -0.58593793       1.00519266
H       -0.12875969       2.11967389      -1.11788466
12
Frame=3 idx=001920 GeodesicLength=0.14523619771071752 rxn_smarts="[C:1]([C:2]([C:3]([H:9])([H:10])[H:11])([O:4][H:12])[H:8])([H:5])([H:6])[H:7]>>[C:1]([C:2](=[C:3]([H:9])[H:11])[H:8])([H:5])([H:6])[H:7].[O:4]([H:10])[H:12]"
C       -1.13063309      -0.64527193       0.56776031
C       -0.04927717      -0.24515718      -0.37991266
C        1.31752616      -0.26697739      -0.00627029
O       -0.13636338       1.67959629      -0.26603865
H       -2.08809753      -0.20773568       0.29107059
H       -1.21986396      -1.73555782       0.54851871
H       -0.88591107      -0.34174749       1.58563736
H       -0.28918616      -0.35747039      -1.43429139
H        2.03870087      -0.55653955      -0.76221462
H        1.00404166       1.11606752      -0.03470024
H        1.55982419      -0.56858875       1.00782260
H       -0.12076051       2.12938236      -1.11738172
12
Frame=4 idx=001920 GeodesicLength=0.19365972290821798 rxn_smarts="[C:1]([C:2]([C:3]([H:9])([H:10])[H:11])([O:4][H:12])[H:8])([H:5])([H:6])[H:7]>>[C:1]([C:2](=[C:3]([H:9])[H:11])[H:8])([H:5])([H:6])[H:7].[O:4]([H:10])[H:12]"
C       -1.13009184      -0.65141900       0.56779094
C       -0.05248319      -0.24227101      -0.38098501
C        1.31526184      -0.26321917      -0.00818949
O       -0.14137307       1.68932437      -0.26608896
H       -2.08737451      -0.20962667       0.29633593
H       -1.22069499      -1.74126391       0.54125547
H       -0.88412101      -0.35432995       1.58736736
H       -0.29008296      -0.36694563      -1.43489628
H        2.03055882      -0.58060995      -0.75879078
H        1.01541974       1.13228328      -0.03724239
H        1.55793337      -0.55108489       1.01012101
H       -0.11295221       2.13916252      -1.11667781
12
Frame=5 idx=001920 GeodesicLength=0.2421271128130742 rxn_smarts="[C:1]([C:2]([C:3]([H:9])([H:10])[H:11])([O:4][H:12])[H:8])([H:5])([H:6])[H:7]>>[C:1]([C:2](=[C:3]([H:9])[H:11])[H:8])([H:5])([H:6])[H:7].[O:4]([H:10])[H:12]"
C       -1.12950420      -0.65760547       0.56776133
C       -0.05576896      -0.23944239      -0.38220591
C        1.31295328      -0.25935770      -0.01028323
O       -0.14630063       1.69910938      -0.26614504
H       -2.08658037      -0.21146394       0.30176394
H       -1.22158975      -1.74695617       0.53389068
H       -0.88210833      -0.36708638       1.58899257
H       -0.29094801      -0.37661625      -1.43551961
H        2.02213301      -0.60483621      -0.75455487
H        1.02707102       1.14866852      -0.03998955
H        1.55594907      -0.53343941       1.01208043
H       -0.10530613       2.14902604      -1.11579074
12
Frame=6 idx=001920 GeodesicLength=0.29054682263650694 rxn_smarts="[C:1]([C:2]([C:3]([H:9])([H:10])[H:11])([O:4][H:12])[H:8])([H:5])([H:6])[H:7]>>[C:1]([C:2](=[C:3]([H:9])[H:11])[H:8])([H:5])([H:6])[H:7].[O:4]([H:10])[H:12]"
C       -1.12886372      -0.66382256       0.56766109
C       -0.05914729      -0.23667783      -0.38357493
C        1.31058708      -0.25539649      -0.01255961
O       -0.15113977       1.70891383      -0.26620646
H       -2.08570217      -0.21325065       0.30734864
H       -1.22254977      -1.75260476       0.52642431
H       -0.87984738      -0.38000648       1.59048293
H       -0.29180614      -0.38648827      -1.43613978
H        2.01339777      -0.62912591      -0.74947666
H        1.03899570       1.16519038      -0.04291768
H        1.55386818      -0.51566210       1.01367252
H       -0.09779249       2.15893085      -1.11471437
12
Frame=7 idx=001920 GeodesicLength=0.33895381748227105 rxn_smarts="[C:1]([C:2]([C:3]([H:9])([H:10])[H:11])([O:4][H:12])[H:8])([H:5])([H:6])[H:7]>>[C:1]([C:2](=[C:3]([H:9])[H:11])[H:8])([H:5])([H:6])[H:7].[O:4]([H:10])[H:12]"
C       -1.12817924      -0.67007143       0.56750049
C       -0.06262191      -0.23399314      -0.38509957
C        1.30816111      -0.25135341      -0.01503243
O       -0.15589075       1.71874527      -0.26628232
H       -2.08474675      -0.21499307       0.31309039
H       -1.22358111      -1.75822100       0.51889673
H       -0.87735148      -0.39306655       1.59184649
H       -0.29265531      -0.39657238      -1.43676817
H        2.00437299      -0.65337035      -0.74357358
H        1.05118789       1.18184691      -0.04598454
H        1.55168069      -0.49782684       1.01488351
H       -0.09037613       2.16887600      -1.11347700
12
Frame=8 idx=001920 GeodesicLength=0.3873981906683134 rxn_smarts="[C:1]([C:2]([C:3]([H:9])([H:10])[H:11])([O:4][H:12])[H:8])([H:5])([H:6])[H:7]>>[C:1]([C:2](=[C:3]([H:9])[H:11])[H:8])([H:5])([H:6])[H:7].[O:4]([H:10])[H:12]"
C       -1.12745458      -0.67636731       0.56728059
C       -0.06619533      -0.23138930      -0.38678595
C        1.30567674      -0.24722705      -0.01771159
O       -0.16055306       1.72862024      -0.26636316
H       -2.08371447      -0.21668745       0.31901855
H       -1.22470326      -1.76382450       0.51128142
H       -0.87461265      -0.40630797       1.59308863
H       -0.29349009      -0.40686703      -1.43741101
H        1.99505367      -0.67761451      -0.73681854
H        1.06366671       1.19865495      -0.04922843
H        1.54937778      -0.47987815       1.01572576
H       -0.08305147       2.17888809      -1.11207627
12
Frame=9 idx=001920 GeodesicLength=0.43585539331273265 rxn_smarts="[C:1]([C:2]([C:3]([H:9])([H:10])[H:11])([O:4][H:12])[H:8])([H:5])([H:6])[H:7]>>[C:1]([C:2](=[C:3]([H:9])[H:11])[H:8])([H:5])([H:6])[H:7].[O:4]([H:10])[H:12]"
C       -1.12669854      -0.68270447       0.56700863
C       -0.06987658      -0.22888393      -0.38863635
C        1.30312536      -0.24303576      -0.02060883
O       -0.16512812       1.73852195      -0.26646687
H       -2.08261127      -0.21834541       0.32512254
H       -1.22591985      -1.76940829       0.50362651
H       -0.87164246      -0.41969534       1.59420425
H       -0.29431975      -0.41739057      -1.43806126
H        1.98545623      -0.70169734      -0.72924340
H        1.07642113       1.21558988      -0.05258348
H        1.54695241      -0.46189522       1.01617154
H       -0.07575858       2.18894450      -1.11053329
12
Frame=10 idx=001920 GeodesicLength=0.48431695569636757 rxn_smarts="[C:1]([C:2]([C:3]([H:9])([H:10])[H:11])([O:4][H:12])[H:8])([H:5])([H:6])[H:7]>>[C:1]([C:2](=[C:3]([H:9])[H:11])[H:8])([H:5])([H:6])[H:7].[O:4]([H:10])[H:12]"
C       -1.12590395      -0.68908742       0.56667441
C       -0.07367146      -0.22647637      -0.39065551
C        1.30050072      -0.23877723      -0.02373033
O       -0.16960764       1.74844541      -0.26657505
H       -2.08142230      -0.21996531       0.33141215
H       -1.22724122      -1.77496951       0.49590244
H       -0.86841476      -0.43325495       1.59518016
H       -0.29515462      -0.42814027      -1.43871777
H        1.97555246      -0.72564556      -0.72080648
H        1.08947234       1.23265374      -0.05608418
H        1.54439577      -0.44382264       1.01622906
H       -0.06850534       2.19904013      -1.10882890
12
Frame=11 idx=001920 GeodesicLength=0.5327385816133452 rxn_smarts="[C:1]([C:2]([C:3]([H:9])([H:10])[H:11])([O:4][H:12])[H:8])([H:5])([H:6])[H:7]>>[C:1]([C:2](=[C:3]([H:9])[H:11])[H:8])([H:5])([H:6])[H:7].[O:4]([H:10])[H:12]"
C       -1.12507866      -0.69550811       0.56627956
C       -0.07758994      -0.22418066      -0.39284159
C        1.29779503      -0.23446327      -0.02708214
O       -0.17399437       1.75836371      -0.26670125
H       -2.08015104      -0.22155056       0.33788236
H       -1.22867753      -1.78049014       0.48813752
H       -0.86493155      -0.44696140       1.59599917
H       -0.29600664      -0.43912631      -1.43936301
H        1.96536249      -0.74932000      -0.71153765
H        1.10281356       1.24981995      -0.05967131
H        1.54170495      -0.42571339       1.01587365
H       -0.06124630       2.20913017      -1.10697531
12
Frame=12 idx=001920 GeodesicLength=0.5812565570201738 rxn_smarts="[C:1]([C:2]([C:3]([H:9])([H:10])[H:11])([O:4][H:12])[H:8])([H:5])([H:6])[H:7]>>[C:1]([C:2](=[C:3]([H:9])[H:11])[H:8])([H:5])([H:6])[H:7].[O:4]([H:10])[H:12]"
C       -1.12424353      -0.70198583       0.56585025
C       -0.08163140      -0.22201618      -0.39520652
C        1.29501031      -0.23012180      -0.03067276
O       -0.17829648       1.76832642      -0.26686768
H       -2.07881802      -0.22310234       0.34455317
H       -1.23024631      -1.78602362       0.48037468
H       -0.86123099      -0.46081989       1.59670880
H       -0.29685282      -0.45037052      -1.44003160
H        1.95493355      -0.77265027      -0.70149770
H        1.11644556       1.26711148      -0.06331947
H        1.53886406      -0.40762541       1.01512653
H       -0.05393392       2.21927795      -1.10501770
12
Frame=13 idx=001920 GeodesicLength=0.6296621959514077 rxn_smarts="[C:1]([C:2]([C:3]([H:9])([H:10])[H:11])([O:4][H:12])[H:8])([H:5])([H:6])[H:7]>>[C:1]([C:2](=[C:3]([H:9])[H:11])[H:8])([H:5])([H:6])[H:7].[O:4]([H:10])[H:12]"
C       -1.12339184      -0.70849549       0.56536088
C       -0.08582056      -0.21999567      -0.39773286
C        1.29211761      -0.22574706      -0.03449257
O       -0.18249452       1.77823338      -0.26708081
H       -2.07740206      -0.22463910       0.35139283
H       -1.23195943      -1.79149798       0.47261394
H       -0.85727672      -0.47478180       1.59723243
H       -0.29774933      -0.46189470      -1.44065222
H        1.94423589      -0.79543686      -0.69070825
H        1.13037391       1.28446018      -0.06696435
H        1.53587716      -0.38955978       1.01394586
H       -0.04651012       2.22935486      -1.10291489
12
Frame=14 idx=001920 GeodesicLength=0.6781164179674586 rxn_smarts="[C:1]([C:2]([C:3]([H:9])([H:10])[H:11])([O:4][H:12])[H:8])([H:5])([H:6])[H:7]>>[C:1]([C:2](=[C:3]([H:9])[H:11])[H:8])([H:5])([H:6])[H:7].[O:4]([H:10])[H:12]"
C       -1.12252779      -0.71506301       0.56483058
C       -0.09014620      -0.21811605      -0.40044054
C        1.28912626      -0.22134988      -0.03855461
O       -0.18660823       1.78815672      -0.26733583
H       -2.07590351      -0.22614196       0.35844299
H       -1.23382568      -1.79696904       0.46484271
H       -0.85308157      -0.48891654       1.59762681
H       -0.29865130      -0.47368340      -1.44128122
H        1.93328403      -0.81780771      -0.67915710
H        1.14460821       1.30191438      -0.07065681
H        1.53271967      -0.37147904       1.01237765
H       -0.03899387       2.23945552      -1.10069464
12
Frame=15 idx=001920 GeodesicLength=0.7266057903366274 rxn_smarts="[C:1]([C:2]([C:3]([H:9])([H:10])[H:11])([O:4][H:12])[H:8])([H:5])([H:6])[H:7]>>[C:1]([C:2](=[C:3]([H:9])[H:11])[H:8])([H:5])([H:6])[H:7].[O:4]([H:10])[H:12]"
C       -1.12167131      -0.72168216       0.56426574
C       -0.09462014      -0.21639961      -0.40332565
C        1.28602941      -0.21695287      -0.04285194
O       -0.19063790       1.79807789      -0.26765364
H       -2.07434030      -0.22761037       0.36569789
H       -1.23586848      -1.80242984       0.45710316
H       -0.84866561      -0.50319016       1.59788323
H       -0.29957206      -0.48575905      -1.44190129
H        1.92214349      -0.83958323      -0.66692056
H        1.15915415       1.31944674      -0.07433865
H        1.52939149      -0.35345922       1.01041485
H       -0.03134275       2.24954186      -1.09837315
12
Frame=16 idx=001920 GeodesicLength=0.7750356155098451 rxn_smarts="[C:1]([C:2]([C:3]([H:9])([H:10])[H:11])([O:4][H:12])[H:8])([H:5])([H:6])[H:7]>>[C:1]([C:2](=[C:3]([H:9])[H:11])[H:8])([H:5])([H:6])[H:7].[O:4]([H:10])[H:12]"
C       -1.12082508      -0.72834270       0.56366673
C       -0.09925530      -0.21486871      -0.40637330
C        1.28279869      -0.21255356      -0.04738093
O       -0.19456745       1.80795000      -0.26805688
H       -2.07270548      -0.22910665       0.37309468
H       -1.23806869      -1.80786813       0.44947281
H       -0.84405545      -0.51749763       1.59796674
H       -0.30054003      -0.49815368      -1.44246398
H        1.91079657      -0.86057509      -0.65412809
H        1.17400038       1.33703528      -0.07789008
H        1.52587738      -0.33556642       1.00802736
H       -0.02345554       2.25954729      -1.09593507
