17
Frame=0 idx=009821 GeodesicLength=0.0 rxn_smarts="[C:1]1([H:8])([H:9])[C:2]([H:10])([H:11])[O:3][C:4]([H:12])([H:13])[C:5]([H:14])=[C:6]([H:15])[C:7]1([H:16])[H:17]>>[C:1]([C:2](=[O:3])[H:10])([C:7]([C:6]([C:5](=[C:4]([H:12])[H:13])[H:14])([H:11])[H:15])([H:16])[H:17])([H:8])[H:9]"
C       -1.48895002      -0.54213143       0.24910753
C       -0.34463210      -1.34840574      -0.37743720
O        0.67712117      -1.63025492       0.35134901
C        1.63672662      -0.03149424       0.85622466
C        1.50294045       0.76078837      -0.26844288
C        0.20319278       0.96130506      -0.75079231
C       -1.00580020       0.92583435       0.19474044
H       -1.70179825      -0.88337437       1.26332338
H       -2.39639622      -0.67269177      -0.34515717
H       -0.57165923      -2.07861082      -1.16397331
H        0.00523792      -0.35182124      -1.17820388
H        0.96754652       0.09188424       1.69542670
H        2.60143625      -0.45130976       1.11117440
H        2.32805060       0.84779050      -0.96613000
H        0.09105635       1.51460994      -1.68005194
H       -1.78817287       1.59147745      -0.17022690
H       -0.71589981       1.29640435       1.17906953
17
Frame=1 idx=009821 GeodesicLength=0.10369156334952707 rxn_smarts="[C:1]1([H:8])([H:9])[C:2]([H:10])([H:11])[O:3][C:4]([H:12])([H:13])[C:5]([H:14])=[C:6]([H:15])[C:7]1([H:16])[H:17]>>[C:1]([C:2](=[O:3])[H:10])([C:7]([C:6]([C:5](=[C:4]([H:12])[H:13])[H:14])([H:11])[H:15])([H:16])[H:17])([H:8])[H:9]"
C       -1.47891509      -0.54325658       0.26123738
C       -0.35713410      -1.36007676      -0.38909947
O        0.67673194      -1.65249992       0.31989650
C        1.63726564      -0.04509701       0.85955620
C        1.50552378       0.76823662      -0.25258193
C        0.21122905       0.96833004      -0.75157860
C       -1.00968433       0.92601025       0.17582155
H       -1.65601661      -0.86856198       1.28751382
H       -2.40706138      -0.68669629      -0.29701859
H       -0.61788861      -2.09406671      -1.16193173
H       -0.00019833      -0.35731496      -1.20252944
H        0.97307228       0.07713917       1.70379357
H        2.60706167      -0.45498640       1.11268472
H        2.34109053       0.88103217      -0.93417928
H        0.11571955       1.55048104      -1.66509981
H       -1.79737536       1.56667898      -0.22226596
H       -0.74342063       1.32464834       1.15578108
17
Frame=2 idx=009821 GeodesicLength=0.20725275212190686 rxn_smarts="[C:1]1([H:8])([H:9])[C:2]([H:10])([H:11])[O:3][C:4]([H:12])([H:13])[C:5]([H:14])=[C:6]([H:15])[C:7]1([H:16])[H:17]>>[C:1]([C:2](=[O:3])[H:10])([C:7]([C:6]([C:5](=[C:4]([H:12])[H:13])[H:14])([H:11])[H:15])([H:16])[H:17])([H:8])[H:9]"
C       -1.46847417      -0.54407417       0.27311928
C       -0.37026878      -1.37181921      -0.40063746
O        0.67572025      -1.67448782       0.28779096
C        1.63790869      -0.05907835       0.86244685
C        1.50775163       0.77566844      -0.23631329
C        0.21928537       0.97547815      -0.75233288
C       -1.01360757       0.92592325       0.15644964
H       -1.60915715      -0.85301987       1.31004950
H       -2.41631173      -0.69981839      -0.24753662
H       -0.66474838      -2.10938076      -1.15821387
H       -0.00608147      -0.36294366      -1.22731655
H        0.97953889       0.06228092       1.71231260
H        2.61273377      -0.45905579       1.11352405
H        2.35339334       0.91487428      -0.90064478
H        0.14013189       1.58666572      -1.64849173
H       -1.80556868       1.53992918      -0.27505661
H       -0.77224592       1.35285807       1.13085091
17
Frame=3 idx=009821 GeodesicLength=0.31067043752832313 rxn_smarts="[C:1]1([H:8])([H:9])[C:2]([H:10])([H:11])[O:3][C:4]([H:12])([H:13])[C:5]([H:14])=[C:6]([H:15])[C:7]1([H:16])[H:17]>>[C:1]([C:2](=[O:3])[H:10])([C:7]([C:6]([C:5](=[C:4]([H:12])[H:13])[H:14])([H:11])[H:15])([H:16])[H:17])([H:8])[H:9]"
C       -1.45767685      -0.54455191       0.28466378
C       -0.38406338      -1.38363677      -0.41196897
O        0.67400042      -1.69618360       0.25515860
C        1.63871586      -0.07339717       0.86485665
C        1.50959944       0.78309534      -0.21964520
C        0.22734570       0.98275483      -0.75304125
C       -1.01754195       0.92556472       0.13665769
H       -1.56141884      -0.83676064       1.33076473
H       -2.42402706      -0.71186761      -0.19696579
H       -0.71215122      -2.12459614      -1.15265510
H       -0.01241303      -0.36874888      -1.25253716
H        0.98707439       0.04730802       1.72097280
H        2.61852797      -0.46349415       1.11356619
H        2.36485802       0.94932021      -0.86548356
H        0.16414529       1.62310273      -1.63013860
H       -1.81258915       1.51123835      -0.32845355
H       -0.80238561       1.38085269       1.10424874
17
Frame=4 idx=009821 GeodesicLength=0.41394571039357986 rxn_smarts="[C:1]1([H:8])([H:9])[C:2]([H:10])([H:11])[O:3][C:4]([H:12])([H:13])[C:5]([H:14])=[C:6]([H:15])[C:7]1([H:16])[H:17]>>[C:1]([C:2](=[O:3])[H:10])([C:7]([C:6]([C:5](=[C:4]([H:12])[H:13])[H:14])([H:11])[H:15])([H:16])[H:17])([H:8])[H:9]"
C       -1.44657912      -0.54466104       0.29577847
C       -0.39853761      -1.39553804      -0.42301314
O        0.67149689      -1.71755997       0.22213319
C        1.63975057      -0.08799812       0.86675021
C        1.51104801       0.79052765      -0.20258883
C        0.23539692       0.99016965      -0.75369279
C       -1.02145606       0.92493172       0.11647362
H       -1.51301993      -0.81980314       1.34950215
H       -2.43011094      -0.72265002      -0.14558788
H       -0.76000157      -2.13976331      -1.14509068
H       -0.01919179      -0.37478160      -1.27816950
H        0.99580033       0.03220259       1.72974934
H        2.62452462      -0.46825604       1.11268943
H        2.37537798       0.98435206      -0.82865085
H        0.18760220       1.65973250      -1.60995768
H       -1.81826322       1.48065191      -0.38227209
H       -0.83383729       1.40844321       1.07594703
17
Frame=5 idx=009821 GeodesicLength=0.5170825787964725 rxn_smarts="[C:1]1([H:8])([H:9])[C:2]([H:10])([H:11])[O:3][C:4]([H:12])([H:13])[C:5]([H:14])=[C:6]([H:15])[C:7]1([H:16])[H:17]>>[C:1]([C:2](=[O:3])[H:10])([C:7]([C:6]([C:5](=[C:4]([H:12])[H:13])[H:14])([H:11])[H:15])([H:16])[H:17])([H:8])[H:9]"
C       -1.43523665      -0.54441076       0.30640236
C       -0.41367694      -1.40754443      -0.43368482
O        0.66817649      -1.73859138       0.18887310
C        1.64109829      -0.10282582       0.86809206
C        1.51209292       0.79798310      -0.18514265
C        0.24344285       0.99773543      -0.75425493
C       -1.02532138       0.92402174       0.09591729
H       -1.46426291      -0.80214949       1.36617171
H       -2.43457127      -0.73200086      -0.09376493
H       -0.80822783      -2.15491466      -1.13537808
H       -0.02639601      -0.38111152      -1.30420191
H        1.00582801       0.01688293       1.73860663
H        2.63083339      -0.47326950       1.11075769
H        2.38485740       1.02001490      -0.79009864
H        0.21036622       1.69643908      -1.58798407
H       -1.82245154       1.44830886      -0.43630121
H       -0.86655104       1.43543237       1.04599042
17
Frame=6 idx=009821 GeodesicLength=0.6200826246595087 rxn_smarts="[C:1]1([H:8])([H:9])[C:2]([H:10])([H:11])[O:3][C:4]([H:12])([H:13])[C:5]([H:14])=[C:6]([H:15])[C:7]1([H:16])[H:17]>>[C:1]([C:2](=[O:3])[H:10])([C:7]([C:6]([C:5](=[C:4]([H:12])[H:13])[H:14])([H:11])[H:15])([H:16])[H:17])([H:8])[H:9]"
C       -1.42371675      -0.54375545       0.31643857
C       -0.42951492      -1.41965768      -0.44391302
O        0.66395220      -1.75927540       0.15548790
C        1.64280669      -0.11781573       0.86885943
C        1.51271322       0.80546575      -0.16732292
C        0.25146647       1.00547305      -0.75472783
C       -1.02909747       0.92284314       0.07502683
H       -1.41530152      -0.78385735       1.38065041
H       -2.43732407      -0.73975639      -0.04176479
H       -0.85669739      -2.17007885      -1.12337775
H       -0.03403876      -0.38778506      -1.33060721
H        1.01723466       0.00133168       1.74750094
H        2.63751356      -0.47847601       1.10768160
H        2.39318216       1.05624067      -0.74978314
H        0.23228799       1.73316345      -1.56413032
H       -1.82498548       1.41429392      -0.49034851
H       -0.90048059       1.46164626       1.01432981
17
Frame=7 idx=009821 GeodesicLength=0.7229462911153418 rxn_smarts="[C:1]1([H:8])([H:9])[C:2]([H:10])([H:11])[O:3][C:4]([H:12])([H:13])[C:5]([H:14])=[C:6]([H:15])[C:7]1([H:16])[H:17]>>[C:1]([C:2](=[O:3])[H:10])([C:7]([C:6]([C:5](=[C:4]([H:12])[H:13])[H:14])([H:11])[H:15])([H:16])[H:17])([H:8])[H:9]"
C       -1.41208003      -0.54268015       0.32581458
C       -0.44605081      -1.43187707      -0.45363395
O        0.65877968      -1.77960032       0.12209478
C        1.64492861      -0.13289375       0.86904266
C        1.51289648       0.81299896      -0.14912805
C        0.25946486       1.01342151      -0.75508616
C       -1.03274724       0.92141276       0.05383831
H       -1.36634354      -0.76498275       1.39287301
H       -2.43837099      -0.74579261       0.01009654
H       -0.90528552      -2.18527424      -1.10897926
H       -0.04211084      -0.39483954      -1.35737128
H        1.03008227      -0.01451255       1.75638073
H        2.64463523      -0.48378605       1.10338671
H        2.40024847       1.09292530      -0.70771970
H        0.25323447       1.76980690      -1.53837523
H       -1.82573309       1.37876289      -0.54421512
H       -0.93554801       1.48691071       0.98098144
17
Frame=8 idx=009821 GeodesicLength=0.8256824863959227 rxn_smarts="[C:1]1([H:8])([H:9])[C:2]([H:10])([H:11])[O:3][C:4]([H:12])([H:13])[C:5]([H:14])=[C:6]([H:15])[C:7]1([H:16])[H:17]>>[C:1]([C:2](=[O:3])[H:10])([C:7]([C:6]([C:5](=[C:4]([H:12])[H:13])[H:14])([H:11])[H:15])([H:16])[H:17])([H:8])[H:9]"
C       -1.40038562      -0.54117719       0.33447089
C       -0.46328090      -1.44421391      -0.46278635
O        0.65262481      -1.79956895       0.08879827
C        1.64752435      -0.14799177       0.86862002
C        1.51263833       0.82059116      -0.13055929
C        0.26744032       1.02161048      -0.75531311
C       -1.03623129       0.91974644       0.03237395
H       -1.31758348      -0.74558513       1.40279084
H       -2.43774759      -0.74999412       0.06151596
H       -0.95386908      -2.20051990      -1.09206542
H       -0.05061359      -0.40233038      -1.38449229
H        1.04440360      -0.03073623       1.76518399
H        2.65226882      -0.48909732       1.09779440
H        2.40595607       1.13001751      -0.66385699
H        0.27308959       1.80625782      -1.51075978
H       -1.82458171       1.34193070      -0.59767479
H       -0.97165263       1.51106078       0.94595969
17
Frame=9 idx=009821 GeodesicLength=0.9283154354634408 rxn_smarts="[C:1]1([H:8])([H:9])[C:2]([H:10])([H:11])[O:3][C:4]([H:12])([H:13])[C:5]([H:14])=[C:6]([H:15])[C:7]1([H:16])[H:17]>>[C:1]([C:2](=[O:3])[H:10])([C:7]([C:6]([C:5](=[C:4]([H:12])[H:13])[H:14])([H:11])[H:15])([H:16])[H:17])([H:8])[H:9]"
C       -1.38866878      -0.53928253       0.34238113
C       -0.48115813      -1.45668360      -0.47130853
O        0.64552248      -1.81916606       0.05571154
C        1.65065678      -0.16303083       0.86759164
C        1.51194861       0.82827655      -0.11158555
C        0.27541390       1.03008825      -0.75533779
C       -1.03951667       0.91785119       0.01064928
H       -1.26924903      -0.72571080       1.41042049
H       -2.43559276      -0.75232242       0.11215112
H       -1.00237208      -2.21577236      -1.07258574
H       -0.05953109      -0.41031783      -1.41198630
H        1.06020434      -0.04745314       1.77386711
H        2.66049393      -0.49426358       1.09086073
H        2.41022330       1.16737925      -0.61826964
H        0.29178178       1.84240272      -1.48140004
H       -1.82148446       1.30406606      -0.65052189
H       -1.00867212       1.53393916       0.90936244
17
Frame=10 idx=009821 GeodesicLength=1.0308545770260862 rxn_smarts="[C:1]1([H:8])([H:9])[C:2]([H:10])([H:11])[O:3][C:4]([H:12])([H:13])[C:5]([H:14])=[C:6]([H:15])[C:7]1([H:16])[H:17]>>[C:1]([C:2](=[O:3])[H:10])([C:7]([C:6]([C:5](=[C:4]([H:12])[H:13])[H:14])([H:11])[H:15])([H:16])[H:17])([H:8])[H:9]"
C       -1.37699158      -0.53695579       0.34948340
C       -0.49971687      -1.46927698      -0.47916902
O        0.63740357      -1.83841989       0.02286207
C        1.65434548      -0.17795585       0.86594614
C        1.51080678       0.83604891      -0.09220459
C        0.28337727       1.03889737      -0.75516675
C       -1.04256126       0.91575990      -0.01131266
H       -1.22138846      -0.70544538       1.41572967
H       -2.43189382      -0.75270035       0.16185744
H       -1.05063590      -2.23104055      -1.05043334
H       -0.06888854      -0.41883598      -1.43984795
H        1.07747680      -0.06472838       1.78233409
H        2.66933113      -0.49920691       1.08254874
H        2.41295460       1.20492419      -0.57086392
H        0.30921539       1.87816330      -1.45027079
H       -1.81633667       1.26533852      -0.70261247
H       -1.04649793       1.55543387       0.87111994
17
Frame=11 idx=009821 GeodesicLength=1.1333082646677013 rxn_smarts="[C:1]1([H:8])([H:9])[C:2]([H:10])([H:11])[O:3][C:4]([H:12])([H:13])[C:5]([H:14])=[C:6]([H:15])[C:7]1([H:16])[H:17]>>[C:1]([C:2](=[O:3])[H:10])([C:7]([C:6]([C:5](=[C:4]([H:12])[H:13])[H:14])([H:11])[H:15])([H:16])[H:17])([H:8])[H:9]"
C       -1.36538807      -0.53420401       0.35575104
C       -0.51893955      -1.48198271      -0.48633601
O        0.62827218      -1.85732900      -0.00970971
C        1.65861484      -0.19269856       0.86369121
C        1.50920277       0.84393290      -0.07237958
C        0.29134028       1.04810003      -0.75474807
C       -1.04533332       0.91349977      -0.03349115
H       -1.17410625      -0.68486747       1.41874115
H       -2.42674312      -0.75112688       0.21043425
H       -1.09852938      -2.24629688      -1.02555213
H       -0.07868920      -0.42790371      -1.46809550
H        1.09618605      -0.08266074       1.79051384
H        2.67880283      -0.50379931       1.07286165
H        2.41408092       1.24246065      -0.52170062
H        0.32534498       1.91344440      -1.41744353
H       -1.80911706       1.22599191      -0.75380289
H       -1.08499892       1.57543964       0.83126605
17
Frame=12 idx=009821 GeodesicLength=1.235708354020768 rxn_smarts="[C:1]1([H:8])([H:9])[C:2]([H:10])([H:11])[O:3][C:4]([H:12])([H:13])[C:5]([H:14])=[C:6]([H:15])[C:7]1([H:16])[H:17]>>[C:1]([C:2](=[O:3])[H:10])([C:7]([C:6]([C:5](=[C:4]([H:12])[H:13])[H:14])([H:11])[H:15])([H:16])[H:17])([H:8])[H:9]"
C       -1.35388513      -0.53103386       0.36116994
C       -0.53881879      -1.49480161      -0.49277422
O        0.61812583      -1.87590633      -0.04198702
C        1.66349087      -0.20720791       0.86081829
C        1.50713087       0.85193006      -0.05207882
C        0.29931766       1.05774625      -0.75404174
C       -1.04779721       0.91109188      -0.05588595
H       -1.12746932      -0.66404870       1.41948170
H       -2.42023530      -0.74759984       0.25773475
H       -1.14593763      -2.26150394      -0.99787457
H       -0.08896131      -0.43756629      -1.49676124
H        1.11627970      -0.10134268       1.79832275
H        2.68893270      -0.50791680       1.06179428
H        2.41353720       1.27985971      -0.47075945
H        0.34013546       1.94817696      -1.38298699
H       -1.79980387       1.18625992      -0.80398310
H       -1.12404172       1.59386317       0.78981140
17
Frame=13 idx=009821 GeodesicLength=1.3380918400841053 rxn_smarts="[C:1]1([H:8])([H:9])[C:2]([H:10])([H:11])[O:3][C:4]([H:12])([H:13])[C:5]([H:14])=[C:6]([H:15])[C:7]1([H:16])[H:17]>>[C:1]([C:2](=[O:3])[H:10])([C:7]([C:6]([C:5](=[C:4]([H:12])[H:13])[H:14])([H:11])[H:15])([H:16])[H:17])([H:8])[H:9]"
C       -1.34248545      -0.52748557       0.36574429
C       -0.55931115      -1.50773703      -0.49844724
O        0.60701330      -1.89414322      -0.07394628
C        1.66899455      -0.22141485       0.85734236
C        1.50459787       0.86006266      -0.03123682
C        0.30733370       1.06790293      -0.75295264
C       -1.04992072       0.90854452      -0.07848840
H       -1.08156013      -0.64306660       1.41801280
H       -2.41249719      -0.74217354       0.30358866
H       -1.19278183      -2.27656558      -0.96739789
H       -0.09973380      -0.44787019      -1.52588481
H        1.13767311      -0.12083854       1.80570356
H        2.69972944      -0.51139392       1.04940076
H        2.41130442       1.31683307      -0.41821641
H        0.35357046       1.98235564      -1.34697354
H       -1.78842006       1.14637359      -0.85307206
H       -1.16350652       1.61061662       0.74682367
17
Frame=14 idx=009821 GeodesicLength=1.4404802350369723 rxn_smarts="[C:1]1([H:8])([H:9])[C:2]([H:10])([H:11])[O:3][C:4]([H:12])([H:13])[C:5]([H:14])=[C:6]([H:15])[C:7]1([H:16])[H:17]>>[C:1]([C:2](=[O:3])[H:10])([C:7]([C:6]([C:5](=[C:4]([H:12])[H:13])[H:14])([H:11])[H:15])([H:16])[H:17])([H:8])[H:9]"
C       -1.33122515      -0.52352937       0.36945540
C       -0.58046196      -1.52077135      -0.50333808
O        0.59486770      -1.91207777      -0.10563227
C        1.67512562      -0.23530407       0.85323151
C        1.50156959       0.86829355      -0.00983993
C        0.31538661       1.07861607      -0.75148128
C       -1.05166581       0.90589146      -0.10131302
H       -1.03633821      -0.62199648       1.41434605
H       -2.40355379      -0.73483579       0.34800615
H       -1.23890888      -2.29148083      -0.93399394
H       -0.11105059      -0.45885247      -1.55550010
H        1.16031240      -0.14124206       1.81251854
H        2.71117870      -0.51415403       1.03567210
H        2.40731308       1.35336554      -0.36389583
H        0.36562944       2.01592591      -1.30939560
H       -1.77493529       1.10649513      -0.90104479
H       -1.20324345       1.62565654       0.70220507
17
Frame=15 idx=009821 GeodesicLength=1.5429040156941232 rxn_smarts="[C:1]1([H:8])([H:9])[C:2]([H:10])([H:11])[O:3][C:4]([H:12])([H:13])[C:5]([H:14])=[C:6]([H:15])[C:7]1([H:16])[H:17]>>[C:1]([C:2](=[O:3])[H:10])([C:7]([C:6]([C:5](=[C:4]([H:12])[H:13])[H:14])([H:11])[H:15])([H:16])[H:17])([H:8])[H:9]"
C       -1.32010962      -0.51918277       0.37230804
C       -0.60225750      -1.53389199      -0.50741794
O        0.58169583      -1.92971117      -0.13706075
C        1.68187875      -0.24882297       0.84849272
C        1.49802965       0.87661956       0.01216655
C        0.32348666       1.08995508      -0.74955558
C       -1.05300413       0.90314771      -0.12436301
H       -0.99181439      -0.60091697       1.40853033
H       -2.39348405      -0.72564119       0.39092869
H       -1.28419382      -2.30617544      -0.89764354
H       -0.12295273      -0.47054551      -1.58565259
H        1.18410015      -0.16259807       1.81867924
H        2.72325610      -0.51605326       1.02068621
H        2.40155962       1.38918693      -0.30794141
H        0.37630338       2.04890129      -1.27023571
H       -1.75937392       1.06679632      -0.94788534
H       -1.24311998       1.63893244       0.65596408
17
Frame=16 idx=009821 GeodesicLength=1.645408805994221 rxn_smarts="[C:1]1([H:8])([H:9])[C:2]([H:10])([H:11])[O:3][C:4]([H:12])([H:13])[C:5]([H:14])=[C:6]([H:15])[C:7]1([H:16])[H:17]>>[C:1]([C:2](=[O:3])[H:10])([C:7]([C:6]([C:5](=[C:4]([H:12])[H:13])[H:14])([H:11])[H:15])([H:16])[H:17])([H:8])[H:9]"
C       -1.30913690      -0.51445518       0.37431466
C       -0.62470642      -1.54709460      -0.51065403
O        0.56747571      -1.94706680      -0.16826213
C        1.68925636      -0.26194744       0.84309731
C        1.49396776       0.88499859       0.03480357
C        0.33165028       1.10197287      -0.74712666
C       -1.05389405       0.90032456      -0.14766274
H       -0.94797649      -0.57990317       1.40060912
H       -2.38234759      -0.71462075       0.43234362
H       -1.32854211      -2.32057505      -0.85828205
H       -0.13550611      -0.48301832      -1.61640038
H        1.20894937      -0.18494809       1.82406815
H        2.73593842      -0.51697088       1.00448856
H        2.39402143       1.42418193      -0.25032344
H        0.38558034       2.08130009      -1.22946770
H       -1.74173912       1.02741753      -0.99360988
H       -1.28299089       1.65040470       0.60806402
