11
Frame=0 idx=001579 GeodesicLength=0.0 rxn_smarts="[C:1]([n:2]1[c:3]([H:10])[n:4][c:5]([H:11])[n:6]1)([H:7])([H:8])[H:9]>>[C:1]([n+:2]1[c:3]([H:10])[n:4]([H:11])[c-:5][n:6]1)([H:7])([H:8])[H:9]"
C       -1.60111564      -0.29500027       0.03515800
N       -0.16135438      -0.15868134      -0.00376162
C        0.55706646       0.94258224       0.06759495
N        1.84219724       0.60296679       0.19854018
C        1.86849355      -0.83351057       0.09339811
N        0.61825006      -1.26083831      -0.06067201
H       -1.91284719      -0.93303851      -0.78880961
H       -1.89716563      -0.75514938       0.97650373
H       -2.06042922       0.68708564      -0.05634335
H        0.13900333       1.93682043       0.08657385
H        2.60790143       0.06676329      -0.54818225
11
Frame=1 idx=001579 GeodesicLength=0.03486922442778162 rxn_smarts="[C:1]([n:2]1[c:3]([H:10])[n:4][c:5]([H:11])[n:6]1)([H:7])([H:8])[H:9]>>[C:1]([n+:2]1[c:3]([H:10])[n:4]([H:11])[c-:5][n:6]1)([H:7])([H:8])[H:9]"
C       -1.60246222      -0.29557802       0.03597344
N       -0.16309931      -0.15830107      -0.00502827
C        0.55617456       0.94326534       0.06166058
N        1.83980418       0.60278209       0.19609892
C        1.86656136      -0.83003373       0.09968483
N        0.61847662      -1.25962425      -0.06055136
H       -1.91660630      -0.92804357      -0.79147438
H       -1.89624448      -0.76201113       0.97494082
H       -2.06227238       0.68697128      -0.04804448
H        0.13882607       1.93771844       0.08393443
H        2.62084190       0.06285461      -0.54719453
11
Frame=2 idx=001579 GeodesicLength=0.06974336048064142 rxn_smarts="[C:1]([n:2]1[c:3]([H:10])[n:4][c:5]([H:11])[n:6]1)([H:7])([H:8])[H:9]>>[C:1]([n+:2]1[c:3]([H:10])[n:4]([H:11])[c-:5][n:6]1)([H:7])([H:8])[H:9]"
C       -1.60382487      -0.29616458       0.03687020
N       -0.16486893      -0.15791661      -0.00632612
C        0.55524928       0.94393592       0.05578791
N        1.83736737       0.60260030       0.19377254
C        1.86457091      -0.82651622       0.10586697
N        0.61870098      -1.25837648      -0.06068174
H       -1.92047754      -0.92283643      -0.79412901
H       -1.89525044      -0.76908901       0.97332856
H       -2.06410499       0.68682611      -0.03936970
H        0.13865502       1.93862707       0.08068705
H        2.63398320       0.05890994      -0.54580666
11
Frame=3 idx=001579 GeodesicLength=0.10462836185462214 rxn_smarts="[C:1]([n:2]1[c:3]([H:10])[n:4][c:5]([H:11])[n:6]1)([H:7])([H:8])[H:9]>>[C:1]([n+:2]1[c:3]([H:10])[n:4]([H:11])[c-:5][n:6]1)([H:7])([H:8])[H:9]"
C       -1.60520899      -0.29676299       0.03789238
N       -0.16667192      -0.15752391      -0.00770927
C        0.55428611       0.94459741       0.04991628
N        1.83486513       0.60241597       0.19163940
C        1.86250032      -0.82297019       0.11199926
N        0.61892594      -1.25708766      -0.06123043
H       -1.92452709      -0.91729926      -0.79679202
H       -1.89411768      -0.77651986       0.97166395
H       -2.06594007       0.68665588      -0.03008826
H        0.13848864       1.93956507       0.07653988
H        2.64739961       0.05492953      -0.54383115
11
Frame=4 idx=001579 GeodesicLength=0.1395315016658568 rxn_smarts="[C:1]([n:2]1[c:3]([H:10])[n:4][c:5]([H:11])[n:6]1)([H:7])([H:8])[H:9]>>[C:1]([n+:2]1[c:3]([H:10])[n:4]([H:11])[c-:5][n:6]1)([H:7])([H:8])[H:9]"
C       -1.60661333      -0.29737525       0.03905867
N       -0.16851519      -0.15711632      -0.00926671
C        0.55328327       0.94525486       0.04393404
N        1.83227808       0.60223018       0.18972253
C        1.86031857      -0.81939082       0.11812779
N        0.61914160      -1.25573025      -0.06231549
H       -1.92881966      -0.91140503      -0.79942373
H       -1.89277434      -0.78432775       0.96995140
H       -2.06776591       0.68643926      -0.02010946
H        0.13831870       1.94052539       0.07144627
H        2.66114821       0.05089574      -0.54112532
11
Frame=5 idx=001579 GeodesicLength=0.1744275228068009 rxn_smarts="[C:1]([n:2]1[c:3]([H:10])[n:4][c:5]([H:11])[n:6]1)([H:7])([H:8])[H:9]>>[C:1]([n+:2]1[c:3]([H:10])[n:4]([H:11])[c-:5][n:6]1)([H:7])([H:8])[H:9]"
C       -1.60802311      -0.29799559       0.04024351
N       -0.17037111      -0.15670892      -0.01077672
C        0.55225323       0.94590794       0.03795454
N        1.82967447       0.60209360       0.18769512
C        1.85810498      -0.81574521       0.12414736
N        0.61936827      -1.25435776      -0.06336039
H       -1.93313800      -0.90538966      -0.80204505
H       -1.89145433      -0.79221717       0.96814015
H       -2.06954331       0.68616868      -0.00998890
H        0.13811382       1.94148430       0.06622883
H        2.67501509       0.04675981      -0.53823845
11
Frame=6 idx=001579 GeodesicLength=0.20934369215848925 rxn_smarts="[C:1]([n:2]1[c:3]([H:10])[n:4][c:5]([H:11])[n:6]1)([H:7])([H:8])[H:9]>>[C:1]([n+:2]1[c:3]([H:10])[n:4]([H:11])[c-:5][n:6]1)([H:7])([H:8])[H:9]"
C       -1.60944511      -0.29862574       0.04148507
N       -0.17224777      -0.15629782      -0.01228718
C        0.55118882       0.94656150       0.03191447
N        1.82703600       0.60199774       0.18562584
C        1.85584104      -0.81204027       0.13010696
N        0.61960670      -1.25295462      -0.06451883
H       -1.93754123      -0.89916017      -0.80466254
H       -1.89010104      -0.80029739       0.96622903
H       -2.07128286       0.68584452       0.00046334
H        0.13787404       1.94245350       0.06065224
H        2.68907142       0.04251875      -0.53500840
11
Frame=7 idx=001579 GeodesicLength=0.244279010665486 rxn_smarts="[C:1]([n:2]1[c:3]([H:10])[n:4][c:5]([H:11])[n:6]1)([H:7])([H:8])[H:9]>>[C:1]([n+:2]1[c:3]([H:10])[n:4]([H:11])[c-:5][n:6]1)([H:7])([H:8])[H:9]"
C       -1.61088351      -0.29926880       0.04284085
N       -0.17416081      -0.15587308      -0.01395666
C        0.55008519       0.94721686       0.02567264
N        1.82432036       0.60193071       0.18363877
C        1.85347584      -0.80829069       0.13606554
N        0.61985014      -1.25150127      -0.06607948
H       -1.94216187      -0.89261671      -0.80723600
H       -1.88857561      -0.80868503       0.96424886
H       -2.07298740       0.68546359       0.01151032
H        0.13760010       1.94343860       0.05440728
H        2.70343757       0.03818583      -0.53111213
11
Frame=8 idx=001579 GeodesicLength=0.27925709539514026 rxn_smarts="[C:1]([n:2]1[c:3]([H:10])[n:4][c:5]([H:11])[n:6]1)([H:7])([H:8])[H:9]>>[C:1]([n+:2]1[c:3]([H:10])[n:4]([H:11])[c-:5][n:6]1)([H:7])([H:8])[H:9]"
C       -1.61234342      -0.29992686       0.04437729
N       -0.17612824      -0.15542868      -0.01597558
C        0.54893717       0.94787283       0.01908750
N        1.82147632       0.60186845       0.18190123
C        1.85095242      -0.80451213       0.14206600
N        0.62009596      -1.24996977      -0.06838477
H       -1.94715191      -0.88565051      -0.80969668
H       -1.88672092      -0.81749539       0.96223562
H       -2.07465526       0.68501220       0.02343673
H        0.13729717       1.94444687       0.04713091
H        2.71824070       0.03378299      -0.52617824
11
Frame=9 idx=001579 GeodesicLength=0.31430544986360204 rxn_smarts="[C:1]([n:2]1[c:3]([H:10])[n:4][c:5]([H:11])[n:6]1)([H:7])([H:8])[H:9]>>[C:1]([n+:2]1[c:3]([H:10])[n:4]([H:11])[c-:5][n:6]1)([H:7])([H:8])[H:9]"
C       -1.61382507      -0.30060310       0.04616782
N       -0.17816419      -0.15496352      -0.01843693
C        0.54774173       0.94852096       0.01214122
N        1.81846271       0.60178859       0.18057692
C        1.84821256      -0.80073218       0.14811151
N        0.62033545      -1.24834338      -0.07171343
H       -1.95263324      -0.87808756      -0.81203148
H       -1.88442606      -0.82691429       0.96017253
H       -2.07625345       0.68448242       0.03659042
H        0.13696964       1.94549377       0.03829825
H        2.73357992       0.02935829      -0.51987683
11
Frame=10 idx=001579 GeodesicLength=0.34929983234924844 rxn_smarts="[C:1]([n:2]1[c:3]([H:10])[n:4][c:5]([H:11])[n:6]1)([H:7])([H:8])[H:9]>>[C:1]([n+:2]1[c:3]([H:10])[n:4]([H:11])[c-:5][n:6]1)([H:7])([H:8])[H:9]"
C       -1.61532922      -0.30129819       0.04826083
N       -0.18028112      -0.15447498      -0.02141919
C        0.54649448       0.94916070       0.00481811
N        1.81525248       0.60168156       0.17973825
C        1.84522430      -0.79696988       0.15419350
N        0.62057815      -1.24660988      -0.07624049
H       -1.95868998      -0.86979106      -0.81422496
H       -1.88161071      -0.83706837       0.95803540
H       -2.07775589       0.68385932       0.05122366
H        0.13663759       1.94656294       0.02755480
H        2.74947992       0.02494785      -0.51193991
11
Frame=11 idx=001579 GeodesicLength=0.38434200899721094 rxn_smarts="[C:1]([n:2]1[c:3]([H:10])[n:4][c:5]([H:11])[n:6]1)([H:7])([H:8])[H:9]>>[C:1]([n+:2]1[c:3]([H:10])[n:4]([H:11])[c-:5][n:6]1)([H:7])([H:8])[H:9]"
C       -1.61683894      -0.30200602       0.05054200
N       -0.18245316      -0.15397440      -0.02472561
C        0.54520312       0.94979331      -0.00278446
N        1.81190412       0.60159137       0.17910158
C        1.84205337      -0.79318594       0.16024379
N        0.62083336      -1.24479917      -0.08143253
H       -1.96512499      -0.86096648      -0.81629050
H       -1.87848851      -0.84770148       0.95575737
H       -2.07911088       0.68312255       0.06684207
H        0.13626526       1.94763134       0.01563725
H        2.76575724       0.02049491      -0.50289096
11
Frame=12 idx=001579 GeodesicLength=0.4194183007366972 rxn_smarts="[C:1]([n:2]1[c:3]([H:10])[n:4][c:5]([H:11])[n:6]1)([H:7])([H:8])[H:9]>>[C:1]([n+:2]1[c:3]([H:10])[n:4]([H:11])[c-:5][n:6]1)([H:7])([H:8])[H:9]"
C       -1.61834465      -0.30272268       0.05293345
N       -0.18466317      -0.15346957      -0.02821029
C        0.54386988       0.95042068      -0.01056259
N        1.80846370       0.60154686       0.17846595
C        1.83875548      -0.78935244       0.16620046
N        0.62110881      -1.24293369      -0.08692774
H       -1.97179708      -0.85175643      -0.81824207
H       -1.87520822      -0.85863501       0.95329704
H       -2.08029427       0.68225932       0.08309974
H        0.13583963       1.94867769       0.00302694
H        2.78226988       0.01596527      -0.49308090
11
Frame=13 idx=001579 GeodesicLength=0.4545157701897016 rxn_smarts="[C:1]([n:2]1[c:3]([H:10])[n:4][c:5]([H:11])[n:6]1)([H:7])([H:8])[H:9]>>[C:1]([n+:2]1[c:3]([H:10])[n:4]([H:11])[c-:5][n:6]1)([H:7])([H:8])[H:9]"
C       -1.61984171      -0.30344618       0.05539217
N       -0.18690178      -0.15296456      -0.03181018
C        0.54249693       0.95104513      -0.01846293
N        1.80495707       0.60156251       0.17772954
C        1.83536237      -0.78545508       0.17202435
N        0.62140845      -1.24102549      -0.09254640
H       -1.97863788      -0.84225494      -0.82007277
H       -1.87184392      -0.86975349       0.95064404
H       -2.08129346       0.68126027       0.09978980
H        0.13535339       1.94969012      -0.00999806
H        2.79894054       0.01134170      -0.48268957
11
Frame=14 idx=001579 GeodesicLength=0.4896313923384095 rxn_smarts="[C:1]([n:2]1[c:3]([H:10])[n:4][c:5]([H:11])[n:6]1)([H:7])([H:8])[H:9]>>[C:1]([n+:2]1[c:3]([H:10])[n:4]([H:11])[c-:5][n:6]1)([H:7])([H:8])[H:9]"
C       -1.62132629      -0.30417358       0.05786763
N       -0.18915646      -0.15246501      -0.03541905
C        0.54108448       0.95166686      -0.02640667
N        1.80141976       0.60165339       0.17677043
C        1.83191940      -0.78147611       0.17767805
N        0.62173353      -1.23909301      -0.09806121
H       -1.98554814      -0.83256479      -0.82179603
H       -1.86849998      -0.88093458       0.94778318
H       -2.08210559       0.68012336       0.11667043
H        0.13479490       1.95065880      -0.02312432
H        2.81568437       0.00660467      -0.47196245
11
Frame=15 idx=001579 GeodesicLength=0.5247549832870324 rxn_smarts="[C:1]([n:2]1[c:3]([H:10])[n:4][c:5]([H:11])[n:6]1)([H:7])([H:8])[H:9]>>[C:1]([n+:2]1[c:3]([H:10])[n:4]([H:11])[c-:5][n:6]1)([H:7])([H:8])[H:9]"
C       -1.62279709      -0.30490344       0.06033483
N       -0.19142108      -0.15197354      -0.03899947
C        0.53963317       0.95228634      -0.03435811
N        1.79787020       0.60182396       0.17553940
C        1.82845105      -0.77740861       0.18313890
N        0.62208344      -1.23714594      -0.10338155
H       -1.99248552      -0.82275473      -0.82340598
H       -1.86521947      -0.89210025       0.94472259
H       -2.08273396       0.67884812       0.13360332
H        0.13415836       1.95158142      -0.03618339
H        2.83246089       0.00174667      -0.46101054
11
Frame=16 idx=001579 GeodesicLength=0.5598802638168695 rxn_smarts="[C:1]([n:2]1[c:3]([H:10])[n:4][c:5]([H:11])[n:6]1)([H:7])([H:8])[H:9]>>[C:1]([n+:2]1[c:3]([H:10])[n:4]([H:11])[c-:5][n:6]1)([H:7])([H:8])[H:9]"
C       -1.62425392      -0.30563450       0.06277134
N       -0.19368947      -0.15149265      -0.04250721
C        0.53814310       0.95290368      -0.04227576
N        1.79432716       0.60207668       0.17399681
C        1.82498319      -0.77324696       0.18838761
N        0.62245657      -1.23519390      -0.10842479
H       -1.99940563      -0.81288771      -0.82490358
H       -1.86204628      -0.90318228       0.94147168
H       -2.08318800       0.67743742       0.15046048
H        0.13343908       1.95245852      -0.04903004
H        2.84923419      -0.00323830      -0.44994654
