13
Frame=0 idx=011626 GeodesicLength=0.0 rxn_smarts="[C:1]([O:2][c:3]1[n:4][n:5]([H:11])[c:6]([H:12])[c:7]1[H:13])([H:8])([H:9])[H:10]>>[C:1]([O:2][C:3]1=[C:7]([H:13])[C:6]([H:11])([H:12])[N:5]=[N:4]1)([H:8])([H:9])[H:10]"
C       -2.30806643       0.40402970       0.08974345
O       -1.33824104      -0.63762525       0.11363140
C       -0.06175769      -0.26412195       0.07404687
N        0.31414655       1.02447076      -0.01984755
N        1.62890258       1.08648935       0.01450211
C        2.11470048      -0.25945790       0.02681833
C        1.02081722      -1.12531796       0.08606010
H       -3.27336076      -0.09302198       0.15324907
H       -2.17478696       1.08049217       0.93514429
H       -2.23954423       0.97761215      -0.83582345
H        2.14612794       0.44367202      -1.01891908
H        3.15649724      -0.43637723       0.25489155
H        1.01456512      -2.20084394       0.12650285
13
Frame=1 idx=011626 GeodesicLength=0.038469435949316726 rxn_smarts="[C:1]([O:2][c:3]1[n:4][n:5]([H:11])[c:6]([H:12])[c:7]1[H:13])([H:8])([H:9])[H:10]>>[C:1]([O:2][C:3]1=[C:7]([H:13])[C:6]([H:11])([H:12])[N:5]=[N:4]1)([H:8])([H:9])[H:10]"
C       -2.30903222       0.40392201       0.09222412
O       -1.34022387      -0.63834021       0.12081450
C       -0.06324795      -0.26670406       0.07203755
N        0.31351355       1.02309360      -0.02366970
N        1.62691996       1.08155710       0.01211108
C        2.11472953      -0.26129404       0.02037360
C        1.01905460      -1.12737708       0.07636967
H       -3.27473677      -0.09168900       0.16076692
H       -2.17377715       1.08554473       0.93319800
H       -2.24197687       0.97181564      -0.83700374
H        2.16481488       0.45936039      -1.02504963
H        3.15102835      -0.43729057       0.27337199
H        1.01293396      -2.20259852       0.12445564
13
Frame=2 idx=011626 GeodesicLength=0.07693891440327792 rxn_smarts="[C:1]([O:2][c:3]1[n:4][n:5]([H:11])[c:6]([H:12])[c:7]1[H:13])([H:8])([H:9])[H:10]>>[C:1]([O:2][C:3]1=[C:7]([H:13])[C:6]([H:11])([H:12])[N:5]=[N:4]1)([H:8])([H:9])[H:10]"
C       -2.30997539       0.40378340       0.09473549
O       -1.34214159      -0.63902181       0.12824205
C       -0.06472944      -0.26929427       0.07030023
N        0.31289041       1.02167497      -0.02770704
N        1.62494276       1.07657238       0.00939396
C        2.11478320      -0.26317598       0.01381644
C        1.01725680      -1.12943431       0.06675819
H       -3.27606307      -0.09036750       0.16841556
H       -2.17276201       1.09072525       0.93109590
H       -2.24442102       0.96577150      -0.83823582
H        2.18400116       0.47542202      -1.03065348
H        3.14495046      -0.43833451       0.29174965
H        1.01126773      -2.20432115       0.12208887
13
Frame=3 idx=011626 GeodesicLength=0.11544280006929161 rxn_smarts="[C:1]([O:2][c:3]1[n:4][n:5]([H:11])[c:6]([H:12])[c:7]1[H:13])([H:8])([H:9])[H:10]>>[C:1]([O:2][C:3]1=[C:7]([H:13])[C:6]([H:11])([H:12])[N:5]=[N:4]1)([H:8])([H:9])[H:10]"
C       -2.31089120       0.40361174       0.09709982
O       -1.34398353      -0.63964734       0.13623683
C       -0.06617139      -0.27185207       0.06962314
N        0.31231706       1.02025865      -0.03118207
N        1.62305235       1.07152480       0.00651167
C        2.11489869      -0.26513673       0.00690791
C        1.01543080      -1.13149053       0.05740525
H       -3.27735586      -0.08907145       0.17569720
H       -2.17207589       1.09613503       0.92863148
H       -2.24651647       0.95936641      -0.83974045
H        2.20327018       0.49196337      -1.03588832
H        3.13846308      -0.43963175       0.30920469
H        1.00956220      -2.20603012       0.11949285
13
Frame=4 idx=011626 GeodesicLength=0.15380427614996023 rxn_smarts="[C:1]([O:2][c:3]1[n:4][n:5]([H:11])[c:6]([H:12])[c:7]1[H:13])([H:8])([H:9])[H:10]>>[C:1]([O:2][C:3]1=[C:7]([H:13])[C:6]([H:11])([H:12])[N:5]=[N:4]1)([H:8])([H:9])[H:10]"
C       -2.31170004       0.40339161       0.09882364
O       -1.34563559      -0.64010643       0.14567704
C       -0.06738410      -0.27422885       0.07213153
N        0.31195476       1.01897318      -0.03193503
N        1.62140412       1.06636117       0.00392379
C        2.11503961      -0.26728881      -0.00102992
C        1.01356844      -1.13352336       0.04875965
H       -3.27858895      -0.08785814       0.18122752
H       -2.17257940       1.10201010       0.92522219
H       -2.24720838       0.95227214      -0.84209368
H        2.22132636       0.50926076      -1.04120724
H        3.13199454      -0.44154654       0.32356183
H        1.00780864      -2.20771684       0.11693868
13
Frame=5 idx=011626 GeodesicLength=0.19224050951048385 rxn_smarts="[C:1]([O:2][c:3]1[n:4][n:5]([H:11])[c:6]([H:12])[c:7]1[H:13])([H:8])([H:9])[H:10]>>[C:1]([O:2][C:3]1=[C:7]([H:13])[C:6]([H:11])([H:12])[N:5]=[N:4]1)([H:8])([H:9])[H:10]"
C       -2.31256433       0.40314262       0.10110101
O       -1.34732620      -0.64059618       0.15448209
C       -0.06873945      -0.27673028       0.07265236
N        0.31143226       1.01753325      -0.03524952
N        1.61955519       1.06121240       0.00049473
C        2.11516249      -0.26936399      -0.00830272
C        1.01162649      -1.13554672       0.03979226
H       -3.27979729      -0.08660751       0.18840600
H       -2.17214382       1.10778441       0.92219443
H       -2.24903943       0.94517068      -0.84389885
H        2.24128942       0.52664498      -1.04531462
H        3.12454620      -0.44325289       0.33994297
H        1.00599846      -2.20939074       0.11369985
13
Frame=6 idx=011626 GeodesicLength=0.23068935191495651 rxn_smarts="[C:1]([O:2][c:3]1[n:4][n:5]([H:11])[c:6]([H:12])[c:7]1[H:13])([H:8])([H:9])[H:10]>>[C:1]([O:2][C:3]1=[C:7]([H:13])[C:6]([H:11])([H:12])[N:5]=[N:4]1)([H:8])([H:9])[H:10]"
C       -2.31342869       0.40286247       0.10349881
O       -1.34897790      -0.64104949       0.16329077
C       -0.07010981      -0.27924896       0.07302171
N        0.31087554       1.01603293      -0.03923156
N        1.61766249       1.05603403      -0.00342899
C        2.11529080      -0.27145884      -0.01550637
C        1.00962790      -1.13755855       0.03096629
H       -3.28096981      -0.08535587       0.19596380
H       -2.17153417       1.11358439       0.91912662
H       -2.25110335       0.93790638      -0.84560564
H        2.26204135       0.54432057      -1.04862773
H        3.11649675      -0.44500584       0.35640767
H        1.00412891      -2.21106323       0.11012463
13
Frame=7 idx=011626 GeodesicLength=0.26913007994866306 rxn_smarts="[C:1]([O:2][c:3]1[n:4][n:5]([H:11])[c:6]([H:12])[c:7]1[H:13])([H:8])([H:9])[H:10]>>[C:1]([O:2][C:3]1=[C:7]([H:13])[C:6]([H:11])([H:12])[N:5]=[N:4]1)([H:8])([H:9])[H:10]"
C       -2.31428296       0.40255304       0.10588607
O       -1.35058075      -0.64145186       0.17215642
C       -0.07146009      -0.28174994       0.07372972
N        0.31031499       1.01450425      -0.04331140
N        1.61577002       1.05081487      -0.00779220
C        2.11542644      -0.27360431      -0.02280804
C        1.00757696      -1.13955566       0.02250102
H       -3.28211312      -0.08411746       0.20347132
H       -2.17097154       1.11935282       0.91597076
H       -2.25314135       0.93054284      -0.84728659
H        2.28324084       0.56230386      -1.05128004
H        3.10801775      -0.44685982       0.37232812
H        1.00220281      -2.21273263       0.10643486
13
Frame=8 idx=011626 GeodesicLength=0.30755331618253784 rxn_smarts="[C:1]([O:2][c:3]1[n:4][n:5]([H:11])[c:6]([H:12])[c:7]1[H:13])([H:8])([H:9])[H:10]>>[C:1]([O:2][C:3]1=[C:7]([H:13])[C:6]([H:11])([H:12])[N:5]=[N:4]1)([H:8])([H:9])[H:10]"
C       -2.31512567       0.40221468       0.10814315
O       -1.35214779      -0.64181008       0.18102414
C       -0.07276401      -0.28420200       0.07516403
N        0.30978500       1.01300151      -0.04694943
N        1.61392365       1.04556346      -0.01255387
C        2.11557222      -0.27583391      -0.03037907
C        1.00547102      -1.14154745       0.01458627
H       -3.28325246      -0.08292507       0.21049480
H       -2.17064973       1.12497064       0.91276428
H       -2.25491941       0.92323289      -0.84897505
H        2.30458545       0.58060123      -1.05343198
H        3.09929667      -0.44886917       0.38711818
H        1.00022506      -2.21439672       0.10299453
13
Frame=9 idx=011626 GeodesicLength=0.3458225974602399 rxn_smarts="[C:1]([O:2][c:3]1[n:4][n:5]([H:11])[c:6]([H:12])[c:7]1[H:13])([H:8])([H:9])[H:10]>>[C:1]([O:2][C:3]1=[C:7]([H:13])[C:6]([H:11])([H:12])[N:5]=[N:4]1)([H:8])([H:9])[H:10]"
C       -2.31587619       0.40185001       0.10959992
O       -1.35362792      -0.64201686       0.19094742
C       -0.07382087      -0.28648820       0.08018102
N        0.30949835       1.01162592      -0.04718588
N        1.61239285       1.04015787      -0.01712434
C        2.11571580      -0.27823073      -0.03918720
C        1.00325780      -1.14348323       0.00797174
H       -3.28441104      -0.08181365       0.21507814
H       -2.17172339       1.13067434       0.90882311
H       -2.25498478       0.91569026      -0.85139113
H        2.32427019       0.59959265      -1.05592100
H        3.09115046      -0.45150911       0.39801366
H        0.99815874      -2.21604928       0.10019453
13
Frame=10 idx=011626 GeodesicLength=0.3841271475518483 rxn_smarts="[C:1]([O:2][c:3]1[n:4][n:5]([H:11])[c:6]([H:12])[c:7]1[H:13])([H:8])([H:9])[H:10]>>[C:1]([O:2][C:3]1=[C:7]([H:13])[C:6]([H:11])([H:12])[N:5]=[N:4]1)([H:8])([H:9])[H:10]"
C       -2.31664775       0.40146339       0.11116490
O       -1.35513522      -0.64224207       0.20029350
C       -0.07490768      -0.28879412       0.08477463
N        0.30915861       1.01021580      -0.04801229
N        1.61078124       1.03473618      -0.02236793
C        2.11583528      -0.28066854      -0.04797143
C        1.00098171      -1.14543427       0.00168004
H       -3.28557834      -0.08073188       0.21979963
H       -2.17259281       1.13600139       0.90520526
H       -2.25530258       0.90847848      -0.85346820
H        2.34473913       0.61877801      -1.05762348
H        3.08262035      -0.45410429       0.40872291
H        0.99604805      -2.21769808       0.09780246
13
Frame=11 idx=011626 GeodesicLength=0.42243600876829523 rxn_smarts="[C:1]([O:2][c:3]1[n:4][n:5]([H:11])[c:6]([H:12])[c:7]1[H:13])([H:8])([H:9])[H:10]>>[C:1]([O:2][C:3]1=[C:7]([H:13])[C:6]([H:11])([H:12])[N:5]=[N:4]1)([H:8])([H:9])[H:10]"
C       -2.31744979       0.40105955       0.11296297
O       -1.35666291      -0.64248312       0.20911626
C       -0.07605483      -0.29114995       0.08853158
N        0.30872087       1.00870689      -0.05000434
N        1.60904091       1.02928852      -0.02838480
C        2.11591544      -0.28313258      -0.05655530
C        0.99864586      -1.14741157      -0.00448701
H       -3.28673701      -0.07963692       0.22511411
H       -2.17305601       1.14108353       0.90187621
H       -2.25613381       0.90143973      -0.85517895
H        2.36631289       0.63815378      -1.05822664
H        3.07356506      -0.45655770       0.41975566
H        0.99389333      -2.21936018       0.09548025
13
Frame=12 idx=011626 GeodesicLength=0.46066533842561774 rxn_smarts="[C:1]([O:2][c:3]1[n:4][n:5]([H:11])[c:6]([H:12])[c:7]1[H:13])([H:8])([H:9])[H:10]>>[C:1]([O:2][C:3]1=[C:7]([H:13])[C:6]([H:11])([H:12])[N:5]=[N:4]1)([H:8])([H:9])[H:10]"
C       -2.31820878       0.40063195       0.11436594
O       -1.35816618      -0.64263507       0.21840436
C       -0.07706956      -0.29341602       0.09408028
N        0.30839834       1.00726737      -0.05033289
N        1.60741733       1.02374114      -0.03460653
C        2.11593017      -0.28572511      -0.06584829
C        0.99618415      -1.14937803      -0.00985114
H       -3.28791718      -0.07860562       0.22918303
H       -2.17419913       1.14614122       0.89821477
H       -2.25610686       0.89431859      -0.85720759
H        2.38734340       0.65803996      -1.05855014
H        3.06476348      -0.45934763       0.42852600
H        0.99163082      -2.22103277       0.09362219
13
Frame=13 idx=011626 GeodesicLength=0.4989095309317907 rxn_smarts="[C:1]([O:2][c:3]1[n:4][n:5]([H:11])[c:6]([H:12])[c:7]1[H:13])([H:8])([H:9])[H:10]>>[C:1]([O:2][C:3]1=[C:7]([H:13])[C:6]([H:11])([H:12])[N:5]=[N:4]1)([H:8])([H:9])[H:10]"
C       -2.31898735       0.40018456       0.11586162
O       -1.35968486      -0.64277120       0.22748534
C       -0.07810308      -0.29569300       0.09942509
N        0.30802344       1.00577107      -0.05116386
N        1.60570397       1.01814581      -0.04152972
C        2.11589335      -0.28837996      -0.07518155
C        0.99364116      -1.15137284      -0.01497495
H       -3.28910199      -0.07758176       0.23345840
H       -2.17519926       1.15106444       0.89465392
H       -2.25627668       0.88724762      -0.85905980
H        2.40915021       0.67820649      -1.05786128
H        3.05564302      -0.46208564       0.43702173
H        0.98929807      -2.22273559       0.09186503
13
Frame=14 idx=011626 GeodesicLength=0.5371454530183094 rxn_smarts="[C:1]([O:2][c:3]1[n:4][n:5]([H:11])[c:6]([H:12])[c:7]1[H:13])([H:8])([H:9])[H:10]>>[C:1]([O:2][C:3]1=[C:7]([H:13])[C:6]([H:11])([H:12])[N:5]=[N:4]1)([H:8])([H:9])[H:10]"
C       -2.31977224       0.39971043       0.11738957
O       -1.36118658      -0.64284992       0.23671576
C       -0.07911824      -0.29795812       0.10493588
N        0.30761954       1.00423266      -0.05221613
N        1.60392428       1.01248234      -0.04906819
C        2.11578443      -0.29111583      -0.08469080
C        0.99098515      -1.15339210      -0.01994291
H       -3.29027829      -0.07656845       0.23785117
H       -2.17619144       1.15604614       0.89097081
H       -2.25649196       0.87997822      -0.86091265
H        2.43161004       0.69877169      -1.05608311
H        3.04626398      -0.46486585       0.44497439
H        0.98685134      -2.22447120       0.09007622
13
Frame=15 idx=011626 GeodesicLength=0.5753602840143595 rxn_smarts="[C:1]([O:2][c:3]1[n:4][n:5]([H:11])[c:6]([H:12])[c:7]1[H:13])([H:8])([H:9])[H:10]>>[C:1]([O:2][C:3]1=[C:7]([H:13])[C:6]([H:11])([H:12])[N:5]=[N:4]1)([H:8])([H:9])[H:10]"
C       -2.32054745       0.39921549       0.11886692
O       -1.36268794      -0.64287872       0.24597710
C       -0.08010542      -0.30019809       0.11080490
N        0.30721320       1.00267996      -0.05308287
N        1.60209320       1.00673811      -0.05726135
C        2.11558778      -0.29395310      -0.09449878
C        0.98821569      -1.15543823      -0.02455899
H       -3.29145221      -0.07558221       0.24202138
H       -2.17727723       1.16093959       0.88724637
H       -2.25657356       0.87269569      -0.86273940
H        2.45445569       0.71970403      -1.05334872
H        3.03677086      -0.46769100       0.45201665
H        0.98430738      -2.22623151       0.08855680
13
Frame=16 idx=011626 GeodesicLength=0.6135745049353527 rxn_smarts="[C:1]([O:2][c:3]1[n:4][n:5]([H:11])[c:6]([H:12])[c:7]1[H:13])([H:8])([H:9])[H:10]>>[C:1]([O:2][C:3]1=[C:7]([H:13])[C:6]([H:11])([H:12])[N:5]=[N:4]1)([H:8])([H:9])[H:10]"
C       -2.32133898       0.39869729       0.12044891
O       -1.36417710      -0.64286069       0.25527068
C       -0.08109577      -0.30244158       0.11653243
N        0.30675349       1.00106474      -0.05445666
N        1.60015379       1.00091299      -0.06627833
C        2.11532009      -0.29687669      -0.10444470
C        0.98534222      -1.15752559      -0.02911995
H       -3.29261889      -0.07459476       0.24649639
H       -2.17824080       1.16584937       0.88348810
H       -2.25684952       0.86527002      -0.86447457
H        2.47813376       0.74099758      -1.04926425
H        3.02695436      -0.47046425       0.45874981
H        0.98166334      -2.22802844       0.08705216
