11
Frame=0 idx=004702 GeodesicLength=0.0 rxn_smarts="[C:1]([n:2]1[n:3][c:4]([H:10])[c:5]([H:11])[n:6]1)([H:7])([H:8])[H:9]>>[C:1]([N-:2][N+:6]#[C:5][H:11])([H:7])([H:8])[H:9].[N:3]#[C:4][H:10]"
C       -1.79691213      -0.04119985       0.11314665
N       -0.55361706       0.02011700       0.87001745
N        0.67886270       1.66054072      -0.23677080
C        1.63960183       1.03183627      -0.48798639
C        1.40513530      -0.94088917       0.09822938
N        0.29703375      -0.81616428       0.58181069
H       -2.49168122      -0.72751932       0.60232241
H       -1.62803314      -0.35926195      -0.91885378
H       -2.22127881       0.95931972       0.12781890
H        2.62163546       1.02002179      -0.92200276
H        2.04925332      -1.80680089       0.17226821
11
Frame=1 idx=004702 GeodesicLength=0.04193291375300362 rxn_smarts="[C:1]([n:2]1[n:3][c:4]([H:10])[c:5]([H:11])[n:6]1)([H:7])([H:8])[H:9]>>[C:1]([N-:2][N+:6]#[C:5][H:11])([H:7])([H:8])[H:9].[N:3]#[C:4][H:10]"
C       -1.79844241      -0.04167601       0.11479714
N       -0.54274669       0.02948022       0.84938755
N        0.67357174       1.66421631      -0.23244822
C        1.62521859       1.02706698      -0.51192664
C        1.41052988      -0.93802059       0.08949559
N        0.29838530      -0.82408636       0.57413776
H       -2.49343668      -0.70287538       0.63700861
H       -1.64749663      -0.39651385      -0.90772306
H       -2.21478854       0.96226320       0.10125848
H        2.64014862       1.02926587      -0.86236763
H        2.04905682      -1.80912038       0.14838043
11
Frame=2 idx=004702 GeodesicLength=0.08419514644436678 rxn_smarts="[C:1]([n:2]1[n:3][c:4]([H:10])[c:5]([H:11])[n:6]1)([H:7])([H:8])[H:9]>>[C:1]([N-:2][N+:6]#[C:5][H:11])([H:7])([H:8])[H:9].[N:3]#[C:4][H:10]"
C       -1.80067116      -0.04260083       0.11713834
N       -0.53149705       0.03972046       0.82632362
N        0.66686999       1.66605306      -0.23780092
C        1.61869029       1.02577408      -0.52488177
C        1.41519874      -0.93543644       0.07728745
N        0.30010367      -0.83080854       0.56496679
H       -2.49393905      -0.67583422       0.67496398
H       -1.66996366      -0.43693993      -0.89339870
H       -2.20938097       0.96362183       0.07273641
H        2.65701691       1.03825988      -0.79853010
H        2.04757229      -1.81180935       0.12119489
11
Frame=3 idx=004702 GeodesicLength=0.12675459320420063 rxn_smarts="[C:1]([n:2]1[n:3][c:4]([H:10])[c:5]([H:11])[n:6]1)([H:7])([H:8])[H:9]>>[C:1]([N-:2][N+:6]#[C:5][H:11])([H:7])([H:8])[H:9].[N:3]#[C:4][H:10]"
C       -1.80316689      -0.04378350       0.12005930
N       -0.52004032       0.05056550       0.80148318
N        0.65893143       1.66668647      -0.25063699
C        1.61717252       1.02640172      -0.53167893
C        1.41951258      -0.93299178       0.06314390
N        0.30225597      -0.83645803       0.55527809
H       -2.49280138      -0.64685447       0.71449646
H       -1.69393499      -0.47887972      -0.87597054
H       -2.20511895       0.96324637       0.04302998
H        2.67251032       1.04717171      -0.73008987
H        2.04467971      -1.81510428       0.09088542
11
Frame=4 idx=004702 GeodesicLength=0.1692808150006889 rxn_smarts="[C:1]([n:2]1[n:3][c:4]([H:10])[c:5]([H:11])[n:6]1)([H:7])([H:8])[H:9]>>[C:1]([N-:2][N+:6]#[C:5][H:11])([H:7])([H:8])[H:9].[N:3]#[C:4][H:10]"
C       -1.80532955      -0.04477308       0.12289477
N       -0.50874819       0.06057255       0.77600076
N        0.65105770       1.66693115      -0.26436537
C        1.61741677       1.02774848      -0.53576914
C        1.42383186      -0.93078637       0.04841640
N        0.30463766      -0.84207981       0.54536768
H       -2.49030740      -0.61661159       0.75242041
H       -1.71746850      -0.51943883      -0.85680963
H       -2.20119789       0.96170873       0.01335514
H        2.68376863       1.05458686      -0.66275920
H        2.04233890      -1.81785810       0.06124816
11
Frame=5 idx=004702 GeodesicLength=0.2114858745777804 rxn_smarts="[C:1]([n:2]1[n:3][c:4]([H:10])[c:5]([H:11])[n:6]1)([H:7])([H:8])[H:9]>>[C:1]([N-:2][N+:6]#[C:5][H:11])([H:7])([H:8])[H:9].[N:3]#[C:4][H:10]"
C       -1.80705302      -0.04524931       0.12549342
N       -0.49772975       0.06938447       0.75035572
N        0.64347588       1.66670268      -0.27766413
C        1.61824093       1.02887418      -0.53862556
C        1.42832576      -0.92893200       0.03411778
N        0.30700509      -0.84807420       0.53532582
H       -2.48628262      -0.58658501       0.78724805
H       -1.73971151      -0.55632237      -0.83713981
H       -2.19785013       0.95947678      -0.01453847
H        2.69049598       1.06072551      -0.59880754
H        2.04108338      -1.82000074       0.03423472
11
Frame=6 idx=004702 GeodesicLength=0.2537175719389895 rxn_smarts="[C:1]([n:2]1[n:3][c:4]([H:10])[c:5]([H:11])[n:6]1)([H:7])([H:8])[H:9]>>[C:1]([N-:2][N+:6]#[C:5][H:11])([H:7])([H:8])[H:9].[N:3]#[C:4][H:10]"
C       -1.80851646      -0.04535598       0.12774284
N       -0.48706096       0.07642449       0.72441112
N        0.63653441       1.66668751      -0.28805528
C        1.61917295       1.03026076      -0.54026869
C        1.43264277      -0.92755610       0.01863051
N        0.30924793      -0.85492611       0.52417992
H       -2.48149450      -0.55550814       0.81982308
H       -1.76170473      -0.59106583      -0.81668167
H       -2.19433880       0.95678310      -0.04186292
H        2.69323804       1.06491495      -0.53894322
H        2.04227936      -1.82065865       0.01102431
11
Frame=7 idx=004702 GeodesicLength=0.29588914606039707 rxn_smarts="[C:1]([n:2]1[n:3][c:4]([H:10])[c:5]([H:11])[n:6]1)([H:7])([H:8])[H:9]>>[C:1]([N-:2][N+:6]#[C:5][H:11])([H:7])([H:8])[H:9].[N:3]#[C:4][H:10]"
C       -1.80963345      -0.04524415       0.12975845
N       -0.47672239       0.08255801       0.69836291
N        0.62987754       1.66670008      -0.29736043
C        1.62039312       1.03180752      -0.54082246
C        1.43712746      -0.92618820       0.00349321
N        0.31158666      -0.86190225       0.51315313
H       -2.47566955      -0.52372152       0.85045262
H       -1.78286580      -0.62425710      -0.79517148
H       -2.19102951       0.95327508      -0.06904429
H        2.69299206       1.06802441      -0.48143331
H        2.04394387      -1.82105186      -0.01138835
11
Frame=8 idx=004702 GeodesicLength=0.3381436868906862 rxn_smarts="[C:1]([n:2]1[n:3][c:4]([H:10])[c:5]([H:11])[n:6]1)([H:7])([H:8])[H:9]>>[C:1]([N-:2][N+:6]#[C:5][H:11])([H:7])([H:8])[H:9].[N:3]#[C:4][H:10]"
C       -1.81047327      -0.04501206       0.13168633
N       -0.46660755       0.08796671       0.67193633
N        0.62336425       1.66668734      -0.30641085
C        1.62211292       1.03367642      -0.54019003
C        1.44161599      -0.92483785      -0.01200112
N        0.31410686      -0.86887928       0.50205965
H       -2.46879008      -0.49054613       0.87993137
H       -1.80369089      -0.65687806      -0.77196498
H       -2.18784520       0.94874414      -0.09677414
H        2.69032651       1.07029436      -0.42443794
H        2.04588047      -1.82121560      -0.03383462
11
Frame=9 idx=004702 GeodesicLength=0.38016660497317223 rxn_smarts="[C:1]([n:2]1[n:3][c:4]([H:10])[c:5]([H:11])[n:6]1)([H:7])([H:8])[H:9]>>[C:1]([N-:2][N+:6]#[C:5][H:11])([H:7])([H:8])[H:9].[N:3]#[C:4][H:10]"
C       -1.81095352      -0.04446581       0.13326869
N       -0.45693838       0.09231546       0.64584774
N        0.61716564       1.66681708      -0.31314901
C        1.62337381       1.03536128      -0.53923129
C        1.44634986      -0.92346832      -0.02647810
N        0.31654672      -0.87617331       0.49119698
H       -2.46108761      -0.45782752       0.90657686
H       -1.82314856      -0.68662938      -0.74879009
H       -2.18495430       0.94377685      -0.12321440
H        2.68498792       1.07122510      -0.37184205
H        2.04865843      -1.82093142      -0.05418533
11
Frame=10 idx=004702 GeodesicLength=0.4220701454353547 rxn_smarts="[C:1]([n:2]1[n:3][c:4]([H:10])[c:5]([H:11])[n:6]1)([H:7])([H:8])[H:9]>>[C:1]([N-:2][N+:6]#[C:5][H:11])([H:7])([H:8])[H:9].[N:3]#[C:4][H:10]"
C       -1.81121694      -0.04363508       0.13461823
N       -0.44766232       0.09558933       0.61986343
N        0.61115474       1.66707643      -0.31788028
C        1.62425941       1.03695115      -0.53795032
C        1.45109423      -0.92221734      -0.04084882
N        0.31884758      -0.88388745       0.48003143
H       -2.45265907      -0.42543504       0.93092980
H       -1.84177962      -0.71381850      -0.72562300
H       -2.18235406       0.93851155      -0.14835315
H        2.67757065       1.07081155      -0.32289189
H        2.05274541      -1.81994660      -0.07189542
11
Frame=11 idx=004702 GeodesicLength=0.4638108635237849 rxn_smarts="[C:1]([n:2]1[n:3][c:4]([H:10])[c:5]([H:11])[n:6]1)([H:7])([H:8])[H:9]>>[C:1]([N-:2][N+:6]#[C:5][H:11])([H:7])([H:8])[H:9].[N:3]#[C:4][H:10]"
C       -1.81122251      -0.04270015       0.13546747
N       -0.43897240       0.09791470       0.59441615
N        0.60550642       1.66788240      -0.31897068
C        1.62450470       1.03854872      -0.53600888
C        1.45623197      -0.92065456      -0.05344768
N        0.32103013      -0.89182983       0.46944152
H       -2.44388772      -0.39303383       0.95284659
H       -1.85922792      -0.73940043      -0.70235266
H       -2.17977781       0.93267798      -0.17337396
H        2.66880431       1.06934029      -0.27930932
H        2.05701082      -1.81874529      -0.08870854
11
Frame=12 idx=004702 GeodesicLength=0.50554513501147 rxn_smarts="[C:1]([n:2]1[n:3][c:4]([H:10])[c:5]([H:11])[n:6]1)([H:7])([H:8])[H:9]>>[C:1]([N-:2][N+:6]#[C:5][H:11])([H:7])([H:8])[H:9].[N:3]#[C:4][H:10]"
C       -1.81109726      -0.04167836       0.13615978
N       -0.43061319       0.09951002       0.56880197
N        0.59990232       1.66880099      -0.31876891
C        1.62469733       1.04029362      -0.53334973
C        1.46143459      -0.91902436      -0.06591686
N        0.32318960      -0.89992815       0.45867972
H       -2.43443956      -0.35991813       0.97344403
H       -1.87634602      -0.76406407      -0.67813746
H       -2.17737418       0.92610318      -0.19846965
H        2.65896229       1.06715173      -0.23750056
H        2.06168409      -1.81724648      -0.10494232
11
Frame=13 idx=004702 GeodesicLength=0.5473250096877413 rxn_smarts="[C:1]([n:2]1[n:3][c:4]([H:10])[c:5]([H:11])[n:6]1)([H:7])([H:8])[H:9]>>[C:1]([N-:2][N+:6]#[C:5][H:11])([H:7])([H:8])[H:9].[N:3]#[C:4][H:10]"
C       -1.81077917      -0.04064712       0.13674411
N       -0.42251549       0.10067123       0.54294566
N        0.59425536       1.66975146      -0.31806589
C        1.62505671       1.04226324      -0.52979029
C        1.46678263      -0.91719632      -0.07798355
N        0.32549366      -0.90789002       0.44819375
H       -2.42419778      -0.32560133       0.99298971
H       -1.89303599      -0.78848672      -0.65236284
H       -2.17514590       0.91840411      -0.22431226
H        2.64813661       1.06456065      -0.19615373
H        2.06594936      -1.81582918      -0.12220469
11
Frame=14 idx=004702 GeodesicLength=0.5892718781562402 rxn_smarts="[C:1]([n:2]1[n:3][c:4]([H:10])[c:5]([H:11])[n:6]1)([H:7])([H:8])[H:9]>>[C:1]([N-:2][N+:6]#[C:5][H:11])([H:7])([H:8])[H:9].[N:3]#[C:4][H:10]"
C       -1.81037467      -0.03957330       0.13734406
N       -0.41459698       0.10121396       0.51633576
N        0.58849407       1.67060417      -0.31733896
C        1.62576852       1.04455813      -0.52517076
C        1.47216017      -0.91532669      -0.09071041
N        0.32788178      -0.91596743       0.43704842
H       -2.41293375      -0.28939322       1.01193165
H       -1.90999840      -0.81290551      -0.62442083
H       -2.17311231       0.90945463      -0.25104337
H        2.63621693       1.06151491      -0.15401242
H        2.07049465      -1.81417965      -0.13996313
11
Frame=15 idx=004702 GeodesicLength=0.6313227278588185 rxn_smarts="[C:1]([n:2]1[n:3][c:4]([H:10])[c:5]([H:11])[n:6]1)([H:7])([H:8])[H:9]>>[C:1]([N-:2][N+:6]#[C:5][H:11])([H:7])([H:8])[H:9].[N:3]#[C:4][H:10]"
C       -1.80987560      -0.03840364       0.13789876
N       -0.40692263       0.10105009       0.48912836
N        0.58261877       1.67140615      -0.31597510
C        1.62653838       1.04704073      -0.51973299
C        1.47758483      -0.91342820      -0.10385781
N        0.33026066      -0.92427541       0.42523075
H       -2.40069061      -0.25184572       1.02981557
H       -1.92697809      -0.83664398      -0.59482601
H       -2.17134933       0.89945050      -0.27807443
H        2.62322641       1.05783184      -0.11217350
H        2.07558722      -1.81218238      -0.15743361
11
Frame=16 idx=004702 GeodesicLength=0.673273123207094 rxn_smarts="[C:1]([n:2]1[n:3][c:4]([H:10])[c:5]([H:11])[n:6]1)([H:7])([H:8])[H:9]>>[C:1]([N-:2][N+:6]#[C:5][H:11])([H:7])([H:8])[H:9].[N:3]#[C:4][H:10]"
C       -1.80921887      -0.03714527       0.13817751
N       -0.39966421       0.10024947       0.46197571
N        0.57671506       1.67235340      -0.31251787
C        1.62683536       1.04947360      -0.51382672
C        1.48326540      -0.91131135      -0.11582901
N        0.33254368      -0.93270884       0.41366681
H       -2.38786552      -0.21406165       1.04577784
H       -1.94312009      -0.85899564      -0.56463309
H       -2.16985566       0.88863672      -0.30491118
H        2.60970351       1.05357554      -0.07324309
H        2.08066134      -1.81006598      -0.17463692
