13
Frame=0 idx=010123 GeodesicLength=0.0 rxn_smarts="[O:1]=[C:2]1[N:3]([H:8])[C:4]([H:9])([H:10])[C@@:5]2([H:11])[C:6]([H:12])([H:13])[N:7]12>>[O-:1][N+:7]#[C:2][N:3]([C:4]([C:5](=[C:6]([H:12])[H:13])[H:11])([H:9])[H:10])[H:8]"
O        0.60792577       2.66717846       0.29291837
C        1.54127828       1.12016270       0.27234250
N        1.22000709      -0.12899003       0.37006554
C        0.42148697      -0.84547605      -0.63183867
C       -1.04390025      -0.91666235      -0.30561834
C       -1.68314153      -0.09985888       0.51434098
N        1.72446141       2.16187949      -0.35711540
H        1.30423959      -0.56657878       1.27477777
H        0.83870166      -1.85085370      -0.72344595
H        0.58065836      -0.34438171      -1.58848337
H       -1.58418378      -1.70518815      -0.82180256
H       -2.74622591      -0.21068311       0.68580836
H       -1.18130763       0.71945207       1.01805081
13
Frame=1 idx=010123 GeodesicLength=0.13068842516575296 rxn_smarts="[O:1]=[C:2]1[N:3]([H:8])[C:4]([H:9])([H:10])[C@@:5]2([H:11])[C:6]([H:12])([H:13])[N:7]12>>[O-:1][N+:7]#[C:2][N:3]([C:4]([C:5](=[C:6]([H:12])[H:13])[H:11])([H:9])[H:10])[H:8]"
O        0.57734754       2.66557591       0.41975475
C        1.49678992       1.13280583       0.24792161
N        1.23837038      -0.13329043       0.36260670
C        0.44636837      -0.88121565      -0.61837131
C       -1.03029219      -0.86465250      -0.34323995
C       -1.66032456      -0.04755575       0.48885621
N        1.53737385       2.14612438      -0.45517867
H        1.38187868      -0.56578324       1.26159664
H        0.82222200      -1.90654579      -0.64019208
H        0.65246153      -0.45369019      -1.60194835
H       -1.59360359      -1.62061137      -0.88379308
H       -2.73022311      -0.12728452       0.63456026
H       -1.13836884       0.65612332       1.12742726
13
Frame=2 idx=010123 GeodesicLength=0.264129085520704 rxn_smarts="[O:1]=[C:2]1[N:3]([H:8])[C:4]([H:9])([H:10])[C@@:5]2([H:11])[C:6]([H:12])([H:13])[N:7]12>>[O-:1][N+:7]#[C:2][N:3]([C:4]([C:5](=[C:6]([H:12])[H:13])[H:11])([H:9])[H:10])[H:8]"
O        0.56848179       2.65917267       0.53087898
C        1.45547139       1.14346311       0.21979834
N        1.25636957      -0.13537888       0.35249728
C        0.46704440      -0.91344700      -0.60461038
C       -1.01477787      -0.81320602      -0.38058220
C       -1.63449298      -0.00080302       0.46978775
N        1.33917544       2.12545129      -0.52341663
H        1.46074692      -0.55903928       1.24307452
H        0.79922076      -1.95267354      -0.55743069
H        0.71591038      -0.55731862      -1.60697375
H       -1.59713711      -1.54076436      -0.94017106
H       -2.70984714      -0.04695193       0.58912101
H       -1.10616554       0.59149558       1.20802683
13
Frame=3 idx=010123 GeodesicLength=0.40068530903348826 rxn_smarts="[O:1]=[C:2]1[N:3]([H:8])[C:4]([H:9])([H:10])[C@@:5]2([H:11])[C:6]([H:12])([H:13])[N:7]12>>[O-:1][N+:7]#[C:2][N:3]([C:4]([C:5](=[C:6]([H:12])[H:13])[H:11])([H:9])[H:10])[H:8]"
O        0.57741332       2.65538042       0.61308152
C        1.41592125       1.15215990       0.19587988
N        1.27155392      -0.13627470       0.34352574
C        0.48333257      -0.94010945      -0.59083750
C       -0.99837731      -0.76535363      -0.41500899
C       -1.61022382       0.03884940       0.45523534
N        1.15003408       2.09585557      -0.56377896
H        1.53630758      -0.55019576       1.22195444
H        0.77347407      -1.98699337      -0.48186987
H        0.76832287      -0.64757200      -1.60447820
H       -1.59536281      -1.46575972      -0.99368762
H       -2.68838371       0.01823641       0.55531199
H       -1.08401201       0.53177692       1.26467224
13
Frame=4 idx=010123 GeodesicLength=0.539472369209867 rxn_smarts="[O:1]=[C:2]1[N:3]([H:8])[C:4]([H:9])([H:10])[C@@:5]2([H:11])[C:6]([H:12])([H:13])[N:7]12>>[O-:1][N+:7]#[C:2][N:3]([C:4]([C:5](=[C:6]([H:12])[H:13])[H:11])([H:9])[H:10])[H:8]"
O        0.59946763       2.65605435       0.67070197
C        1.37842731       1.15911759       0.17618360
N        1.28364434      -0.13638419       0.33608920
C        0.49584002      -0.96199350      -0.57767660
C       -0.98208262      -0.72221055      -0.44611813
C       -1.58930767       0.07041180       0.44474985
N        0.97686999       2.06047616      -0.58083684
H        1.60815314      -0.54015898       1.19835602
H        0.74679443      -2.01170594      -0.41403491
H        0.81101870      -0.72529026      -1.59734547
H       -1.58960838      -1.39707486      -1.04402822
H       -2.66904683       0.06861821       0.53005269
H       -1.07017008       0.48014016       1.30390684
13
Frame=5 idx=010123 GeodesicLength=0.6796045539847979 rxn_smarts="[O:1]=[C:2]1[N:3]([H:8])[C:4]([H:9])([H:10])[C@@:5]2([H:11])[C:6]([H:12])([H:13])[N:7]12>>[O-:1][N+:7]#[C:2][N:3]([C:4]([C:5](=[C:6]([H:12])[H:13])[H:11])([H:9])[H:10])[H:8]"
O        0.62657980       2.65974655       0.70707873
C        1.34252473       1.16438450       0.16122495
N        1.29328337      -0.13624909       0.33023207
C        0.50547232      -0.97987315      -0.56516440
C       -0.96612715      -0.68369137      -0.47328850
C       -1.57153504       0.09528668       0.43752033
N        0.82230264       2.02161368      -0.57999919
H        1.67673604      -0.52980927       1.17200582
H        0.72047559      -2.02880459      -0.35377744
H        0.84543962      -0.79187070      -1.58729057
H       -1.58094862      -1.33430505      -1.09032818
H       -2.65227283       0.10995841       0.50883330
H       -1.06193047       0.43361340       1.33295310
13
Frame=6 idx=010123 GeodesicLength=0.8207369698330822 rxn_smarts="[O:1]=[C:2]1[N:3]([H:8])[C:4]([H:9])([H:10])[C@@:5]2([H:11])[C:6]([H:12])([H:13])[N:7]12>>[O-:1][N+:7]#[C:2][N:3]([C:4]([C:5](=[C:6]([H:12])[H:13])[H:11])([H:9])[H:10])[H:8]"
O        0.65584006       2.66730114       0.72536298
C        1.30775433       1.16813749       0.15175455
N        1.30070571      -0.13639141       0.32652889
C        0.51295679      -0.99472208      -0.55320546
C       -0.95073185      -0.64933009      -0.49672568
C       -1.55677085       0.11487681       0.43292388
N        0.68587058       1.98054978      -0.56683364
H        1.74200895      -0.51976691       1.14359759
H        0.69526233      -2.04055199      -0.30051462
H        0.87337161      -0.84919372      -1.57554909
H       -1.57015693      -1.27522523      -1.13433829
H       -2.63806636       0.14347807       0.49126912
H       -1.05804439       0.39083814       1.35572977
13
Frame=7 idx=010123 GeodesicLength=0.9625447315774853 rxn_smarts="[O:1]=[C:2]1[N:3]([H:8])[C:4]([H:9])([H:10])[C@@:5]2([H:11])[C:6]([H:12])([H:13])[N:7]12>>[O-:1][N+:7]#[C:2][N:3]([C:4]([C:5](=[C:6]([H:12])[H:13])[H:11])([H:9])[H:10])[H:8]"
O        0.68717629       2.67797504       0.72977909
C        1.27402248       1.17059285       0.14687983
N        1.30611514      -0.13679247       0.32487556
C        0.51873679      -1.00716458      -0.54170014
C       -0.93598784      -0.61817193      -0.51737951
C       -1.54488574       0.12987597       0.43024525
N        0.56463832       1.93902253      -0.54405866
H        1.80445290      -0.50982356       1.11273479
H        0.67085537      -2.04827771      -0.25260243
H        0.89654286      -0.89943081      -1.56269787
H       -1.55757967      -1.21954700      -1.17603776
H       -2.62643017       0.17067811       0.47600236
H       -1.05765675       0.35106357       1.37395950
13
Frame=8 idx=010123 GeodesicLength=1.104829211663691 rxn_smarts="[O:1]=[C:2]1[N:3]([H:8])[C:4]([H:9])([H:10])[C@@:5]2([H:11])[C:6]([H:12])([H:13])[N:7]12>>[O-:1][N+:7]#[C:2][N:3]([C:4]([C:5](=[C:6]([H:12])[H:13])[H:11])([H:9])[H:10])[H:8]"
O        0.71887585       2.69160097       0.72096383
C        1.24106977       1.17168651       0.14755864
N        1.30985011      -0.13785426       0.32563943
C        0.52323979      -1.01758776      -0.53054748
C       -0.92181665      -0.58953392      -0.53539707
C       -1.53542788       0.14105365       0.42938453
N        0.45727878       1.89705193      -0.51462727
H        1.86399295      -0.50023697       1.07978428
H        0.64739322      -2.05304276      -0.20985301
H        0.91608334      -0.94336576      -1.54906085
H       -1.54345727      -1.16536544      -1.21625895
H       -2.61697135       0.19258588       0.46294973
H       -1.06011066       0.31300793       1.38946420
13
Frame=9 idx=010123 GeodesicLength=1.2474465085235364 rxn_smarts="[O:1]=[C:2]1[N:3]([H:8])[C:4]([H:9])([H:10])[C@@:5]2([H:11])[C:6]([H:12])([H:13])[N:7]12>>[O-:1][N+:7]#[C:2][N:3]([C:4]([C:5](=[C:6]([H:12])[H:13])[H:11])([H:9])[H:10])[H:8]"
O        0.75118489       2.70730177       0.70079973
C        1.20885456       1.17161473       0.15333008
N        1.31214436      -0.13957062       0.32883259
C        0.52676159      -1.02633639      -0.51971261
C       -0.90812516      -0.56276016      -0.55135759
C       -1.52818626       0.14900350       0.42991375
N        0.36132383       1.85563681      -0.47953798
H        1.92087208      -0.49083532       1.04455875
H        0.62472977      -2.05564115      -0.17145863
H        0.93293080      -0.98208994      -1.53493673
H       -1.52788328      -1.11277863      -1.25468584
H       -2.60951842       0.21050168       0.45120378
H       -1.06508875       0.27595370       1.40305070
13
Frame=10 idx=010123 GeodesicLength=1.390341550596935 rxn_smarts="[O:1]=[C:2]1[N:3]([H:8])[C:4]([H:9])([H:10])[C@@:5]2([H:11])[C:6]([H:12])([H:13])[N:7]12>>[O-:1][N+:7]#[C:2][N:3]([C:4]([C:5](=[C:6]([H:12])[H:13])[H:11])([H:9])[H:10])[H:8]"
O        0.78405873       2.72445638       0.66919693
C        1.17713048       1.17037910       0.16471936
N        1.31313271      -0.14208362       0.33480333
C        0.52953061      -1.03358795      -0.50902177
C       -0.89479813      -0.53733989      -0.56539578
C       -1.52296731       0.15410308       0.43172179
N        0.27513988       1.81489792      -0.43971451
H        1.97536150      -0.48149828       1.00685233
H        0.60277771      -2.05662984      -0.13705272
H        0.94780399      -1.01601891      -1.52031599
H       -1.51082834      -1.06071175      -1.29170464
H       -2.60387851       0.22508356       0.44047796
H       -1.07246332       0.23895019       1.41543371
13
Frame=11 idx=010123 GeodesicLength=1.533396522649267 rxn_smarts="[O:1]=[C:2]1[N:3]([H:8])[C:4]([H:9])([H:10])[C@@:5]2([H:11])[C:6]([H:12])([H:13])[N:7]12>>[O-:1][N+:7]#[C:2][N:3]([C:4]([C:5](=[C:6]([H:12])[H:13])[H:11])([H:9])[H:10])[H:8]"
O        0.81791315       2.74195486       0.62583828
C        1.14576615       1.16806431       0.18196593
N        1.31299803      -0.14539828       0.34373653
C        0.53176620      -1.03935817      -0.49843216
C       -0.88165315      -0.51266269      -0.57775641
C       -1.51960653       0.15665545       0.43466858
N        0.19716588       1.77519268      -0.39538058
H        2.02710929      -0.47206407       0.96672578
H        0.58144205      -2.05633181      -0.10637584
H        0.96132988      -1.04538095      -1.50528778
H       -1.49219222      -1.00870820      -1.32723423
H       -2.59988552       0.23669460       0.43054034
H       -1.08215321       0.20134227       1.42699156
13
Frame=12 idx=010123 GeodesicLength=1.6764271351760032 rxn_smarts="[O:1]=[C:2]1[N:3]([H:8])[C:4]([H:9])([H:10])[C@@:5]2([H:11])[C:6]([H:12])([H:13])[N:7]12>>[O-:1][N+:7]#[C:2][N:3]([C:4]([C:5](=[C:6]([H:12])[H:13])[H:11])([H:9])[H:10])[H:8]"
O        0.85234101       2.75835350       0.56939815
C        1.11465124       1.16475435       0.20587445
N        1.31226946      -0.14958246       0.35541783
C        0.53379545      -1.04357207      -0.48823174
C       -0.86847439      -0.48823105      -0.58846401
C       -1.51767644       0.15686329       0.43892724
N        0.12644692       1.73643527      -0.34711754
H        2.07464406      -0.46233496       0.92581399
H        0.56094226      -2.05506134      -0.07990650
H        0.97389443      -1.06997168      -1.49036576
H       -1.47201590      -0.95600905      -1.36117422
H       -2.59709882       0.24596698       0.42164196
H       -1.09371928       0.16238920       1.43818614
13
Frame=13 idx=010123 GeodesicLength=1.8192677828078188 rxn_smarts="[O:1]=[C:2]1[N:3]([H:8])[C:4]([H:9])([H:10])[C@@:5]2([H:11])[C:6]([H:12])([H:13])[N:7]12>>[O-:1][N+:7]#[C:2][N:3]([C:4]([C:5](=[C:6]([H:12])[H:13])[H:11])([H:9])[H:10])[H:8]"
O        0.88555296       2.77067934       0.49987214
C        1.08376563       1.16051163       0.23680496
N        1.31135132      -0.15452162       0.36937298
C        0.53585567      -1.04609954      -0.47852828
C       -0.85498610      -0.46357532      -0.59739864
C       -1.51662357       0.15520453       0.44450847
N        0.06243850       1.69837149      -0.29604442
H        2.11740828      -0.45187027       0.88509847
H        0.54134410      -2.05285966      -0.05766291
H        0.98571924      -1.08971857      -1.47585740
H       -1.45022034      -0.90200344      -1.39308471
H       -2.59481205       0.25425609       0.41378900
H       -1.10679363       0.12162533       1.44913034
13
Frame=14 idx=010123 GeodesicLength=1.9620865156264078 rxn_smarts="[O:1]=[C:2]1[N:3]([H:8])[C:4]([H:9])([H:10])[C@@:5]2([H:11])[C:6]([H:12])([H:13])[N:7]12>>[O-:1][N+:7]#[C:2][N:3]([C:4]([C:5](=[C:6]([H:12])[H:13])[H:11])([H:9])[H:10])[H:8]"
O        0.92033051       2.77663321       0.41380954
C        1.05256042       1.15559990       0.27583078
N        1.31001088      -0.15992160       0.38634276
C        0.53811056      -1.04656223      -0.46923501
C       -0.84116057      -0.43796393      -0.60471959
C       -1.51693757       0.15145163       0.45141549
N        0.00330288       1.66163857      -0.24040835
H        2.15570892      -0.44036570       0.84492395
H        0.52276343      -2.04970346      -0.03975384
H        0.99745989      -1.10390139      -1.46169394
H       -1.42661266      -0.84572542      -1.42337263
H       -2.59364833       0.26050903       0.40695634
H       -1.12188835       0.07831140       1.45990451
13
Frame=15 idx=010123 GeodesicLength=2.105180694944933 rxn_smarts="[O:1]=[C:2]1[N:3]([H:8])[C:4]([H:9])([H:10])[C@@:5]2([H:11])[C:6]([H:12])([H:13])[N:7]12>>[O-:1][N+:7]#[C:2][N:3]([C:4]([C:5](=[C:6]([H:12])[H:13])[H:11])([H:9])[H:10])[H:8]"
O        0.95571966       2.77085804       0.31026903
C        1.02115824       1.15034052       0.32247718
N        1.30830667      -0.16522291       0.40612104
C        0.54070997      -1.04446881      -0.46027687
C       -0.82666977      -0.41047202      -0.61033015
C       -1.51826772       0.14610529       0.45960830
N       -0.05174408       1.62650750      -0.18017130
H        2.18903167      -0.42717361       0.80618937
H        0.50516302      -2.04508522      -0.02583820
H        1.00946266      -1.11214456      -1.44782693
H       -1.40086086      -0.78584285      -1.45183092
H       -2.59325766       0.26465699       0.40133969
H       -1.13875178       0.03194165       1.47026976
13
Frame=16 idx=010123 GeodesicLength=2.249069918839985 rxn_smarts="[O:1]=[C:2]1[N:3]([H:8])[C:4]([H:9])([H:10])[C@@:5]2([H:11])[C:6]([H:12])([H:13])[N:7]12>>[O-:1][N+:7]#[C:2][N:3]([C:4]([C:5](=[C:6]([H:12])[H:13])[H:11])([H:9])[H:10])[H:8]"
O        0.98603135       2.74853186       0.19705329
C        0.99105647       1.14536878       0.37233210
N        1.30698361      -0.16971958       0.42687283
C        0.54375602      -1.04023341      -0.45166731
C       -0.81125286      -0.38090076      -0.61428449
C       -1.51947604       0.14071630       0.46862111
N       -0.10251504       1.59303866      -0.11861393
H        2.21720528      -0.41160232       0.76992791
H        0.48845703      -2.03884423      -0.01439965
H        1.02136137      -1.11650687      -1.43448685
H       -1.37322979      -0.72243695      -1.47783850
H       -2.59255223       0.26840385       0.39703461
H       -1.15582516      -0.01581535       1.47944889
