19
Frame=0 idx=008078 GeodesicLength=0.0 rxn_smarts="[C:1]([C:2]([C@@:3]([O:4][H:14])([C@@:5]([C:6]([H:16])([H:17])[H:18])([O:7][H:19])[H:15])[H:13])([H:11])[H:12])([H:8])([H:9])[H:10]>>[C:1]([C:2]([C@@:3]([O:4][H:14])([C:5](=[C:6]([H:16])[H:18])[O:7][H:19])[H:13])([H:11])[H:12])([H:8])([H:9])[H:10].[H:15][H:17]"
C        2.21788858       0.41375304       1.34008633
C        0.71414526       0.41662250       1.10633091
C        0.33914751      -0.18672525      -0.23837502
O        0.68489459      -1.55409028      -0.32460636
C       -1.14529936      -0.06411404      -0.57751406
C       -1.56955258      -0.35532035      -1.90526399
O       -1.95333941      -0.25227026       0.48093002
H        2.62699687      -0.59589870       1.28374631
H        2.73194836       1.02231955       0.59246625
H        2.45842018       0.82197375       2.32265645
H        0.20226517      -0.14231812       1.89661921
H        0.32054019       1.43456015       1.14645534
H        0.88987146       0.30828592      -1.04122086
H        0.26128432      -2.02048342       0.40105095
H       -1.13452441       1.58361460      -0.53811581
H       -2.63162515      -0.45138325      -2.09515391
H       -1.33490689       1.01973399      -1.44348340
H       -0.86952765      -0.84451197      -2.56516721
H       -2.80862699      -0.55374789       0.15855889
19
Frame=1 idx=008078 GeodesicLength=0.09579218401264165 rxn_smarts="[C:1]([C:2]([C@@:3]([O:4][H:14])([C@@:5]([C:6]([H:16])([H:17])[H:18])([O:7][H:19])[H:15])[H:13])([H:11])[H:12])([H:8])([H:9])[H:10]>>[C:1]([C:2]([C@@:3]([O:4][H:14])([C:5](=[C:6]([H:16])[H:18])[O:7][H:19])[H:13])([H:11])[H:12])([H:8])([H:9])[H:10].[H:15][H:17]"
C        2.22300685       0.40860303       1.34035786
C        0.71995982       0.42322525       1.10233304
C        0.34156928      -0.19070025      -0.23703722
O        0.68202666      -1.56045929      -0.30967552
C       -1.14122872      -0.06185538      -0.57776758
C       -1.56394071      -0.34539495      -1.90754575
O       -1.94622816      -0.28250229       0.48053483
H        2.62132657      -0.60600574       1.29801210
H        2.74533234       1.00211101       0.58634868
H        2.46519811       0.82711945       2.31820877
H        0.20143301      -0.12168075       1.89798529
H        0.33670028       1.44561954       1.13111041
H        0.89711844       0.29470912      -1.04256252
H        0.23925305      -2.01975424       0.40915582
H       -1.17007662       1.58338827      -0.51975811
H       -2.62051302      -0.49818750      -2.09137205
H       -1.36649570       1.05246811      -1.45162513
H       -0.85357437      -0.79806546      -2.58298775
H       -2.81086709      -0.55263791       0.15628481
19
Frame=2 idx=008078 GeodesicLength=0.19147049166005065 rxn_smarts="[C:1]([C:2]([C@@:3]([O:4][H:14])([C@@:5]([C:6]([H:16])([H:17])[H:18])([O:7][H:19])[H:15])[H:13])([H:11])[H:12])([H:8])([H:9])[H:10]>>[C:1]([C:2]([C@@:3]([O:4][H:14])([C:5](=[C:6]([H:16])[H:18])[O:7][H:19])[H:13])([H:11])[H:12])([H:8])([H:9])[H:10].[H:15][H:17]"
C        2.22795079       0.40321773       1.34075668
C        0.72579570       0.42991720       1.09793800
C        0.34412081      -0.19499683      -0.23582599
O        0.67897617      -1.56704355      -0.29468496
C       -1.13706159      -0.05960159      -0.57773001
C       -1.55855258      -0.33443150      -1.90965158
O       -1.93907869      -0.31225441       0.47957596
H        2.61510273      -0.61617875       1.31295923
H        2.75877660       0.98101812       0.58046558
H        2.47180052       0.83228882       2.31364035
H        0.20029331      -0.10037522       1.89879410
H        0.35329356       1.45669436       1.11462283
H        0.90450535       0.28044561      -1.04408635
H        0.21786411      -2.01894878       0.41739994
H       -1.20597812       1.58217187      -0.50206882
H       -2.60622361      -0.54534056      -2.08805045
H       -1.40047462       1.08573801      -1.45928849
H       -0.83895326      -0.75005881      -2.59972488
H       -2.81215717      -0.55226171       0.15495887
19
Frame=3 idx=008078 GeodesicLength=0.2872431912603148 rxn_smarts="[C:1]([C:2]([C@@:3]([O:4][H:14])([C@@:5]([C:6]([H:16])([H:17])[H:18])([O:7][H:19])[H:15])[H:13])([H:11])[H:12])([H:8])([H:9])[H:10]>>[C:1]([C:2]([C@@:3]([O:4][H:14])([C:5](=[C:6]([H:16])[H:18])[O:7][H:19])[H:13])([H:11])[H:12])([H:8])([H:9])[H:10].[H:15][H:17]"
C        2.23273657       0.39761346       1.34125921
C        0.73168134       0.43669260       1.09314048
C        0.34679558      -0.19966136      -0.23470614
O        0.67571236      -1.57388561      -0.27955374
C       -1.13280134      -0.05739979      -0.57734517
C       -1.55346258      -0.32238501      -1.91150252
O       -1.93193301      -0.34142290       0.47815201
H        2.60833140      -0.62637252       1.32856800
H        2.77226284       0.95903352       0.57479575
H        2.47827377       0.83750836       2.30890351
H        0.19890124      -0.07836986       1.89904457
H        0.37035704       1.46774142       1.09697056
H        0.91199899       0.26541133      -1.04578132
H        0.19705173      -2.01809841       0.42590073
H       -1.24214676       1.57995389      -0.48519784
H       -2.58845994      -0.59244144      -2.08534919
H       -1.43705579       1.11953090      -1.46651347
H       -0.82572560      -0.70049514      -2.61525626
H       -2.81251784      -0.55295344       0.15447083
19
Frame=4 idx=008078 GeodesicLength=0.38318242198202246 rxn_smarts="[C:1]([C:2]([C@@:3]([O:4][H:14])([C@@:5]([C:6]([H:16])([H:17])[H:18])([O:7][H:19])[H:15])[H:13])([H:11])[H:12])([H:8])([H:9])[H:10]>>[C:1]([C:2]([C@@:3]([O:4][H:14])([C:5](=[C:6]([H:16])[H:18])[O:7][H:19])[H:13])([H:11])[H:12])([H:8])([H:9])[H:10].[H:15][H:17]"
C        2.23738955       0.39180184       1.34184574
C        0.73765091       0.44355026       1.08792535
C        0.34959744      -0.20474355      -0.23363497
O        0.67221072      -1.58103235      -0.26416569
C       -1.12843130      -0.05529225      -0.57656247
C       -1.54872203      -0.30923270      -1.91302292
O       -1.92482134      -0.36990404       0.47636833
H        2.60102319      -0.63654237       1.34486025
H        2.78578646       0.93612418       0.56931458
H        2.48467366       0.84281361       2.30394112
H        0.19731819      -0.05561430       1.89872884
H        0.38792883       1.47871858       1.07809742
H        0.91958070       0.24950517      -1.04763027
H        0.17675391      -2.01721923       0.43478972
H       -1.27853632       1.57672580      -0.46929994
H       -2.56701104      -0.63898682      -2.08349377
H       -1.47651099       1.15377797      -1.47327569
H       -0.81394762      -0.64937609      -2.62946279
H       -2.81193290      -0.55507372       0.15467715
19
Frame=5 idx=008078 GeodesicLength=0.4789272220862759 rxn_smarts="[C:1]([C:2]([C@@:3]([O:4][H:14])([C@@:5]([C:6]([H:16])([H:17])[H:18])([O:7][H:19])[H:15])[H:13])([H:11])[H:12])([H:8])([H:9])[H:10]>>[C:1]([C:2]([C@@:3]([O:4][H:14])([C:5](=[C:6]([H:16])[H:18])[O:7][H:19])[H:13])([H:11])[H:12])([H:8])([H:9])[H:10].[H:15][H:17]"
C        2.24192228       0.38582609       1.34250764
C        0.74374595       0.45048842       1.08228283
C        0.35251612      -0.21030701      -0.23258437
O        0.66842427      -1.58853689      -0.24840404
C       -1.12395556      -0.05328454      -0.57541767
C       -1.54427247      -0.29509540      -1.91417121
O       -1.91776936      -0.39757470       0.47423355
H        2.59319053      -0.64659852       1.36180020
H        2.79932636       0.91231753       0.56404472
H        2.49104023       0.84826255       2.29872660
H        0.19560724      -0.03206231       1.89781949
H        0.40606484       1.48957194       1.05800082
H        0.92726054       0.23257825      -1.04963114
H        0.15682907      -2.01632392       0.44424496
H       -1.31490761       1.57252353      -0.45461132
H       -2.54218966      -0.68418307      -2.08248818
H       -1.51915235       1.18818069      -1.47951382
H       -0.80334134      -0.59662919      -2.64229039
H       -2.81033909      -0.55915345       0.15545133
19
Frame=6 idx=008078 GeodesicLength=0.5748187137977803 rxn_smarts="[C:1]([C:2]([C@@:3]([O:4][H:14])([C@@:5]([C:6]([H:16])([H:17])[H:18])([O:7][H:19])[H:15])[H:13])([H:11])[H:12])([H:8])([H:9])[H:10]>>[C:1]([C:2]([C@@:3]([O:4][H:14])([C:5](=[C:6]([H:16])[H:18])[O:7][H:19])[H:13])([H:11])[H:12])([H:8])([H:9])[H:10].[H:15][H:17]"
C        2.24638000       0.37969546       1.34322246
C        0.75000425       0.45747373       1.07620608
C        0.35557680      -0.21640508      -0.23149875
O        0.66440298      -1.59643505      -0.23218006
C       -1.11933941      -0.05149832      -0.57380729
C       -1.54019728      -0.27990074      -1.91484749
O       -1.91079084      -0.42448694       0.47192325
H        2.58488271      -0.65649693       1.37942538
H        2.81288570       0.88758492       0.55894892
H        2.49744188       0.85388482       2.29319217
H        0.19385461      -0.00773265       1.89631961
H        0.42477256       1.50022329       1.03664302
H        0.93499242       0.21457622      -1.05174371
H        0.13733619      -2.01544759       0.45433611
H       -1.35136895       1.56727697      -0.44126849
H       -2.51357529      -0.72777186      -2.08263512
H       -1.56521936       1.22268932      -1.48525129
H       -0.79409112      -0.54225713      -2.65356727
H       -2.80794785      -0.56497244       0.15658248
19
Frame=7 idx=008078 GeodesicLength=0.6708529574057985 rxn_smarts="[C:1]([C:2]([C@@:3]([O:4][H:14])([C@@:5]([C:6]([H:16])([H:17])[H:18])([O:7][H:19])[H:15])[H:13])([H:11])[H:12])([H:8])([H:9])[H:10]>>[C:1]([C:2]([C@@:3]([O:4][H:14])([C:5](=[C:6]([H:16])[H:18])[O:7][H:19])[H:13])([H:11])[H:12])([H:8])([H:9])[H:10].[H:15][H:17]"
C        2.25079154       0.37344469       1.34397739
C        0.75646212       0.46447906       1.06969017
C        0.35879358      -0.22309981      -0.23033364
O        0.66016905      -1.60476826      -0.21539362
C       -1.11455755      -0.05000889      -0.57170260
C       -1.53648760      -0.26368338      -1.91498238
O       -1.90389268      -0.45065030       0.46952141
H        2.57614922      -0.66615879       1.39772194
H        2.82645068       0.86195433       0.55403322
H        2.50392403       0.85972088       2.28729833
H        0.19213977       0.01736578       1.89420944
H        0.44406894       1.51059015       1.01401631
H        0.94275649       0.19539982      -1.05394033
H        0.11826015      -2.01461522       0.46517474
H       -1.38788161       1.56095630      -0.42946001
H       -2.48121440      -0.76918806      -2.08408470
H       -1.61493082       1.25710478      -1.49048170
H       -0.78613460      -0.48627575      -2.66317064
H       -2.80486631      -0.57256732       0.15790667
19
Frame=8 idx=008078 GeodesicLength=0.766970235839193 rxn_smarts="[C:1]([C:2]([C@@:3]([O:4][H:14])([C@@:5]([C:6]([H:16])([H:17])[H:18])([O:7][H:19])[H:15])[H:13])([H:11])[H:12])([H:8])([H:9])[H:10]>>[C:1]([C:2]([C@@:3]([O:4][H:14])([C:5](=[C:6]([H:16])[H:18])[O:7][H:19])[H:13])([H:11])[H:12])([H:8])([H:9])[H:10].[H:15][H:17]"
C        2.25519267       0.36710587       1.34477178
C        0.76315821       0.47147372       1.06272409
C        0.36220087      -0.23045387      -0.22904064
O        0.65576775      -1.61357549      -0.19792610
C       -1.10955648      -0.04888985      -0.56908428
C       -1.53310498      -0.24647148      -1.91453542
O       -1.89707933      -0.47609312       0.46708621
H        2.56704817      -0.67549813       1.41671734
H        2.84001908       0.83543639       0.54931579
H        2.51053351       0.86581634       2.28100465
H        0.19053591       0.04322064       1.89145954
H        0.46396442       1.52058377       0.99009182
H        0.95055722       0.17494842      -1.05618108
H        0.09961142      -2.01384055       0.47686726
H       -1.42447604       1.55350532      -0.41938096
H       -2.44530201      -0.80782514      -2.08704224
H       -1.66851249       1.29117258      -1.49516027
H       -0.77941196      -0.42871620      -2.67097384
H       -2.80114592      -0.58189922       0.15928637
19
Frame=9 idx=008078 GeodesicLength=0.8626520898786607 rxn_smarts="[C:1]([C:2]([C@@:3]([O:4][H:14])([C@@:5]([C:6]([H:16])([H:17])[H:18])([O:7][H:19])[H:15])[H:13])([H:11])[H:12])([H:8])([H:9])[H:10]>>[C:1]([C:2]([C@@:3]([O:4][H:14])([C:5](=[C:6]([H:16])[H:18])[O:7][H:19])[H:13])([H:11])[H:12])([H:8])([H:9])[H:10].[H:15][H:17]"
C        2.25958683       0.36075353       1.34558735
C        0.77012108       0.47841168       1.05532965
C        0.36577448      -0.23849733      -0.22761370
O        0.65120789      -1.62284414      -0.17974224
C       -1.10436349      -0.04814949      -0.56605395
C       -1.52982955      -0.22847546      -1.91351222
O       -1.89034354      -0.50082311       0.46455514
H        2.55765309      -0.68437761       1.43626536
H        2.85351690       0.80820822       0.54483471
H        2.51728215       0.87220070       2.27431476
H        0.18914034       0.06973202       1.88806083
H        0.48444484       1.53009137       0.96500316
H        0.95839628       0.15317548      -1.05844911
H        0.08127604      -2.01317737       0.48948378
H       -1.46097493       1.54501834      -0.41120780
H       -2.40662532      -0.84300425      -2.09122202
H       -1.72589738       1.32444083      -1.49925584
H       -0.77344929      -0.36966264      -2.67689481
H       -2.79691640      -0.59302076       0.16051695
19
Frame=10 idx=008078 GeodesicLength=0.9583045489365435 rxn_smarts="[C:1]([C:2]([C@@:3]([O:4][H:14])([C@@:5]([C:6]([H:16])([H:17])[H:18])([O:7][H:19])[H:15])[H:13])([H:11])[H:12])([H:8])([H:9])[H:10]>>[C:1]([C:2]([C@@:3]([O:4][H:14])([C:5](=[C:6]([H:16])[H:18])[O:7][H:19])[H:13])([H:11])[H:12])([H:8])([H:9])[H:10].[H:15][H:17]"
C        2.26403340       0.35437339       1.34643043
C        0.77738770       0.48526302       1.04748054
C        0.36958253      -0.24728400      -0.22598188
O        0.64656897      -1.63261097      -0.16071781
C       -1.09887841      -0.04788532      -0.56249532
C       -1.52678008      -0.20954244      -1.91182265
O       -1.88370051      -0.52495900       0.46207220
H        2.54800214      -0.69277176       1.45650481
H        2.86700234       0.78015442       0.54059347
H        2.52424160       0.87890489       2.26715782
H        0.18800041       0.09691327       1.88396220
H        0.50552977       1.53903344       0.93864460
H        0.96624636       0.13000846      -1.06068860
H        0.06337651      -2.01259650       0.50308121
H       -1.49764786       1.53537187      -0.40510654
H       -2.36483062      -0.87442632      -2.09712448
H       -1.78734396       1.35679414      -1.50279368
H       -0.76854769      -0.30915445      -2.68071577
H       -2.79224260      -0.60558613       0.16151944
19
Frame=11 idx=008078 GeodesicLength=1.0540127634046914 rxn_smarts="[C:1]([C:2]([C@@:3]([O:4][H:14])([C@@:5]([C:6]([H:16])([H:17])[H:18])([O:7][H:19])[H:15])[H:13])([H:11])[H:12])([H:8])([H:9])[H:10]>>[C:1]([C:2]([C@@:3]([O:4][H:14])([C:5](=[C:6]([H:16])[H:18])[O:7][H:19])[H:13])([H:11])[H:12])([H:8])([H:9])[H:10].[H:15][H:17]"
C        2.26854957       0.34799918       1.34729132
C        0.78498251       0.49198603       1.03918348
C        0.37362517      -0.25684175      -0.22411942
O        0.64188296      -1.64286718      -0.14081151
C       -1.09309094      -0.04813342      -0.55842558
C       -1.52387842      -0.18972417      -1.90942110
O       -1.87715137      -0.54857738       0.45964212
H        2.53814897      -0.70060363       1.47738346
H        2.88044650       0.75133607       0.53661554
H        2.53143859       0.88593929       2.25951347
H        0.18718412       0.12469891       1.87914211
H        0.52721983       1.54731480       0.91106680
H        0.97407350       0.10542088      -1.06287183
H        0.04588966      -2.01211707       0.51769134
H       -1.53452559       1.52457553      -0.40123988
H       -2.32023924      -0.90175025      -2.10469840
H       -1.85279563       1.38804851      -1.50584125
H       -0.76453066      -0.24724741      -2.68228442
H       -2.78722954      -0.61945693       0.16218374
19
Frame=12 idx=008078 GeodesicLength=1.1497279770772468 rxn_smarts="[C:1]([C:2]([C@@:3]([O:4][H:14])([C@@:5]([C:6]([H:16])([H:17])[H:18])([O:7][H:19])[H:15])[H:13])([H:11])[H:12])([H:8])([H:9])[H:10]>>[C:1]([C:2]([C@@:3]([O:4][H:14])([C:5](=[C:6]([H:16])[H:18])[O:7][H:19])[H:13])([H:11])[H:12])([H:8])([H:9])[H:10].[H:15][H:17]"
C        2.27315170       0.34165121       1.34816267
C        0.79292445       0.49854667       1.03043385
C        0.37790182      -0.26716971      -0.22200444
O        0.63717674      -1.65357746      -0.11998821
C       -1.08698607      -0.04887697      -0.55387311
C       -1.52104174      -0.16908536      -1.90629554
O       -1.87070104      -0.57173371       0.45724473
H        2.52812784      -0.70780276       1.49888214
H        2.89383195       0.72177847       0.53292598
H        2.53890325       0.89331245       2.25134790
H        0.18674416       0.15302618       1.87355929
H        0.54951226       1.55484859       0.88231080
H        0.98184524       0.07941690      -1.06496753
H        0.02879184      -2.01172666       0.53331259
H       -1.57172617       1.51263518      -0.39968221
H       -2.27321218      -0.92470577      -2.11390945
H       -1.92207990       1.41797993      -1.50840965
H       -0.76124014      -0.18403938      -2.68146803
H       -2.78192401      -0.63447779       0.16241819
19
Frame=13 idx=008078 GeodesicLength=1.2454330156971456 rxn_smarts="[C:1]([C:2]([C@@:3]([O:4][H:14])([C@@:5]([C:6]([H:16])([H:17])[H:18])([O:7][H:19])[H:15])[H:13])([H:11])[H:12])([H:8])([H:9])[H:10]>>[C:1]([C:2]([C@@:3]([O:4][H:14])([C:5](=[C:6]([H:16])[H:18])[O:7][H:19])[H:13])([H:11])[H:12])([H:8])([H:9])[H:10].[H:15][H:17]"
C        2.27785601       0.33535625       1.34902653
C        0.80122298       0.50491153       1.02122957
C        0.38240434      -0.27826475      -0.21961567
O        0.63247613      -1.66470207      -0.09821906
C       -1.08055560      -0.05009851      -0.54886934
C       -1.51818307      -0.14769574      -1.90243828
O       -1.86435713      -0.59449420       0.45484467
H        2.51798530      -0.71430222       1.52095457
H        2.90714112       0.69154083       0.52954187
H        2.54665867       0.90102138       2.24262995
H        0.18672226       0.18182728       1.86717847
H        0.57238927       1.56155030       0.85241923
H        0.98952160       0.05200785      -1.06694134
H        0.01206342      -2.01140676       0.54993308
H       -1.60939141       1.49953458      -0.40046548
H       -2.22410074      -0.94306100      -2.12471306
H       -1.99491226       1.44640968      -1.51050473
H       -0.75853593      -0.11966924      -2.67812270
H       -2.77640496      -0.65046518       0.16213171
19
Frame=14 idx=008078 GeodesicLength=1.3411312570111498 rxn_smarts="[C:1]([C:2]([C@@:3]([O:4][H:14])([C@@:5]([C:6]([H:16])([H:17])[H:18])([O:7][H:19])[H:15])[H:13])([H:11])[H:12])([H:8])([H:9])[H:10]>>[C:1]([C:2]([C@@:3]([O:4][H:14])([C:5](=[C:6]([H:16])[H:18])[O:7][H:19])[H:13])([H:11])[H:12])([H:8])([H:9])[H:10].[H:15][H:17]"
C        2.28267409       0.32912866       1.34987431
C        0.80988122       0.51104690       1.01159480
C        0.38710970      -0.29006267      -0.21694046
O        0.62780672      -1.67614372      -0.07553714
C       -1.07381123      -0.05171144      -0.54344541
C       -1.51521720      -0.12566137      -1.89786951
O       -1.85812313      -0.61690269       0.45239583
H        2.50776070      -0.72004381       1.54353074
H        2.92034179       0.66067800       0.52649982
H        2.55473503       0.90902116       2.23334848
H        0.18716210       0.21100299       1.85997659
H        0.59582863       1.56735599       0.82150730
H        0.99704438       0.02330920      -1.06875062
H       -0.00431897      -2.01112140       0.56745123
H       -1.64770611       1.48524468      -0.40352552
H       -2.17333687      -0.95675836      -2.13694155
H       -2.07083823       1.47321912      -1.51225112
H       -0.75626468      -0.05438290      -2.67219227
H       -2.77072794      -0.66721836       0.16127450
19
Frame=15 idx=008078 GeodesicLength=1.4368141557700924 rxn_smarts="[C:1]([C:2]([C@@:3]([O:4][H:14])([C@@:5]([C:6]([H:16])([H:17])[H:18])([O:7][H:19])[H:15])[H:13])([H:11])[H:12])([H:8])([H:9])[H:10]>>[C:1]([C:2]([C@@:3]([O:4][H:14])([C:5](=[C:6]([H:16])[H:18])[O:7][H:19])[H:13])([H:11])[H:12])([H:8])([H:9])[H:10].[H:15][H:17]"
C        2.28761185       0.32298391       1.35068319
C        0.81889253       0.51692876       1.00154991
C        0.39197582      -0.30249547      -0.21396911
O        0.62317143      -1.68780563      -0.05197910
C       -1.06678502      -0.05362321      -0.53762979
C       -1.51208124      -0.10310040      -1.89260664
O       -1.85201714      -0.63899877       0.44984633
H        2.49749427      -0.72498031       1.56651193
H        2.93340002       0.62926237       0.52381421
H        2.56315875       0.91727000       2.22348188
H        0.18809431       0.24045730       1.85194196
H        0.61979586       1.57221206       0.78969018
H        1.00433912      -0.00656423      -1.07036081
H       -0.02039254      -2.01082828       0.58577284
H       -1.68684480       1.46973058      -0.40874640
H       -2.12125334      -0.96580152      -2.15042543
H       -2.14931298       1.49835724      -1.51374813
H       -0.75428948       0.01157034      -2.66361962
H       -2.76495741      -0.68457474       0.15979260
19
Frame=16 idx=008078 GeodesicLength=1.53247594107353 rxn_smarts="[C:1]([C:2]([C@@:3]([O:4][H:14])([C@@:5]([C:6]([H:16])([H:17])[H:18])([O:7][H:19])[H:15])[H:13])([H:11])[H:12])([H:8])([H:9])[H:10]>>[C:1]([C:2]([C@@:3]([O:4][H:14])([C:5](=[C:6]([H:16])[H:18])[O:7][H:19])[H:13])([H:11])[H:12])([H:8])([H:9])[H:10].[H:15][H:17]"
C        2.29267368       0.31692669       1.35143465
C        0.82824803       0.52253834       0.99112566
C        0.39695296      -0.31546447      -0.21069766
O        0.61857329      -1.69956411      -0.02761725
C       -1.05952288      -0.05571029      -0.53144475
C       -1.50871521      -0.08013441      -1.88667680
O       -1.84605188      -0.66081028       0.44714235
H        2.48720830      -0.72907695       1.58981262
H        2.94628205       0.59734587       0.52149737
H        2.57196132       0.92571150       2.21301399
H        0.18954714       0.27009395       1.84307111
H        0.64426047       1.57608111       0.75710673
H        1.01132188      -0.03744345      -1.07173876
H       -0.03619037      -2.01047653       0.60476094
H       -1.72698262       1.45294128      -0.41594411
H       -2.06816364      -0.97028287      -2.16493829
H       -2.22974477       1.52181997      -1.51517790
H       -0.75251405       0.07790677      -2.65237733
H       -2.75914368      -0.70240213       0.15764743
