14
Frame=0 idx=011477 GeodesicLength=0.0 rxn_smarts="[C:1]([C@@:2]([C:3]#[N:4])([C:5](=[O:6])[C:7]([H:12])([H:13])[H:14])[H:11])([H:8])([H:9])[H:10]>>[C:1](/[C:2]([C:3]#[N:4])=[C:5](\[O:6][H:11])[C:7]([H:12])([H:13])[H:14])([H:8])([H:9])[H:10]"
C       -1.64103443      -0.27794615       0.69741331
C       -0.65051660       0.07358123      -0.42257747
C       -0.70048494       1.43561653      -0.85612727
N       -0.73352337       2.52366664      -1.23298534
C        0.66918462      -0.51671444      -0.29478206
O        0.59039279      -1.72068501      -0.68372198
C        1.94036878       0.08756097       0.14739461
H       -1.49244324       0.33966912       1.58782955
H       -2.65882417      -0.11805408       0.34366696
H       -1.55093516      -1.32599180       0.98498186
H       -0.49854628      -1.30376053      -1.04771657
H        2.77545002      -0.59795101       0.02864471
H        1.84401154       0.40678184       1.18763441
H        2.10690045       0.99422675      -0.43965466
14
Frame=1 idx=011477 GeodesicLength=0.055653973440337824 rxn_smarts="[C:1]([C@@:2]([C:3]#[N:4])([C:5](=[O:6])[C:7]([H:12])([H:13])[H:14])[H:11])([H:8])([H:9])[H:10]>>[C:1](/[C:2]([C:3]#[N:4])=[C:5](\[O:6][H:11])[C:7]([H:12])([H:13])[H:14])([H:8])([H:9])[H:10]"
C       -1.65495027      -0.28906681       0.69058095
C       -0.64686895       0.07571840      -0.40772082
C       -0.68888524       1.44391249      -0.82473381
N       -0.71361011       2.53868954      -1.18186892
C        0.66906110      -0.51992201      -0.27109998
O        0.58943219      -1.72183329      -0.66801659
C        1.94909369       0.09357055       0.13208943
H       -1.53198490       0.33083693       1.58285885
H       -2.66687293      -0.14377391       0.31378940
H       -1.56182870      -1.33515687       0.98444770
H       -0.50666866      -1.29777379      -1.04817107
H        2.77362123      -0.61134236       0.06055816
H        1.85611431       0.47955638       1.14967197
H        2.13434724       0.95658475      -0.51238528
14
Frame=2 idx=011477 GeodesicLength=0.11138031644075022 rxn_smarts="[C:1]([C@@:2]([C:3]#[N:4])([C:5](=[O:6])[C:7]([H:12])([H:13])[H:14])[H:11])([H:8])([H:9])[H:10]>>[C:1](/[C:2]([C:3]#[N:4])=[C:5](\[O:6][H:11])[C:7]([H:12])([H:13])[H:14])([H:8])([H:9])[H:10]"
C       -1.66874644      -0.29964101       0.68323301
C       -0.64295867       0.07768014      -0.39236425
C       -0.67711599       1.45147517      -0.79322703
N       -0.69323367       2.55276747      -1.12947509
C        0.66913491      -0.52299750      -0.24612369
O        0.58869209      -1.72287856      -0.65057459
C        1.95744122       0.09950013       0.11639288
H       -1.57181994       0.32263396       1.57652591
H       -2.67374448      -0.16881401       0.28278506
H       -1.57322249      -1.34352276       0.98383250
H       -0.51416980      -1.29147838      -1.04809652
H        2.77205460      -0.62001973       0.09075504
H        1.86966720       0.54911320       1.10773044
H        2.15802146       0.91618188      -0.58139367
14
Frame=3 idx=011477 GeodesicLength=0.16713899369427213 rxn_smarts="[C:1]([C@@:2]([C:3]#[N:4])([C:5](=[O:6])[C:7]([H:12])([H:13])[H:14])[H:11])([H:8])([H:9])[H:10]>>[C:1](/[C:2]([C:3]#[N:4])=[C:5](\[O:6][H:11])[C:7]([H:12])([H:13])[H:14])([H:8])([H:9])[H:10]"
C       -1.68239417      -0.30963327       0.67551696
C       -0.63879017       0.07955105      -0.37666644
C       -0.66529377       1.45861048      -0.76184727
N       -0.67297849       2.56622289      -1.07631172
C        0.66955409      -0.52589626      -0.22021509
O        0.58837926      -1.72400276      -0.63156258
C        1.96541697       0.10522395       0.10036392
H       -1.61182975       0.31511089       1.56901528
H       -2.67947339      -0.19302843       0.25104164
H       -1.58505463      -1.35121284       0.98327598
H       -0.52087903      -1.28499768      -1.04765655
H        2.77112492      -0.62462665       0.11915486
H        1.88401588       0.61494475       1.06250433
H        2.17820229       0.87373389      -0.64661332
14
Frame=4 idx=011477 GeodesicLength=0.22272768017062655 rxn_smarts="[C:1]([C@@:2]([C:3]#[N:4])([C:5](=[O:6])[C:7]([H:12])([H:13])[H:14])[H:11])([H:8])([H:9])[H:10]>>[C:1](/[C:2]([C:3]#[N:4])=[C:5](\[O:6][H:11])[C:7]([H:12])([H:13])[H:14])([H:8])([H:9])[H:10]"
C       -1.69556407      -0.31898358       0.66758251
C       -0.63437363       0.08144734      -0.36081100
C       -0.65343730       1.46556967      -0.73062287
N       -0.65368658       2.57891681      -1.02363263
C        0.67033082      -0.52844439      -0.19388658
O        0.58842385      -1.72515953      -0.61145138
C        1.97289867       0.11059444       0.08429779
H       -1.65128070       0.30823339       1.56057539
H       -2.68383144      -0.21623253       0.21908877
H       -1.59700802      -1.35825806       0.98275799
H       -0.52692959      -1.27831384      -1.04710909
H        2.77078896      -0.62575088       0.14569210
H        1.89845963       0.67641970       1.01498979
H        2.19520940       0.82996146      -0.70747077
14
Frame=5 idx=011477 GeodesicLength=0.27823700870579693 rxn_smarts="[C:1]([C@@:2]([C:3]#[N:4])([C:5](=[O:6])[C:7]([H:12])([H:13])[H:14])[H:11])([H:8])([H:9])[H:10]>>[C:1](/[C:2]([C:3]#[N:4])=[C:5](\[O:6][H:11])[C:7]([H:12])([H:13])[H:14])([H:8])([H:9])[H:10]"
C       -1.70821228      -0.32773153       0.65937453
C       -0.62975629       0.08330781      -0.34483107
C       -0.64164264       1.47220437      -0.69960338
N       -0.63506759       2.59083835      -0.97103886
C        0.67144767      -0.53063266      -0.16721813
O        0.58870675      -1.72628323      -0.59015227
C        1.97982616       0.11563898       0.06815501
H       -1.69013575       0.30203985       1.55102661
H       -2.68680239      -0.23862737       0.18687378
H       -1.60895552      -1.36458697       0.98230471
H       -0.53243120      -1.27143697      -1.04638522
H        2.77103556      -0.62367369       0.17026197
H        1.91273060       0.73373818       0.96543745
H        2.20925691       0.78520489      -0.76420513
14
Frame=6 idx=011477 GeodesicLength=0.33383776463047643 rxn_smarts="[C:1]([C@@:2]([C:3]#[N:4])([C:5](=[O:6])[C:7]([H:12])([H:13])[H:14])[H:11])([H:8])([H:9])[H:10]>>[C:1](/[C:2]([C:3]#[N:4])=[C:5](\[O:6][H:11])[C:7]([H:12])([H:13])[H:14])([H:8])([H:9])[H:10]"
C       -1.72047021      -0.33593776       0.65077217
C       -0.62495250       0.08503156      -0.32876990
C       -0.62996653       1.47831056      -0.66895653
N       -0.61667346       2.60209868      -0.91709916
C        0.67290390      -0.53243766      -0.14016171
O        0.58927126      -1.72734115      -0.56738202
C        1.98619882       0.12044399       0.05170969
H       -1.72868126       0.29657490       1.54009954
H       -2.68848246      -0.26043908       0.15429955
H       -1.62100958      -1.37016202       0.98188031
H       -0.53723246      -1.26441797      -1.04535716
H        2.77180141      -0.61854177       0.19320065
H        1.92650980       0.78764416       0.91336331
H        2.22078326       0.73917355      -0.81759876
14
Frame=7 idx=011477 GeodesicLength=0.38937523220199577 rxn_smarts="[C:1]([C@@:2]([C:3]#[N:4])([C:5](=[O:6])[C:7]([H:12])([H:13])[H:14])[H:11])([H:8])([H:9])[H:10]>>[C:1](/[C:2]([C:3]#[N:4])=[C:5](\[O:6][H:11])[C:7]([H:12])([H:13])[H:14])([H:8])([H:9])[H:10]"
C       -1.73202218      -0.34356369       0.64192220
C       -0.62000600       0.08675479      -0.31270566
C       -0.61844316       1.48415383      -0.63851120
N       -0.59927857       2.61254467      -0.86350251
C        0.67468223      -0.53379439      -0.11305145
O        0.58996817      -1.72827153      -0.54363817
C        1.99194689       0.12485832       0.03529581
H       -1.76625543       0.29172673       1.52806964
H       -2.68868700      -0.28148351       0.12171145
H       -1.63280652      -1.37500950       0.98147665
H       -0.54163669      -1.25715924      -1.04426157
H        2.77306355      -0.61092199       0.21425354
H        1.93962196       0.83747641       0.85999688
H        2.22985278       0.69268910      -0.86705560
14
Frame=8 idx=011477 GeodesicLength=0.44495847565318114 rxn_smarts="[C:1]([C@@:2]([C:3]#[N:4])([C:5](=[O:6])[C:7]([H:12])([H:13])[H:14])[H:11])([H:8])([H:9])[H:10]>>[C:1](/[C:2]([C:3]#[N:4])=[C:5](\[O:6][H:11])[C:7]([H:12])([H:13])[H:14])([H:8])([H:9])[H:10]"
C       -1.74303042      -0.35067619       0.63282900
C       -0.61492915       0.08848583      -0.29669074
C       -0.60711012       1.48988435      -0.60837522
N       -0.58274592       2.62250752      -0.80963804
C        0.67680272      -0.53467131      -0.08585467
O        0.59090441      -1.72921878      -0.51879819
C        1.99714316       0.12889364       0.01878271
H       -1.80316197       0.28754836       1.51496374
H       -2.68755632      -0.30192524       0.08909507
H       -1.64450547      -1.37927286       0.98115055
H       -0.54546886      -1.24983039      -1.04314735
H        2.77488290      -0.60113871       0.23359926
H        1.95191905       0.88369790       0.80525830
H        2.23685598       0.64571587      -0.91317442
14
Frame=9 idx=011477 GeodesicLength=0.500756060455654 rxn_smarts="[C:1]([C@@:2]([C:3]#[N:4])([C:5](=[O:6])[C:7]([H:12])([H:13])[H:14])[H:11])([H:8])([H:9])[H:10]>>[C:1](/[C:2]([C:3]#[N:4])=[C:5](\[O:6][H:11])[C:7]([H:12])([H:13])[H:14])([H:8])([H:9])[H:10]"
C       -1.75364721      -0.35733623       0.62335282
C       -0.60967503       0.09014165      -0.28072697
C       -0.59588443       1.49533631      -0.57864835
N       -0.56655000       2.63203270      -0.75390741
C        0.67925402      -0.53505966      -0.05837587
O        0.59210480      -1.73016164      -0.49252456
C        2.00174859       0.13263610       0.00193994
H       -1.83978915       0.28405137       1.50056828
H       -2.68512251      -0.32199777       0.05624998
H       -1.65632652      -1.38291655       0.98082546
H       -0.54847841      -1.24247663      -1.04188171
H        2.77707118      -0.58911227       0.25156018
H        1.96311397       0.92721402       0.74830041
H        2.24218070       0.59764859      -0.95673221
14
Frame=10 idx=011477 GeodesicLength=0.5565512996051223 rxn_smarts="[C:1]([C@@:2]([C:3]#[N:4])([C:5](=[O:6])[C:7]([H:12])([H:13])[H:14])[H:11])([H:8])([H:9])[H:10]>>[C:1](/[C:2]([C:3]#[N:4])=[C:5](\[O:6][H:11])[C:7]([H:12])([H:13])[H:14])([H:8])([H:9])[H:10]"
C       -1.76342552      -0.36347258       0.61362789
C       -0.60435528       0.09179350      -0.26488964
C       -0.58488013       1.50050228      -0.54904076
N       -0.55150092       2.64062310      -0.69847218
C        0.68200554      -0.53494159      -0.03109887
O        0.59332863      -1.73078950      -0.46550160
C        2.00569129       0.13596336      -0.01483297
H       -1.87513314       0.28106633       1.48499651
H       -2.68123395      -0.34136700       0.02363442
H       -1.66766043      -1.38582366       0.98044747
H       -0.55131559      -1.23479526      -1.04061659
H        2.77953623      -0.57520576       0.26787634
H        1.97325631       0.96700050       0.69058846
H        2.24568694       0.54944627      -0.99671851
14
Frame=11 idx=011477 GeodesicLength=0.6124143401792072 rxn_smarts="[C:1]([C@@:2]([C:3]#[N:4])([C:5](=[O:6])[C:7]([H:12])([H:13])[H:14])[H:11])([H:8])([H:9])[H:10]>>[C:1](/[C:2]([C:3]#[N:4])=[C:5](\[O:6][H:11])[C:7]([H:12])([H:13])[H:14])([H:8])([H:9])[H:10]"
C       -1.77271195      -0.36918275       0.60364348
C       -0.59891671       0.09351005      -0.24920040
C       -0.57400846       1.50575051      -0.51967766
N       -0.53734160       2.64887018      -0.64214048
C        0.68505677      -0.53424448      -0.00374876
O        0.59478838      -1.73141624      -0.43740700
C        2.00908540       0.13889203      -0.03175723
H       -1.90985016       0.27864664       1.46843846
H       -2.67606766      -0.36030631      -0.00888924
H       -1.67901476      -1.38826299       0.98001111
H       -0.55343883      -1.22712649      -1.03944393
H        2.78236775      -0.55970629       0.28284471
H        1.98213715       1.00398295       0.63149620
H        2.24791467       0.50059319      -1.03416924
14
Frame=12 idx=011477 GeodesicLength=0.6682074714846017 rxn_smarts="[C:1]([C@@:2]([C:3]#[N:4])([C:5](=[O:6])[C:7]([H:12])([H:13])[H:14])[H:11])([H:8])([H:9])[H:10]>>[C:1](/[C:2]([C:3]#[N:4])=[C:5](\[O:6][H:11])[C:7]([H:12])([H:13])[H:14])([H:8])([H:9])[H:10]"
C       -1.78120675      -0.37444205       0.59350160
C       -0.59341874       0.09525298      -0.23374657
C       -0.56328840       1.51086278      -0.49041785
N       -0.52432197       2.65633976      -0.58611179
C        0.68838301      -0.53301950       0.02330278
O        0.59631294      -1.73176032      -0.40881062
C        2.01182970       0.14140285      -0.04857670
H       -1.94323023       0.27664359       1.45097428
H       -2.66959085      -0.37856397      -0.04094183
H       -1.68998168      -1.39014398       0.97945530
H       -0.55536376      -1.21921130      -1.03843870
H        2.78531547      -0.54267252       0.29645257
H        1.98967874       1.03766071       0.57176244
H        2.24888252       0.45165098      -1.06840490
14
Frame=13 idx=011477 GeodesicLength=0.7236881813212395 rxn_smarts="[C:1]([C@@:2]([C:3]#[N:4])([C:5](=[O:6])[C:7]([H:12])([H:13])[H:14])[H:11])([H:8])([H:9])[H:10]>>[C:1](/[C:2]([C:3]#[N:4])=[C:5](\[O:6][H:11])[C:7]([H:12])([H:13])[H:14])([H:8])([H:9])[H:10]"
C       -1.78892284      -0.37925145       0.58332680
C       -0.58788187       0.09703264      -0.21861588
C       -0.55268815       1.51594003      -0.46126820
N       -0.51268356       2.66315764      -0.53096014
C        0.69195578      -0.53133408       0.04988311
O        0.59797054      -1.73188058      -0.38006378
C        2.01398177       0.14346942      -0.06515891
H       -1.97510508       0.27501453       1.43290008
H       -2.66196012      -0.39601081      -0.07219091
H       -1.70059706      -1.39156445       0.97874522
H       -0.55709757      -1.21110793      -1.03774700
H        2.78839632      -0.52446853       0.30876352
H        1.99565389       1.06806939       0.51187392
H        2.24897797       0.40293417      -1.09948784
14
Frame=14 idx=011477 GeodesicLength=0.778735223514024 rxn_smarts="[C:1]([C@@:2]([C:3]#[N:4])([C:5](=[O:6])[C:7]([H:12])([H:13])[H:14])[H:11])([H:8])([H:9])[H:10]>>[C:1](/[C:2]([C:3]#[N:4])=[C:5](\[O:6][H:11])[C:7]([H:12])([H:13])[H:14])([H:8])([H:9])[H:10]"
C       -1.79579844      -0.38361953       0.57319174
C       -0.58233329       0.09882447      -0.20390848
C       -0.54219753       1.52088086      -0.43229249
N       -0.50244109       2.66923470      -0.47699314
C        0.69572985      -0.52923160       0.07582435
O        0.59973327      -1.73169409      -0.35149813
C        2.01553407       0.14510644      -0.08139338
H       -2.00522282       0.27370631       1.41436946
H       -2.65329083      -0.41259933      -0.10239504
H       -1.71074982      -1.39251490       0.97785026
H       -0.55881599      -1.20274947      -1.03745612
H        2.79145115      -0.50519268       0.31992409
H        1.99996317       1.09524435       0.45213034
H        2.24843830       0.35460446      -1.12735346
14
Frame=15 idx=011477 GeodesicLength=0.8335004202971813 rxn_smarts="[C:1]([C@@:2]([C:3]#[N:4])([C:5](=[O:6])[C:7]([H:12])([H:13])[H:14])[H:11])([H:8])([H:9])[H:10]>>[C:1](/[C:2]([C:3]#[N:4])=[C:5](\[O:6][H:11])[C:7]([H:12])([H:13])[H:14])([H:8])([H:9])[H:10]"
C       -1.80192557      -0.38761647       0.56308519
C       -0.57676954       0.10064153      -0.18961003
C       -0.53180980       1.52580851      -0.40345375
N       -0.49341916       2.67480260      -0.42391865
C        0.69971003      -0.52674111       0.10124423
O        0.60160677      -1.73133506      -0.32298134
C        2.01652938       0.14633556      -0.09736135
H       -2.03378142       0.27269285       1.39545450
H       -2.64368139      -0.42841147      -0.13171564
H       -1.72052384      -1.39314375       0.97680017
H       -0.56049471      -1.19421180      -1.03762759
H        2.79447501      -0.48493159       0.33005244
H        2.00269003       1.11954901       0.39241633
H        2.24739420       0.30656121      -1.15238450
14
Frame=16 idx=011477 GeodesicLength=0.8880036531725549 rxn_smarts="[C:1]([C@@:2]([C:3]#[N:4])([C:5](=[O:6])[C:7]([H:12])([H:13])[H:14])[H:11])([H:8])([H:9])[H:10]>>[C:1](/[C:2]([C:3]#[N:4])=[C:5](\[O:6][H:11])[C:7]([H:12])([H:13])[H:14])([H:8])([H:9])[H:10]"
C       -1.80733951      -0.39125700       0.55290221
C       -0.57115820       0.10247857      -0.17564592
C       -0.52147082       1.53064761      -0.37458771
N       -0.48546037       2.67978545      -0.37127222
C        0.70387605      -0.52381872       0.12630023
O        0.60354679      -1.73072949      -0.29425995
C        2.01695816       0.14717924      -0.11315523
H       -2.06092699       0.27194922       1.37601734
H       -2.63310965      -0.44355307      -0.16034510
H       -1.72996811      -1.39338704       0.97548590
H       -0.56204879      -1.18545396      -1.03816853
H        2.79743182      -0.46361452       0.33911555
H        2.00387142       1.14118575       0.33243589
H        2.24579821       0.25858796      -1.17482247
