15
Frame=0 idx=009103 GeodesicLength=0.0 rxn_smarts="[C:1]1([H:8])([H:9])[C@:2]2([H:10])[O:3][C:4]([H:11])([H:12])[C:5]([H:13])([H:14])[O:6][C@:7]12[H:15]>>[C:1]1([H:9])=[C:2]([H:10])[O:3][C:4]([H:11])([H:12])[C:5]([H:13])([H:14])[O:6][C:7]1([H:8])[H:15]"
C       -1.67027983       0.70384060       0.74317326
C       -1.17520961       0.11678217      -0.46532653
O       -0.20310032       0.75341604      -1.24457385
C        1.00806202       1.04042525      -0.57459431
C        1.59441863      -0.25664851      -0.08303299
O        0.75466251      -0.83719336       0.90191690
C       -0.60170979      -0.91756937       0.61364436
H       -1.10113419      -0.73026688       1.59477087
H       -2.64234565       0.23762362       0.96141883
H       -1.83336451      -0.38878108      -1.17159531
H        0.84055525       1.73002451       0.25882325
H        1.66010346       1.51203134      -1.30983523
H        1.73076069      -0.94421204      -0.92728591
H        2.55534069      -0.10559287       0.40892386
H       -0.91675939      -1.91387946       0.29357277
15
Frame=1 idx=009103 GeodesicLength=0.1100177747682024 rxn_smarts="[C:1]1([H:8])([H:9])[C@:2]2([H:10])[O:3][C:4]([H:11])([H:12])[C:5]([H:13])([H:14])[O:6][C@:7]12[H:15]>>[C:1]1([H:9])=[C:2]([H:10])[O:3][C:4]([H:11])([H:12])[C:5]([H:13])([H:14])[O:6][C:7]1([H:8])[H:15]"
C       -1.66706025       0.66933517       0.74480908
C       -1.17541584       0.12151648      -0.48062163
O       -0.20308431       0.77011622      -1.24589606
C        1.01045359       1.04299508      -0.57420946
C        1.58996792      -0.25864606      -0.08526483
O        0.75605412      -0.83086811       0.90818679
C       -0.60142852      -0.91257875       0.62249015
H       -1.09809863      -0.71357658       1.62199534
H       -2.64818435       0.21804807       0.94821135
H       -1.83453569      -0.37459478      -1.19195481
H        0.84687577       1.73028381       0.26206487
H        1.66629887       1.51271692      -1.30730416
H        1.71415369      -0.95056958      -0.92793012
H        2.55680959      -0.11201127       0.39655319
H       -0.91280596      -1.91216661       0.30887031
15
Frame=2 idx=009103 GeodesicLength=0.22002302665348067 rxn_smarts="[C:1]1([H:8])([H:9])[C@:2]2([H:10])[O:3][C:4]([H:11])([H:12])[C:5]([H:13])([H:14])[O:6][C@:7]12[H:15]>>[C:1]1([H:9])=[C:2]([H:10])[O:3][C:4]([H:11])([H:12])[C:5]([H:13])([H:14])[O:6][C:7]1([H:8])[H:15]"
C       -1.66409042       0.63483492       0.74514277
C       -1.17560779       0.12622404      -0.49574910
O       -0.20316943       0.78672776      -1.24692033
C        1.01270391       1.04545076      -0.57374049
C        1.58543252      -0.26065091      -0.08734254
O        0.75749468      -0.82468421       0.91448315
C       -0.60100314      -0.90824363       0.63122586
H       -1.09483541      -0.69575308       1.64917979
H       -2.65320700       0.19807604       0.93558551
H       -1.83603819      -0.35951574      -1.21232421
H        0.85312605       1.73046722       0.26534104
H        1.67226231       1.51321515      -1.30478603
H        1.69758929      -0.95675559      -0.92835005
H        2.55802458      -0.11841916       0.38434393
H       -0.90868196      -1.91097359       0.32391067
15
Frame=3 idx=009103 GeodesicLength=0.33002012983278356 rxn_smarts="[C:1]1([H:8])([H:9])[C@:2]2([H:10])[O:3][C:4]([H:11])([H:12])[C:5]([H:13])([H:14])[O:6][C@:7]12[H:15]>>[C:1]1([H:9])=[C:2]([H:10])[O:3][C:4]([H:11])([H:12])[C:5]([H:13])([H:14])[O:6][C:7]1([H:8])[H:15]"
C       -1.66130522       0.60028144       0.74428014
C       -1.17579882       0.13090512      -0.51070899
O       -0.20336113       0.80324571      -1.24763405
C        1.01481724       1.04778654      -0.57318698
C        1.58082548      -0.26267010      -0.08926355
O        0.75899420      -0.81864164       0.92081935
C       -0.60041877      -0.90460490       0.63985517
H       -1.09138436      -0.67660418       1.67623208
H       -2.65749470       0.17763617       0.92346165
H       -1.83793472      -0.34347181      -1.23266331
H        0.85932389       1.73057488       0.26864973
H        1.67799225       1.51352100      -1.30229010
H        1.68108029      -0.96278235      -0.92854674
H        2.55900543      -0.12481862       0.37229654
H       -0.90434107      -1.91035726       0.33869906
15
Frame=4 idx=009103 GeodesicLength=0.4400071491101523 rxn_smarts="[C:1]1([H:8])([H:9])[C@:2]2([H:10])[O:3][C:4]([H:11])([H:12])[C:5]([H:13])([H:14])[O:6][C@:7]12[H:15]>>[C:1]1([H:9])=[C:2]([H:10])[O:3][C:4]([H:11])([H:12])[C:5]([H:13])([H:14])[O:6][C:7]1([H:8])[H:15]"
C       -1.65863940       0.56561147       0.74231340
C       -1.17599939       0.13555814      -0.52549912
O       -0.20366447       0.81965801      -1.24802216
C        1.01679236       1.04999235      -0.57254557
C        1.57615412      -0.26471059      -0.09102368
O        0.76055776      -0.81273989       0.92720523
C       -0.59966107      -0.90170350       0.64837964
H       -1.08778617      -0.65593269       1.70304138
H       -2.66110369       0.15666827       0.91177463
H       -1.84028203      -0.32638490      -1.25292310
H        0.86547894       1.73060152       0.27199162
H        1.68348076       1.51362406      -1.29982021
H        1.66463861      -0.96866164      -0.92851842
H        2.55976070      -0.13120792       0.36041436
H       -0.89972704      -1.91037271       0.35323200
15
Frame=5 idx=009103 GeodesicLength=0.5499847787768023 rxn_smarts="[C:1]1([H:8])([H:9])[C@:2]2([H:10])[O:3][C:4]([H:11])([H:12])[C:5]([H:13])([H:14])[O:6][C@:7]12[H:15]>>[C:1]1([H:9])=[C:2]([H:10])[O:3][C:4]([H:11])([H:12])[C:5]([H:13])([H:14])[O:6][C:7]1([H:8])[H:15]"
C       -1.65603144       0.53075696       0.73932112
C       -1.17622193       0.14018038      -0.54011590
O       -0.20408534       0.83595032      -1.24807046
C        1.01862700       1.05205831      -0.57181166
C        1.57142682      -0.26677993      -0.09261704
O        0.76219073      -0.80698158       0.93365128
C       -0.59871658      -0.89958320       0.65680249
H       -1.08408544      -0.63353805       1.72948106
H       -2.66407607       0.13511974       0.90046999
H       -1.84314147      -0.30817300      -1.27304525
H        0.87159767       1.73054140       0.27536902
H        1.68871901       1.51351651      -1.29737845
H        1.64827833      -0.97440552      -0.92826232
H        2.56030036      -0.13758531       0.34870420
H       -0.89478165      -1.91107703       0.36750193
15
Frame=6 idx=009103 GeodesicLength=0.6599526522211326 rxn_smarts="[C:1]1([H:8])([H:9])[C@:2]2([H:10])[O:3][C:4]([H:11])([H:12])[C:5]([H:13])([H:14])[O:6][C@:7]12[H:15]>>[C:1]1([H:9])=[C:2]([H:10])[O:3][C:4]([H:11])([H:12])[C:5]([H:13])([H:14])[O:6][C:7]1([H:8])[H:15]"
C       -1.65342201       0.49564546       0.73537031
C       -1.17647980       0.14476739      -0.55455403
O       -0.20463007       0.85210564      -1.24776434
C        1.02031747       1.05397387      -0.57097883
C        1.56665161      -0.26888627      -0.09403643
O        0.76389787      -0.80137132       0.94016810
C       -0.59757167      -0.89828986       0.66512911
H       -1.08032991      -0.60921494       1.75540318
H       -2.66644165       0.11294473       0.88950261
H       -1.84657742      -0.28874986      -1.29296075
H        0.87768348       1.73038715       0.27878647
H        1.69369694       1.51319157      -1.29496410
H        1.63201395      -0.98002613      -0.92777469
H        2.56063357      -0.14394896       0.33717484
H       -0.88944237      -1.91252846       0.38149855
15
Frame=7 idx=009103 GeodesicLength=0.76991123352145 rxn_smarts="[C:1]1([H:8])([H:9])[C@:2]2([H:10])[O:3][C:4]([H:11])([H:12])[C:5]([H:13])([H:14])[O:6][C@:7]12[H:15]>>[C:1]1([H:9])=[C:2]([H:10])[O:3][C:4]([H:11])([H:12])[C:5]([H:13])([H:14])[O:6][C:7]1([H:8])[H:15]"
C       -1.65075361       0.46019970       0.73051818
C       -1.17678731       0.14931323      -0.56880627
O       -0.20530586       0.86810461      -1.24708827
C        1.02185909       1.05572766      -0.57003868
C        1.56183662      -0.27103834      -0.09527353
O        0.76568395      -0.79591529       0.94676657
C       -0.59621244      -0.89787163       0.67336775
H       -1.07657127      -0.58275075       1.78063371
H       -2.66822007       0.09010244       0.87883577
H       -1.85065722      -0.26802405      -1.31258833
H        0.88373764       1.73012937       0.28225097
H        1.69840346       1.51264315      -1.29257356
H        1.61586020      -0.98553574      -0.92705114
H        2.56076963      -0.15029681       0.32583673
H       -0.88364283      -1.91478753       0.39521009
15
Frame=8 idx=009103 GeodesicLength=0.8798783122026727 rxn_smarts="[C:1]1([H:8])([H:9])[C@:2]2([H:10])[O:3][C:4]([H:11])([H:12])[C:5]([H:13])([H:14])[O:6][C@:7]12[H:15]>>[C:1]1([H:9])=[C:2]([H:10])[O:3][C:4]([H:11])([H:12])[C:5]([H:13])([H:14])[O:6][C:7]1([H:8])[H:15]"
C       -1.64796486       0.42433613       0.72481113
C       -1.17715835       0.15381142      -0.58285958
O       -0.20612187       0.88392556      -1.24602580
C        1.02324336       1.05730785      -0.56898071
C        1.55699125      -0.27324684      -0.09631829
O        0.76755595      -0.79062206       0.95346025
C       -0.59462300      -0.89838046       0.68152732
H       -1.07287262      -0.55391888       1.80496819
H       -2.66941537       0.06655448       0.86844082
H       -1.85544552      -0.24590007      -1.33182529
H        0.88975468       1.72975880       0.28577152
H        1.70282135       1.51186613      -1.29020128
H        1.59983455      -0.99094932      -0.92608729
H        2.56071948      -0.15662870       0.31470260
H       -0.87731903      -1.91791403       0.40861643
15
Frame=9 idx=009103 GeodesicLength=0.9898411147000442 rxn_smarts="[C:1]1([H:8])([H:9])[C@:2]2([H:10])[O:3][C:4]([H:11])([H:12])[C:5]([H:13])([H:14])[O:6][C@:7]12[H:15]>>[C:1]1([H:9])=[C:2]([H:10])[O:3][C:4]([H:11])([H:12])[C:5]([H:13])([H:14])[O:6][C:7]1([H:8])[H:15]"
C       -1.64499603       0.38797141       0.71829442
C       -1.17761121       0.15825360      -0.59670154
O       -0.20708540       0.89953850      -1.24456336
C        1.02446512       1.05869998      -0.56779670
C        1.55212429      -0.27551942      -0.09715531
O        0.76951630      -0.78549882       0.96026340
C       -0.59278610      -0.89987124       0.68962059
H       -1.06929972      -0.52251528       1.82815997
H       -2.67002991       0.04227899       0.85830220
H       -1.86103010      -0.22226507      -1.35055395
H        0.89573398       1.72926640       0.28935168
H        1.70693997       1.51084974      -1.28784535
H        1.58395721      -0.99627985      -0.92486893
H        2.56048995      -0.16293433       0.30379555
H       -0.87038835      -1.92197462       0.42169733
15
Frame=10 idx=009103 GeodesicLength=1.0998093309734625 rxn_smarts="[C:1]1([H:8])([H:9])[C@:2]2([H:10])[O:3][C:4]([H:11])([H:12])[C:5]([H:13])([H:14])[O:6][C@:7]12[H:15]>>[C:1]1([H:9])=[C:2]([H:10])[O:3][C:4]([H:11])([H:12])[C:5]([H:13])([H:14])[O:6][C:7]1([H:8])[H:15]"
C       -1.64178228       0.35101706       0.71100275
C       -1.17816476       0.16263175      -0.61031267
O       -0.20820840       0.91491237      -1.24268692
C        1.02551470       1.05988997      -0.56647612
C        1.54724835      -0.27786682      -0.09776749
O        0.77157377      -0.78055324       0.96719585
C       -0.59068062      -0.90240213       0.69766271
H       -1.06593758      -0.48832501       1.84992277
H       -2.67005163       0.01725784       0.84840956
H       -1.86749406      -0.19700206      -1.36862760
H        0.90166794       1.72864532       0.29299793
H        1.71074048       1.50958481      -1.28550213
H        1.56825154      -1.00154616      -0.92338321
H        2.56009505      -0.16920779       0.29313949
H       -0.86277250      -1.92703590       0.43442510
15
Frame=11 idx=009103 GeodesicLength=1.2097823797559482 rxn_smarts="[C:1]1([H:8])([H:9])[C@:2]2([H:10])[O:3][C:4]([H:11])([H:12])[C:5]([H:13])([H:14])[O:6][C@:7]12[H:15]>>[C:1]1([H:9])=[C:2]([H:10])[O:3][C:4]([H:11])([H:12])[C:5]([H:13])([H:14])[O:6][C:7]1([H:8])[H:15]"
C       -1.63826075       0.31338117       0.70296444
C       -1.17885199       0.16693675      -0.62367454
O       -0.20951070       0.93001906      -1.24038771
C        1.02638919       1.06087193      -0.56500963
C        1.54238293      -0.28030173      -0.09813038
O        0.77374474      -0.77579897       0.97428407
C       -0.58828553      -0.90604325       0.70567390
H       -1.06287195      -0.45113861       1.86991351
H       -2.66947199      -0.00851724       0.83875910
H       -1.87495199      -0.16998435      -1.38587938
H        0.90756584       1.72790409       0.29671331
H        1.71421225       1.50807449      -1.28316964
H        1.55273906      -1.00677726      -0.92160656
H        2.55956446      -0.17543985       0.28276980
H       -0.85439357      -1.93318622       0.44677972
15
Frame=12 idx=009103 GeodesicLength=1.3196721701467178 rxn_smarts="[C:1]1([H:8])([H:9])[C@:2]2([H:10])[O:3][C:4]([H:11])([H:12])[C:5]([H:13])([H:14])[O:6][C@:7]12[H:15]>>[C:1]1([H:9])=[C:2]([H:10])[O:3][C:4]([H:11])([H:12])[C:5]([H:13])([H:14])[O:6][C:7]1([H:8])[H:15]"
C       -1.63433808       0.27497502       0.69421452
C       -1.17965098       0.17113983      -0.63673030
O       -0.21094966       0.94476378      -1.23762267
C        1.02707389       1.06158250      -0.56339348
C        1.53751722      -0.28280119      -0.09823082
O        0.77598595      -0.77118201       0.98153167
C       -0.58556019      -0.91082426       0.71367428
H       -1.06028105      -0.41088544       1.88772330
H       -2.66824171      -0.03500841       0.82936619
H       -1.88345792      -0.14103210      -1.40205335
H        0.91337132       1.72696765       0.30046280
H        1.71734230       1.50623297      -1.28084827
H        1.53745981      -1.01192484      -0.91950239
H        2.55884755      -0.18158458       0.27267866
H       -0.84511844      -1.94041891       0.45872986
15
Frame=13 idx=009103 GeodesicLength=1.429683728608967 rxn_smarts="[C:1]1([H:8])([H:9])[C@:2]2([H:10])[O:3][C:4]([H:11])([H:12])[C:5]([H:13])([H:14])[O:6][C@:7]12[H:15]>>[C:1]1([H:9])=[C:2]([H:10])[O:3][C:4]([H:11])([H:12])[C:5]([H:13])([H:14])[O:6][C:7]1([H:8])[H:15]"
C       -1.62994824       0.23567568       0.68477389
C       -1.18061180       0.17525571      -0.64946572
O       -0.21259090       0.95916404      -1.23440391
C        1.02755165       1.06204669      -0.56160019
C        1.53267454      -0.28541544      -0.09804471
O        0.77835094      -0.76676303       0.98898583
C       -0.58248568      -0.91682524       0.72168663
H       -1.05826225      -0.36718675       1.90286753
H       -2.66630874      -0.06227377       0.82025101
H       -1.89308670      -0.11007359      -1.41693784
H        0.91911260       1.72587953       0.30431583
H        1.72008934       1.50411762      -1.27852078
H        1.52240814      -1.01707877      -0.91708435
H        2.55800048      -0.18768393       0.26292546
H       -0.83489336      -1.94883874       0.47025132
15
Frame=14 idx=009103 GeodesicLength=1.5397127699560986 rxn_smarts="[C:1]1([H:8])([H:9])[C@:2]2([H:10])[O:3][C:4]([H:11])([H:12])[C:5]([H:13])([H:14])[O:6][C@:7]12[H:15]>>[C:1]1([H:9])=[C:2]([H:10])[O:3][C:4]([H:11])([H:12])[C:5]([H:13])([H:14])[O:6][C:7]1([H:8])[H:15]"
C       -1.62500524       0.19541588       0.67466087
C       -1.18177251       0.17927025      -0.66183382
O       -0.21443049       0.97314854      -1.23072814
C        1.02782847       1.06224126      -0.55963977
C        1.52788447      -0.28813561      -0.09753127
O        0.78084148      -0.76250622       0.99669180
C       -0.57901731      -0.92411609       0.72974479
H       -1.05701759      -0.32005130       1.91482709
H       -2.66365010      -0.09022866       0.81143054
H       -1.90399330      -0.07691232      -1.43021995
H        0.92478522       1.72464843       0.30822041
H        1.72246156       1.50169271      -1.27621161
H        1.50763246      -1.02224737      -0.91428802
H        2.55705601      -0.19369760       0.25354815
H       -0.82360313      -1.95852192       0.48132894
15
Frame=15 idx=009103 GeodesicLength=1.6497859675565127 rxn_smarts="[C:1]1([H:8])([H:9])[C@:2]2([H:10])[O:3][C:4]([H:11])([H:12])[C:5]([H:13])([H:14])[O:6][C@:7]12[H:15]>>[C:1]1([H:9])=[C:2]([H:10])[O:3][C:4]([H:11])([H:12])[C:5]([H:13])([H:14])[O:6][C:7]1([H:8])[H:15]"
C       -1.61939091       0.15411645       0.66390277
C       -1.18315334       0.18318776      -0.67377298
O       -0.21646972       0.98664463      -1.22659796
C        1.02788980       1.06213895      -0.55751431
C        1.52315532      -0.29096173      -0.09665432
O        0.78345210      -0.75838051       1.00468639
C       -0.57510862      -0.93274976       0.73786845
H       -1.05679668      -0.26945616       1.92298247
H       -2.66017293      -0.11878428       0.80295071
H       -1.91625035      -0.04139324      -1.44152269
H        0.93037040       1.72327310       0.31214874
H        1.72443301       1.49891878      -1.27393425
H        1.49316409      -1.02744808      -0.91106630
H        2.55601131      -0.19959727       0.24459284
H       -0.81113349      -1.96950864       0.49193044
15
Frame=16 idx=009103 GeodesicLength=1.7599179631801123 rxn_smarts="[C:1]1([H:8])([H:9])[C@:2]2([H:10])[O:3][C:4]([H:11])([H:12])[C:5]([H:13])([H:14])[O:6][C@:7]12[H:15]>>[C:1]1([H:9])=[C:2]([H:10])[O:3][C:4]([H:11])([H:12])[C:5]([H:13])([H:14])[O:6][C:7]1([H:8])[H:15]"
C       -1.61298741       0.11172278       0.65253291
C       -1.18479556       0.18702502      -0.68521740
O       -0.21870853       0.99957395      -1.22204370
C        1.02773399       1.06171935      -0.55524095
C        1.51851079      -0.29388927      -0.09537048
O        0.78618022      -0.75434815       1.01301706
C       -0.57071392      -0.94277821       0.74607796
H       -1.05790135      -0.21549678       1.92666358
H       -2.65579046      -0.14780916       0.79487403
H       -1.92995173      -0.00336702      -1.45041234
H        0.93586449       1.72177268       0.31605471
H        1.72599968       1.49575890      -1.27172271
H        1.47905222      -1.03270211      -0.90736428
H        2.55488703      -0.20534411       0.23612478
H       -0.79737947      -1.98183787       0.50202684
