17
Frame=0 idx=002643 GeodesicLength=0.0 rxn_smarts="[C:1]([C:2]([C@@:3]1([H:12])[C:4]([H:13])([H:14])[N:5]1[C:6]([H:15])([H:16])[H:17])([H:10])[H:11])([H:7])([H:8])[H:9]>>[C:1]([C:2]([C:3][C:4]([N:5]([C:6]([H:15])([H:16])[H:17])[H:12])([H:13])[H:14])([H:10])[H:11])([H:7])([H:8])[H:9]"
C        2.53164255      -0.35207708       0.34198344
C        1.31168862      -0.46144151      -0.57613403
C        0.09736410      -0.48877791       0.32704894
C       -0.47030541       0.87532576       0.49445719
N       -1.26981739       0.33262139      -0.60702006
C       -2.64335275       0.05554702      -0.15884896
H        2.50969965       0.57268671       0.92301070
H        2.56844456      -1.18736569       1.04280778
H        3.45036913      -0.35699515      -0.24557245
H        1.30388649       0.37912585      -1.28160475
H        1.38161422      -1.38589562      -1.15309923
H       -0.89143557      -0.79216590      -0.52078922
H        0.14049435       1.72069723       0.17973258
H       -1.03333049       1.08547272       1.40222857
H       -3.16460826      -0.51690546      -0.92646431
H       -3.14918961       1.01352750      -0.03051598
H       -2.67316417      -0.49337991       0.78877973
17
Frame=1 idx=002643 GeodesicLength=0.06497798441574665 rxn_smarts="[C:1]([C:2]([C@@:3]1([H:12])[C:4]([H:13])([H:14])[N:5]1[C:6]([H:15])([H:16])[H:17])([H:10])[H:11])([H:7])([H:8])[H:9]>>[C:1]([C:2]([C:3][C:4]([N:5]([C:6]([H:15])([H:16])[H:17])[H:12])([H:13])[H:14])([H:10])[H:11])([H:7])([H:8])[H:9]"
C        2.53081617      -0.36277264       0.35835724
C        1.32773442      -0.44922549      -0.58462165
C        0.09962952      -0.47408353       0.29523028
C       -0.47256825       0.88555775       0.46460370
N       -1.28994153       0.32985452      -0.61482713
C       -2.65300318       0.05062722      -0.14078692
H        2.50490409       0.55200879       0.95479357
H        2.54964319      -1.21007977       1.04543252
H        3.46076246      -0.36414069      -0.21130519
H        1.33954887       0.39949190      -1.28000748
H        1.40196962      -1.36638057      -1.17270201
H       -0.90226941      -0.80391591      -0.54052469
H        0.12508707       1.73333005       0.13038335
H       -1.01011929       1.09814006       1.38719648
H       -3.18839899      -0.52306298      -0.89770598
H       -3.16199101       1.00522929       0.00007116
H       -2.66180375      -0.50057799       0.80641277
17
Frame=2 idx=002643 GeodesicLength=0.12997113534850807 rxn_smarts="[C:1]([C:2]([C@@:3]1([H:12])[C:4]([H:13])([H:14])[N:5]1[C:6]([H:15])([H:16])[H:17])([H:10])[H:11])([H:7])([H:8])[H:9]>>[C:1]([C:2]([C:3][C:4]([N:5]([C:6]([H:15])([H:16])[H:17])[H:12])([H:13])[H:14])([H:10])[H:11])([H:7])([H:8])[H:9]"
C        2.52885212      -0.37413171       0.37519802
C        1.34428691      -0.43609394      -0.59331645
C        0.10194721      -0.45886819       0.26175274
C       -0.47502372       0.89623173       0.43329455
N       -1.31047168       0.32687291      -0.62271307
C       -2.66202633       0.04528537      -0.12170022
H        2.49815887       0.52992507       0.98758358
H        2.52895958      -1.23375601       1.04721792
H        3.47027382      -0.37207033      -0.17533302
H        1.37664350       0.42131146      -1.27715145
H        1.42338538      -1.34522428      -1.19327539
H       -0.91323203      -0.81587659      -0.56047837
H        0.10882980       1.74593767       0.07886915
H       -0.98598773       1.11196537       1.37026181
H       -3.21179721      -0.53014471      -0.86697277
H       -3.17400294       0.99641744       0.03189061
H       -2.64879555      -0.50778126       0.82487236
17
Frame=3 idx=002643 GeodesicLength=0.19461424474452643 rxn_smarts="[C:1]([C:2]([C@@:3]1([H:12])[C:4]([H:13])([H:14])[N:5]1[C:6]([H:15])([H:16])[H:17])([H:10])[H:11])([H:7])([H:8])[H:9]>>[C:1]([C:2]([C:3][C:4]([N:5]([C:6]([H:15])([H:16])[H:17])[H:12])([H:13])[H:14])([H:10])[H:11])([H:7])([H:8])[H:9]"
C        2.52560529      -0.38605208       0.39238925
C        1.36129174      -0.42203181      -0.60208652
C        0.10430827      -0.44317381       0.22655119
C       -0.47763291       0.90714620       0.40054066
N       -1.33130553       0.32359557      -0.63053693
C       -2.67029236       0.03958443      -0.10161230
H        2.48926802       0.50645735       1.02110444
H        2.50628551      -1.25809916       1.04796389
H        3.47866541      -0.38072957      -0.13770434
H        1.41505124       0.44447550      -1.27272160
H        1.44588094      -1.32229174      -1.21458350
H       -0.92436496      -0.82805259      -0.58047560
H        0.09183105       1.75815692       0.02530786
H       -0.96089830       1.12674940       1.35123687
H       -3.23464044      -0.53798728      -0.83422892
H       -3.18495866       0.98710534       0.06487894
H       -2.63409432      -0.51485266       0.84397663
17
Frame=4 idx=002643 GeodesicLength=0.25923687663804906 rxn_smarts="[C:1]([C:2]([C@@:3]1([H:12])[C:4]([H:13])([H:14])[N:5]1[C:6]([H:15])([H:16])[H:17])([H:10])[H:11])([H:7])([H:8])[H:9]>>[C:1]([C:2]([C:3][C:4]([N:5]([C:6]([H:15])([H:16])[H:17])[H:12])([H:13])[H:14])([H:10])[H:11])([H:7])([H:8])[H:9]"
C        2.52099382      -0.39860961       0.40992625
C        1.37881045      -0.40706096      -0.61097362
C        0.10676127      -0.42706564       0.18958068
C       -0.48049594       0.91840810       0.36635047
N       -1.35242237       0.32000770      -0.63834387
C       -2.67771045       0.03355083      -0.08048243
H        2.47796826       0.48160617       1.05540801
H        2.48167314      -1.28327709       1.04764488
H        3.48582523      -0.39017937      -0.09845081
H        1.45470195       0.46908212      -1.26668624
H        1.46971579      -1.29766155      -1.23674959
H       -0.93559961      -0.84064435      -0.60045547
H        0.07389406       1.77016385      -0.03039734
H       -0.93497692       1.14265161       1.33020385
H       -3.25677114      -0.54663799      -0.79950008
H       -3.19478467       0.97749169       0.09906324
H       -2.61758288      -0.52182550       0.86386207
17
Frame=5 idx=002643 GeodesicLength=0.3233793237066718 rxn_smarts="[C:1]([C:2]([C@@:3]1([H:12])[C:4]([H:13])([H:14])[N:5]1[C:6]([H:15])([H:16])[H:17])([H:10])[H:11])([H:7])([H:8])[H:9]>>[C:1]([C:2]([C:3][C:4]([N:5]([C:6]([H:15])([H:16])[H:17])[H:12])([H:13])[H:14])([H:10])[H:11])([H:7])([H:8])[H:9]"
C        2.51483020      -0.41178647       0.42770415
C        1.39677533      -0.39105406      -0.61977517
C        0.10928862      -0.41044128       0.15072028
C       -0.48355048       0.92985531       0.33059576
N       -1.37374724       0.31598564      -0.64598875
C       -2.68411173       0.02719637      -0.05829618
H        2.46405855       0.45515522       1.09023548
H        2.45498312      -1.30908273       1.04585826
H        3.49149095      -0.40038244      -0.05748804
H        1.49547821       0.49509558      -1.25849817
H        1.49485579      -1.27095722      -1.25944456
H       -0.94699352      -0.85358739      -0.62015952
H        0.05507118       1.78159430      -0.08832898
H       -0.90808612       1.15949726       1.30677347
H       -3.27806900      -0.55599804      -0.76259070
H       -3.20316703       0.96745787       0.13436903
H       -2.59910682      -0.52854789       0.88431363
17
Frame=6 idx=002643 GeodesicLength=0.38724598790594134 rxn_smarts="[C:1]([C:2]([C@@:3]1([H:12])[C:4]([H:13])([H:14])[N:5]1[C:6]([H:15])([H:16])[H:17])([H:10])[H:11])([H:7])([H:8])[H:9]>>[C:1]([C:2]([C:3][C:4]([N:5]([C:6]([H:15])([H:16])[H:17])[H:12])([H:13])[H:14])([H:10])[H:11])([H:7])([H:8])[H:9]"
C        2.50701892      -0.42553304       0.44564074
C        1.41519030      -0.37411297      -0.62851636
C        0.11193518      -0.39349014       0.10995170
C       -0.48686824       0.94145692       0.29341940
N       -1.39516539       0.31153064      -0.65346061
C       -2.68938028       0.02061338      -0.03507821
H        2.44724114       0.42729980       1.12548286
H        2.42626199      -1.33546928       1.04264825
H        3.49547838      -0.41134296      -0.01499882
H        1.53714896       0.52247711      -1.24818240
H        1.52155573      -1.24236006      -1.28272338
H       -0.95844150      -0.86710343      -0.63949061
H        0.03533392       1.79243525      -0.14830258
H       -0.88041313       1.17730619       1.28111201
H       -3.29827991      -0.56598998      -0.72365331
H       -3.20999106       0.95727912       0.17075902
H       -2.57862502      -0.53499655       0.90539230
17
Frame=7 idx=002643 GeodesicLength=0.45083981761350833 rxn_smarts="[C:1]([C:2]([C@@:3]1([H:12])[C:4]([H:13])([H:14])[N:5]1[C:6]([H:15])([H:16])[H:17])([H:10])[H:11])([H:7])([H:8])[H:9]>>[C:1]([C:2]([C:3][C:4]([N:5]([C:6]([H:15])([H:16])[H:17])[H:12])([H:13])[H:14])([H:10])[H:11])([H:7])([H:8])[H:9]"
C        2.49730885      -0.44001435       0.46375492
C        1.43408167      -0.35603296      -0.63710714
C        0.11470978      -0.37604802       0.06700740
C       -0.49046560       0.95329584       0.25449014
N       -1.41668484       0.30654828      -0.66076710
C       -2.69331661       0.01373252      -0.01066108
H        2.42710192       0.39759902       1.16126862
H        2.39524355      -1.36265918       1.03760897
H        3.49753879      -0.42315839       0.02930953
H        1.57974084       0.55146319      -1.23523040
H        1.54999660      -1.21141072      -1.30656743
H       -0.96987959      -0.88121157      -0.65834919
H        0.01454627       1.80262798      -0.21082439
H       -0.85185510       1.19631256       1.25275886
H       -3.31725849      -0.57680166      -0.68225967
H       -3.21505323       0.94683832       0.20837190
H       -2.55575480      -0.54108086       0.92719607
17
Frame=8 idx=002643 GeodesicLength=0.5141162885890964 rxn_smarts="[C:1]([C:2]([C@@:3]1([H:12])[C:4]([H:13])([H:14])[N:5]1[C:6]([H:15])([H:16])[H:17])([H:10])[H:11])([H:7])([H:8])[H:9]>>[C:1]([C:2]([C:3][C:4]([N:5]([C:6]([H:15])([H:16])[H:17])[H:12])([H:13])[H:14])([H:10])[H:11])([H:7])([H:8])[H:9]"
C        2.48555818      -0.45518971       0.48189737
C        1.45340160      -0.33685677      -0.64544772
C        0.11762804      -0.35821961       0.02184939
C       -0.49437295       0.96527454       0.21390072
N       -1.43813528       0.30098707      -0.66782537
C       -2.69575863       0.00665242       0.01491329
H        2.40330182       0.36608241       1.19730273
H        2.36201598      -1.39053844       1.03052739
H        3.49742702      -0.43574759       0.07528602
H        1.62292732       0.58196528      -1.21941403
H        1.58036600      -1.17811125      -1.33075702
H       -0.98120675      -0.89605663      -0.67647643
H       -0.00726864       1.81202162      -0.27572773
H       -0.82254537       1.21641758       1.22171979
H       -3.33473165      -0.58831428      -0.63847267
H       -3.21813399       0.93633104       0.24707482
H       -2.53047270      -0.54669768       0.94964944
17
Frame=9 idx=002643 GeodesicLength=0.5767743955173324 rxn_smarts="[C:1]([C:2]([C@@:3]1([H:12])[C:4]([H:13])([H:14])[N:5]1[C:6]([H:15])([H:16])[H:17])([H:10])[H:11])([H:7])([H:8])[H:9]>>[C:1]([C:2]([C:3][C:4]([N:5]([C:6]([H:15])([H:16])[H:17])[H:12])([H:13])[H:14])([H:10])[H:11])([H:7])([H:8])[H:9]"
C        2.47155868      -0.47090605       0.49990091
C        1.47295387      -0.31660082      -0.65335629
C        0.12070650      -0.34009361      -0.02559762
C       -0.49850254       0.97712571       0.17172233
N       -1.45936230       0.29476607      -0.67448847
C       -2.69645657      -0.00052456       0.04156496
H        2.37552348       0.33278614       1.23326501
H        2.32654928      -1.41876221       1.02112029
H        3.49474667      -0.44896463       0.12282379
H        1.66621879       0.61378451      -1.20035077
H        1.61260846      -1.14230513      -1.35496437
H       -0.99236984      -0.91164972      -0.69359384
H       -0.02996198       1.82013880      -0.34275318
H       -0.79238150       1.23735742       1.18781452
H       -3.35042424      -0.60030765      -0.59233123
H       -3.21887056       0.92580825       0.28671110
H       -2.50253617      -0.55165250       0.97251286
17
Frame=10 idx=002643 GeodesicLength=0.6395444669701884 rxn_smarts="[C:1]([C:2]([C@@:3]1([H:12])[C:4]([H:13])([H:14])[N:5]1[C:6]([H:15])([H:16])[H:17])([H:10])[H:11])([H:7])([H:8])[H:9]>>[C:1]([C:2]([C:3][C:4]([N:5]([C:6]([H:15])([H:16])[H:17])[H:12])([H:13])[H:14])([H:10])[H:11])([H:7])([H:8])[H:9]"
C        2.45520836      -0.48734533       0.51769607
C        1.49298016      -0.29529307      -0.66088858
C        0.12400504      -0.32172181      -0.07555495
C       -0.50300452       0.98911227       0.12787001
N       -1.48026427       0.28794209      -0.68080670
C       -2.69542296      -0.00778913       0.06946540
H        2.34319767       0.29759566       1.26910517
H        2.28883557      -1.44770545       1.00925582
H        3.48950315      -0.46295832       0.17193299
H        1.70968577       0.64707938      -1.17800450
H        1.64745995      -1.10407102      -1.37925573
H       -1.00308235      -0.92826516      -0.70961259
H       -0.05363993       1.82740800      -0.41215526
H       -0.76177514       1.25948510       1.15106032
H       -3.36422133      -0.61291132      -0.54365980
H       -3.21741900       0.91553513       0.32750810
H       -2.47204617      -0.55609702       0.99604423
17
Frame=11 idx=002643 GeodesicLength=0.7011854627769657 rxn_smarts="[C:1]([C:2]([C@@:3]1([H:12])[C:4]([H:13])([H:14])[N:5]1[C:6]([H:15])([H:16])[H:17])([H:10])[H:11])([H:7])([H:8])[H:9]>>[C:1]([C:2]([C:3][C:4]([N:5]([C:6]([H:15])([H:16])[H:17])[H:12])([H:13])[H:14])([H:10])[H:11])([H:7])([H:8])[H:9]"
C        2.43616382      -0.50428623       0.53503278
C        1.51267397      -0.27287426      -0.66753389
C        0.12739976      -0.30298051      -0.12789549
C       -0.50768178       1.00069388       0.08251363
N       -1.50057846       0.28029347      -0.68657331
C       -2.69192188      -0.01499676       0.09822654
H        2.30632051       0.26030092       1.30407112
H        2.24921334      -1.47657918       0.99428413
H        3.48084341      -0.47731727       0.22253413
H        1.75187594       0.68129474      -1.15158086
H        1.68380744      -1.06298609      -1.40257135
H       -1.01335220      -0.94558248      -0.72397708
H       -0.07827711       1.83286575      -0.48331480
H       -0.73013050       1.28211104       1.11120952
H       -3.37541930      -0.62580024      -0.49272757
H       -3.21272299       0.90531861       0.36873468
H       -2.43821395      -0.55947540       1.01956783
17
Frame=12 idx=002643 GeodesicLength=0.7624306975551698 rxn_smarts="[C:1]([C:2]([C@@:3]1([H:12])[C:4]([H:13])([H:14])[N:5]1[C:6]([H:15])([H:16])[H:17])([H:10])[H:11])([H:7])([H:8])[H:9]>>[C:1]([C:2]([C:3][C:4]([N:5]([C:6]([H:15])([H:16])[H:17])[H:12])([H:13])[H:14])([H:10])[H:11])([H:7])([H:8])[H:9]"
C        2.41460609      -0.52140643       0.55157554
C        1.53224347      -0.24988457      -0.67350195
C        0.13102788      -0.28435479      -0.18241193
C       -0.51255828       1.01187121       0.03642542
N       -1.51988094       0.27216878      -0.69165202
C       -2.68628680      -0.02196847       0.12768722
H        2.26474809       0.22207353       1.33745106
H        2.20782282      -1.50500109       0.97698257
H        3.46897441      -0.49214884       0.27369114
H        1.79264332       0.71592674      -1.12210249
H        1.72241233      -1.02014355      -1.42485369
H       -1.02269486      -0.96387473      -0.73658627
H       -0.10335260       1.83702171      -0.55507713
H       -0.69837428       1.30486002       1.06923686
H       -3.38398935      -0.63851641      -0.44031084
H       -3.20530320       0.89570077       0.41047301
H       -2.40203810      -0.56232389       1.04297350
17
Frame=13 idx=002643 GeodesicLength=0.8234545929978409 rxn_smarts="[C:1]([C:2]([C@@:3]1([H:12])[C:4]([H:13])([H:14])[N:5]1[C:6]([H:15])([H:16])[H:17])([H:10])[H:11])([H:7])([H:8])[H:9]>>[C:1]([C:2]([C:3][C:4]([N:5]([C:6]([H:15])([H:16])[H:17])[H:12])([H:13])[H:14])([H:10])[H:11])([H:7])([H:8])[H:9]"
C        2.39027554      -0.53893402       0.56732255
C        1.55140051      -0.22617213      -0.67857754
C        0.13484919      -0.26556402      -0.23931932
C       -0.51764829       1.02276803      -0.01067289
N       -1.53812980       0.26348741      -0.69609346
C       -2.67813318      -0.02876421       0.15788601
H        2.21817475       0.18234526       1.36914910
H        2.16474731      -1.53324623       0.95678568
H        3.45350842      -0.50743742       0.32574162
H        1.83145526       0.75102796      -1.08902563
H        1.76298851      -0.97518261      -1.44565458
H       -1.03083197      -0.98301145      -0.74733192
H       -0.12909422       1.83987009      -0.62777542
H       -0.66628729       1.32806573       1.02471767
H       -3.38956292      -0.65138916      -0.38605660
H       -3.19483596       0.88651328       0.45264700
H       -2.36287585      -0.56437652       1.06625773
17
Frame=14 idx=002643 GeodesicLength=0.8845235775430134 rxn_smarts="[C:1]([C:2]([C@@:3]1([H:12])[C:4]([H:13])([H:14])[N:5]1[C:6]([H:15])([H:16])[H:17])([H:10])[H:11])([H:7])([H:8])[H:9]>>[C:1]([C:2]([C:3][C:4]([N:5]([C:6]([H:15])([H:16])[H:17])[H:12])([H:13])[H:14])([H:10])[H:11])([H:7])([H:8])[H:9]"
C        2.36278288      -0.55693345       0.58214709
C        1.56995756      -0.20168732      -0.68259399
C        0.13890549      -0.24644106      -0.29885595
C       -0.52290212       1.03341956      -0.05899260
N       -1.55516683       0.25422683      -0.69983807
C       -2.66708251      -0.03543656       0.18895357
H        2.16588520       0.14074413       1.39894339
H        2.11963972      -1.56130054       0.93325287
H        3.43393952      -0.52325912       0.37882662
H        1.86803012       0.78648904      -1.05195969
H        1.80561247      -0.92778153      -1.46463056
H       -1.03733639      -1.00284521      -0.75606776
H       -0.15552634       1.84133725      -0.70161562
H       -0.63388785       1.35191424       0.97722711
H       -3.39169134      -0.66457652      -0.32959771
H       -3.18101985       0.87760222       0.49535524
H       -2.32013973      -0.56547197       1.08944606
17
Frame=15 idx=002643 GeodesicLength=0.9463160039246059 rxn_smarts="[C:1]([C:2]([C@@:3]1([H:12])[C:4]([H:13])([H:14])[N:5]1[C:6]([H:15])([H:16])[H:17])([H:10])[H:11])([H:7])([H:8])[H:9]>>[C:1]([C:2]([C:3][C:4]([N:5]([C:6]([H:15])([H:16])[H:17])[H:12])([H:13])[H:14])([H:10])[H:11])([H:7])([H:8])[H:9]"
C        2.33172729      -0.57567761       0.59599913
C        1.58770375      -0.17636623      -0.68541393
C        0.14324260      -0.22675100      -0.36123916
C       -0.52840639       1.04409723      -0.10883993
N       -1.57079870       0.24436292      -0.70293656
C       -2.65266523      -0.04204613       0.22106486
H        2.10704048       0.09667241       1.42674122
H        2.07242543      -1.58952828       0.90590963
H        3.40973131      -0.53977554       0.43320623
H        1.90192304       0.82233277      -1.01054519
H        1.85037977      -0.87767098      -1.48149715
H       -1.04157080      -1.02334372      -0.76269285
H       -0.18294900       1.84166524      -0.77710307
H       -0.60134894       1.37697860       0.92637697
H       -3.38972800      -0.67844230      -0.27050038
H       -3.16356624       0.86893346       0.53871848
H       -2.27314035      -0.56544084       1.11275173
17
Frame=16 idx=002643 GeodesicLength=1.0089379855939042 rxn_smarts="[C:1]([C:2]([C@@:3]1([H:12])[C:4]([H:13])([H:14])[N:5]1[C:6]([H:15])([H:16])[H:17])([H:10])[H:11])([H:7])([H:8])[H:9]>>[C:1]([C:2]([C:3][C:4]([N:5]([C:6]([H:15])([H:16])[H:17])[H:12])([H:13])[H:14])([H:10])[H:11])([H:7])([H:8])[H:9]"
C        2.29721642      -0.59483643       0.60851798
C        1.60409110      -0.15063515      -0.68678935
C        0.14782216      -0.20653607      -0.42578992
C       -0.53403631       1.05460697      -0.15948276
N       -1.58460172       0.23408216      -0.70519114
C       -2.63471532      -0.04848120       0.25373975
H        2.04215411       0.05088365       1.45143835
H        2.02362697      -1.61716244       0.87510086
H        3.38070324      -0.55680368       0.48814816
H        1.93214599       0.85763412      -0.96532648
H        1.89640543      -0.82564490      -1.49524905
H       -1.04304520      -1.04412886      -0.76709759
H       -0.21109819       1.84082238      -0.85296289
H       -0.56890980       1.40271323       0.87279450
H       -3.38332964      -0.69258141      -0.20962355
H       -3.14229133       0.86048646       0.58230382
H       -2.22213792      -0.56441885       1.13546931
