12
Frame=0 idx=004248 GeodesicLength=0.0 rxn_smarts="[C:1]1([H:7])([H:8])[C@@:2]2([H:9])[C@:3]1([H:10])[C@@:4]1([H:11])[O:5][C@@:6]21[H:12]>>[C:1]1([H:7])([H:8])[C:2][C@@:6]2([H:12])[C@@:4]([H:11])([C:3]1([H:9])[H:10])[O:5]2"
C        1.27466240       0.00358967      -0.47710595
C        0.30762567      -1.13211861      -0.40628097
C        0.47246202       0.22835576       0.79227770
C       -0.96855038       0.56131894       0.38111339
O       -1.06322737       0.91453754      -0.97414425
C       -1.08057967      -0.48274243      -0.62059355
H        1.12481872       0.75210138      -1.24313984
H        2.31259756      -0.25486499      -0.29590402
H        0.32605738      -0.99466370       0.99595963
H        0.97598627       0.51814160       1.70806464
H       -1.72642727       0.92522118       1.06234635
H       -1.95542529      -1.03887629      -0.92259312
12
Frame=1 idx=004248 GeodesicLength=0.05119463288250507 rxn_smarts="[C:1]1([H:7])([H:8])[C@@:2]2([H:9])[C@:3]1([H:10])[C@@:4]1([H:11])[O:5][C@@:6]21[H:12]>>[C:1]1([H:7])([H:8])[C:2][C@@:6]2([H:12])[C@@:4]([H:11])([C:3]1([H:9])[H:10])[O:5]2"
C        1.27480451       0.00349960      -0.47603175
C        0.30365303      -1.12902680      -0.41032290
C        0.47224197       0.22688377       0.79330121
C       -0.96875504       0.56018399       0.38284208
O       -1.06487093       0.91702283      -0.97104321
C       -1.08207885      -0.48155342      -0.62421653
H        1.13209278       0.75221963      -1.24363682
H        2.31132356      -0.26135109      -0.29580473
H        0.33589589      -1.00965621       1.00312846
H        0.97298559       0.53741639       1.70344098
H       -1.72877639       0.91996939       1.06402107
H       -1.95851612      -1.03560810      -0.92567786
12
Frame=2 idx=004248 GeodesicLength=0.10237891782531773 rxn_smarts="[C:1]1([H:7])([H:8])[C@@:2]2([H:9])[C@:3]1([H:10])[C@@:4]1([H:11])[O:5][C@@:6]21[H:12]>>[C:1]1([H:7])([H:8])[C:2][C@@:6]2([H:12])[C@@:4]([H:11])([C:3]1([H:9])[H:10])[O:5]2"
C        1.27492189       0.00340247      -0.47490122
C        0.29965518      -1.12590050      -0.41423616
C        0.47200785       0.22543917       0.79440538
C       -0.96897634       0.55908155       0.38458525
O       -1.06651391       0.91955029      -0.96791274
C       -1.08358759      -0.48029496      -0.62784585
H        1.13942603       0.75225408      -1.24409748
H        2.30999032      -0.26783321      -0.29566468
H        0.34606026      -1.02485225       1.01020920
H        0.96976765       0.55671663       1.69851155
H       -1.73114394       0.91472089       1.06569302
H       -1.96160739      -1.03228418      -0.92874627
12
Frame=3 idx=004248 GeodesicLength=0.1535587051476064 rxn_smarts="[C:1]1([H:7])([H:8])[C@@:2]2([H:9])[C@:3]1([H:10])[C@@:4]1([H:11])[O:5][C@@:6]21[H:12]>>[C:1]1([H:7])([H:8])[C:2][C@@:6]2([H:12])[C@@:4]([H:11])([C:3]1([H:9])[H:10])[O:5]2"
C        1.27501359       0.00329967      -0.47371200
C        0.29563175      -1.12273809      -0.41801856
C        0.47175828       0.22402713       0.79559158
C       -0.96921580       0.55801481       0.38634182
O       -1.06815719       0.92211936      -0.96475498
C       -1.08510589      -0.47896634      -0.63147984
H        1.14681847       0.75220167      -1.24452161
H        2.30859718      -0.27430905      -0.29548063
H        0.35655731      -1.04025853       1.01719574
H        0.96633249       0.57603365       1.69327454
H       -1.73353131       0.90948062       1.06735963
H       -1.96469888      -1.02890491      -0.93179568
12
Frame=4 idx=004248 GeodesicLength=0.20473659272465836 rxn_smarts="[C:1]1([H:7])([H:8])[C@@:2]2([H:9])[C@:3]1([H:10])[C@@:4]1([H:11])[O:5][C@@:6]21[H:12]>>[C:1]1([H:7])([H:8])[C:2][C@@:6]2([H:12])[C@@:4]([H:11])([C:3]1([H:9])[H:10])[O:5]2"
C        1.27507866       0.00319294      -0.47246247
C        0.29158275      -1.11953759      -0.42166791
C        0.47149179       0.22265429       0.79685990
C       -0.96947514       0.55698776       0.38810971
O       -1.06980215       0.92472884      -0.96157326
C       -1.08663387      -0.47756721      -0.63511669
H        1.15426944       0.75205906      -1.24491028
H        2.30714359      -0.28077506      -0.29525029
H        0.36739457      -1.05587812       1.02408363
H        0.96268064       0.59535174       1.68773319
H       -1.73593990       0.90425510       1.06901702
H       -1.96779038      -1.02547176      -0.93482254
12
Frame=5 idx=004248 GeodesicLength=0.2559110890490647 rxn_smarts="[C:1]1([H:7])([H:8])[C@@:2]2([H:9])[C@:3]1([H:10])[C@@:4]1([H:11])[O:5][C@@:6]21[H:12]>>[C:1]1([H:7])([H:8])[C:2][C@@:6]2([H:12])[C@@:4]([H:11])([C:3]1([H:9])[H:10])[O:5]2"
C        1.27511614       0.00308352      -0.47114956
C        0.28750705      -1.11629917      -0.42518197
C        0.47120606       0.22132346       0.79821278
C       -0.96975586       0.55600338       0.38988797
O       -1.07144908       0.92737852      -0.95836947
C       -1.08817213      -0.47609668      -0.63875512
H        1.16177926       0.75182337      -1.24526205
H        2.30562818      -0.28722872      -0.29496945
H        0.37858270      -1.07171583       1.03086728
H        0.95881144       0.61466291       1.68188172
H       -1.73837143       0.89904915       1.07066298
H       -1.97088234      -1.02198392      -0.93782510
12
Frame=6 idx=004248 GeodesicLength=0.3070873193870861 rxn_smarts="[C:1]1([H:7])([H:8])[C@@:2]2([H:9])[C@:3]1([H:10])[C@@:4]1([H:11])[O:5][C@@:6]21[H:12]>>[C:1]1([H:7])([H:8])[C:2][C@@:6]2([H:12])[C@@:4]([H:11])([C:3]1([H:9])[H:10])[O:5]2"
C        1.27512496       0.00297411      -0.46977304
C        0.28340522      -1.11301934      -0.42855714
C        0.47089996       0.22004550       0.79964808
C       -0.97006016       0.55506732       0.39167328
O       -1.07310052       0.93006626      -0.95514917
C       -1.08972052      -0.47455501      -0.64239265
H        1.16934655       0.75149066      -1.24558037
H        2.30405065      -0.29366558      -0.29463708
H        0.39012941      -1.08777268       1.03754257
H        0.95472623       0.63394195       1.67573175
H       -1.74082773       0.89387176       1.07229209
H       -1.97397405      -1.01844494      -0.94079832
12
Frame=7 idx=004248 GeodesicLength=0.3582651552837177 rxn_smarts="[C:1]1([H:7])([H:8])[C@@:2]2([H:9])[C@:3]1([H:10])[C@@:4]1([H:11])[O:5][C@@:6]21[H:12]>>[C:1]1([H:7])([H:8])[C:2][C@@:6]2([H:12])[C@@:4]([H:11])([C:3]1([H:9])[H:10])[O:5]2"
C        1.27510392       0.00286665      -0.46833105
C        0.27927663      -1.10969707      -0.43178888
C        0.47057131       0.21882854       0.80116603
C       -0.97039032       0.55418447       0.39346344
O       -1.07475791       0.93279084      -0.95191648
C       -1.09127952      -0.47294196      -0.64602703
H        1.17697053       0.75105724      -1.24586654
H        2.30241035      -0.30008221      -0.29424971
H        0.40204626      -1.10405224       1.04410158
H        0.95042504       0.65317114       1.66928708
H       -1.74331085       0.88873080       1.07390005
H       -1.97706543      -1.01485619      -0.94373849
12
Frame=8 idx=004248 GeodesicLength=0.40944558820409466 rxn_smarts="[C:1]1([H:7])([H:8])[C@@:2]2([H:9])[C@:3]1([H:10])[C@@:4]1([H:11])[O:5][C@@:6]21[H:12]>>[C:1]1([H:7])([H:8])[C:2][C@@:6]2([H:12])[C@@:4]([H:11])([C:3]1([H:9])[H:10])[O:5]2"
C        1.27505235       0.00276345      -0.46682172
C        0.27512089      -1.10633201      -0.43487328
C        0.47021839       0.21767970       0.80276712
C       -0.97074788       0.55335956       0.39525641
O       -1.07642237       0.93555121      -0.94867519
C       -1.09284945      -0.47125729      -0.64965608
H        1.18465069       0.75051981      -1.24612137
H        2.30070616      -0.30647463      -0.29380388
H        0.41434394      -1.12055767       1.05053848
H        0.94590662       0.67233260       1.66254840
H       -1.74582274       0.88363394       1.07548318
H       -1.98015662      -1.01121868      -0.94664207
12
Frame=9 idx=004248 GeodesicLength=0.46063686717069163 rxn_smarts="[C:1]1([H:7])([H:8])[C@@:2]2([H:9])[C@:3]1([H:10])[C@@:4]1([H:11])[O:5][C@@:6]21[H:12]>>[C:1]1([H:7])([H:8])[C:2][C@@:6]2([H:12])[C@@:4]([H:11])([C:3]1([H:9])[H:10])[O:5]2"
C        1.27496878       0.00266706      -0.46524513
C        0.27093798      -1.10292103      -0.43780670
C        0.46983884       0.21661167       0.80444757
C       -0.97113592       0.55259894       0.39704786
O       -1.07809719       0.93834468      -0.94543229
C       -1.09443099      -0.46950194      -0.65327739
H        1.19238536       0.74987284      -1.24634954
H        2.29893737      -0.31283853      -0.29329706
H        0.42703232      -1.13729338       1.05684433
H        0.94117671       0.69140443       1.65553683
H       -1.74836587       0.87859135       1.07703544
H       -1.98324738      -1.00753610      -0.94950393
12
Frame=10 idx=004248 GeodesicLength=0.5118325545761031 rxn_smarts="[C:1]1([H:7])([H:8])[C@@:2]2([H:9])[C@:3]1([H:10])[C@@:4]1([H:11])[O:5][C@@:6]21[H:12]>>[C:1]1([H:7])([H:8])[C:2][C@@:6]2([H:12])[C@@:4]([H:11])([C:3]1([H:9])[H:10])[O:5]2"
C        1.27485237       0.00257960      -0.46359935
C        0.26672689      -1.09946463      -0.44058480
C        0.46943021       0.21563057       0.80620812
C       -0.97155613       0.55190744       0.39883605
O       -1.07978327       0.94117071      -0.94219168
C       -1.09602465      -0.46767546      -0.65688906
H        1.20017383       0.74911336      -1.24655123
H        2.29710302      -0.31917070      -0.29272568
H        0.44012465      -1.15425893       1.06301441
H        0.93623373       0.71036699       1.64825169
H       -1.75094246       0.87361052       1.07855320
H       -1.98633820      -1.00380946      -0.95232166
12
Frame=11 idx=004248 GeodesicLength=0.563028590639544 rxn_smarts="[C:1]1([H:7])([H:8])[C@@:2]2([H:9])[C@:3]1([H:10])[C@@:4]1([H:11])[O:5][C@@:6]21[H:12]>>[C:1]1([H:7])([H:8])[C:2][C@@:6]2([H:12])[C@@:4]([H:11])([C:3]1([H:9])[H:10])[O:5]2"
C        1.27470141       0.00250378      -0.46188493
C        0.26248733      -1.09596064      -0.44320122
C        0.46899013       0.21474993       0.80804454
C       -0.97201209       0.55129266       0.40061607
O       -1.08148396       0.94402621      -0.93896186
C       -1.09763110      -0.46577907      -0.66048845
H        1.20801363       0.74823606      -1.24673171
H        2.29520281      -0.32546684      -0.29208836
H        0.45363280      -1.17145366       1.06903861
H        0.93108332       0.72919202       1.64071787
H       -1.75355555       0.86870305       1.08002952
H       -1.98942873      -1.00004350      -0.95509008
12
Frame=12 idx=004248 GeodesicLength=0.6142282401373304 rxn_smarts="[C:1]1([H:7])([H:8])[C@@:2]2([H:9])[C@:3]1([H:10])[C@@:4]1([H:11])[O:5][C@@:6]21[H:12]>>[C:1]1([H:7])([H:8])[C:2][C@@:6]2([H:12])[C@@:4]([H:11])([C:3]1([H:9])[H:10])[O:5]2"
C        1.27451464       0.00244143      -0.46010141
C        0.25821806      -1.09240763      -0.44565331
C        0.46851575       0.21397867       0.80995460
C       -0.97250635       0.55076003       0.40238476
O       -1.08320158       0.94690973      -0.93574844
C       -1.09925109      -0.46381349      -0.66407377
H        1.21590374       0.74723666      -1.24689289
H        2.29323542      -0.33172467      -0.29138179
H        0.46756923      -1.18888015       1.07491021
H        0.92572929       0.74786262       1.63294867
H       -1.75620774       0.86387739       1.08145964
H       -1.99251936      -0.99624059      -0.95780626
12
Frame=13 idx=004248 GeodesicLength=0.665428299591967 rxn_smarts="[C:1]1([H:7])([H:8])[C@@:2]2([H:9])[C@:3]1([H:10])[C@@:4]1([H:11])[O:5][C@@:6]21[H:12]>>[C:1]1([H:7])([H:8])[C:2][C@@:6]2([H:12])[C@@:4]([H:11])([C:3]1([H:9])[H:10])[O:5]2"
C        1.27429062       0.00239459      -0.45824803
C        0.25391816      -1.08880552      -0.44793624
C        0.46800375       0.21332668       0.81193593
C       -0.97304171       0.55031615       0.40413811
O       -1.08493835       0.94981922      -0.93255850
C       -1.10088593      -0.46177946      -0.66764298
H        1.22384253       0.74611029      -1.24703734
H        2.29119958      -0.33793997      -0.29060262
H        0.48194932      -1.20653942       1.08062028
H        0.92017517       0.76635639       1.62496000
H       -1.75890207       0.85914437       1.08283763
H       -1.99561107      -0.99240331      -0.96046623
12
Frame=14 idx=004248 GeodesicLength=0.7166265420190054 rxn_smarts="[C:1]1([H:7])([H:8])[C@@:2]2([H:9])[C@:3]1([H:10])[C@@:4]1([H:11])[O:5][C@@:6]21[H:12]>>[C:1]1([H:7])([H:8])[C:2][C@@:6]2([H:12])[C@@:4]([H:11])([C:3]1([H:9])[H:10])[O:5]2"
C        1.27402806       0.00236510      -0.45632400
C        0.24958660      -1.08515381      -0.45004476
C        0.46745125       0.21280424       0.81398596
C       -0.97362113       0.54996753       0.40587273
O       -1.08669652       0.95275278      -0.92939876
C       -1.10253638      -0.45967811      -0.67119360
H        1.23182828       0.74485148      -1.24716766
H        2.28909462      -0.34410978      -0.28974725
H        0.49678501      -1.22443591       1.08615584
H        0.91442590       0.78465726       1.61676953
H       -1.76164167       0.85451408       1.08415840
H       -1.99870400      -0.98853485      -0.96306643
12
Frame=15 idx=004248 GeodesicLength=0.7678186849740156 rxn_smarts="[C:1]1([H:7])([H:8])[C@@:2]2([H:9])[C@:3]1([H:10])[C@@:4]1([H:11])[O:5][C@@:6]21[H:12]>>[C:1]1([H:7])([H:8])[C:2][C@@:6]2([H:12])[C@@:4]([H:11])([C:3]1([H:9])[H:10])[O:5]2"
C        1.27372535       0.00235439      -0.45432861
C        0.24522188      -1.08145225      -0.45197500
C        0.46685463       0.21242002       0.81610206
C       -0.97424763       0.54972023       0.40758478
O       -1.08847838       0.95570840      -0.92627605
C       -1.10420384      -0.45751064      -0.67472396
H        1.23985943       0.74345526      -1.24728534
H        2.28691929      -0.35023175      -0.28881200
H        0.51209124      -1.24257203       1.09150569
H        0.90848662       0.80274954       1.60839577
H       -1.76442927       0.84999690       1.08541622
H       -2.00179934      -0.98463807      -0.96560355
12
Frame=16 idx=004248 GeodesicLength=0.8190004219568198 rxn_smarts="[C:1]1([H:7])([H:8])[C@@:2]2([H:9])[C@:3]1([H:10])[C@@:4]1([H:11])[O:5][C@@:6]21[H:12]>>[C:1]1([H:7])([H:8])[C:2][C@@:6]2([H:12])[C@@:4]([H:11])([C:3]1([H:9])[H:10])[O:5]2"
C        1.27338107       0.00236378      -0.45226048
C        0.24082255      -1.07770129      -0.45372194
C        0.46621034       0.21218307       0.81828211
C       -0.97492413       0.54958078       0.40927078
O       -1.09028583       0.95868425      -0.92319723
C       -1.10588951      -0.45527830      -0.67823180
H        1.24793441       0.74191607      -1.24739164
H        2.28467255      -0.35630301      -0.28779248
H        0.52788244      -1.26095247       1.09665586
H        0.90236238       0.82061931       1.59985530
H       -1.76726833       0.84560348       1.08660585
H       -2.00489794      -0.98071568      -0.96807431
