11
Frame=0 idx=004226 GeodesicLength=0.0 rxn_smarts="[O:1]([c:2]1[c:3]([H:8])[c:4]([H:9])[c:5]([H:10])[n:6]1[H:11])[H:7]>>[O:1]=[C:2]1[C:3]([H:8])=[C:4]([H:9])[C:5]([H:7])([H:10])[N:6]1[H:11]"
O        1.76281944       0.47831888      -0.40738997
C        0.95876304       0.25434042       0.57120643
C        0.40084504      -1.06351352       0.73371327
C       -0.75812711      -0.93575009       0.03578215
C       -0.89041432       0.43541176      -0.39560438
N       -0.08057106       1.17809509       0.52780703
H        0.65427462       0.44353267      -1.17790280
H        0.95441405      -1.95929817       0.95980829
H       -1.42049589      -1.73066671      -0.27653270
H       -1.84067364       0.84785040      -0.72016063
H        0.25916582       2.05167925       0.14927328
11
Frame=1 idx=004226 GeodesicLength=0.0596233978298457 rxn_smarts="[O:1]([c:2]1[c:3]([H:8])[c:4]([H:9])[c:5]([H:10])[n:6]1[H:11])[H:7]>>[O:1]=[C:2]1[C:3]([H:8])=[C:4]([H:9])[C:5]([H:7])([H:10])[N:6]1[H:11]"
O        1.77744210       0.48290931      -0.39561024
C        0.96141539       0.25573042       0.57328102
C        0.39907583      -1.06101259       0.73335685
C       -0.76328474      -0.93570284       0.03757708
C       -0.88867340       0.43216190      -0.40608978
N       -0.08218364       1.17335480       0.52121376
H        0.66799789       0.43740553      -1.19555817
H        0.95503911      -1.95834578       0.94850994
H       -1.43181122      -1.73003698      -0.26236480
H       -1.84373779       0.84645003      -0.71434785
H        0.24872047       2.05708621       0.16003219
11
Frame=2 idx=004226 GeodesicLength=0.11922544340155097 rxn_smarts="[O:1]([c:2]1[c:3]([H:8])[c:4]([H:9])[c:5]([H:10])[n:6]1[H:11])[H:7]>>[O:1]=[C:2]1[C:3]([H:8])=[C:4]([H:9])[C:5]([H:7])([H:10])[N:6]1[H:11]"
O        1.79192886       0.48757965      -0.38377906
C        0.96411415       0.25714157       0.57530711
C        0.39740490      -1.05851591       0.73287447
C       -0.76859088      -0.93556716       0.03967778
C       -0.88700392       0.42884904      -0.41637438
N       -0.08363824       1.16863046       0.51454339
H        0.68176763       0.43092549      -1.21346065
H        0.95568244      -1.95733417       0.93697553
H       -1.44312528      -1.72916017      -0.24801347
H       -1.84635973       0.84506691      -0.70896363
H        0.23782008       2.06238430       0.17121292
11
Frame=3 idx=004226 GeodesicLength=0.17881196196104138 rxn_smarts="[O:1]([c:2]1[c:3]([H:8])[c:4]([H:9])[c:5]([H:10])[n:6]1[H:11])[H:7]>>[O:1]=[C:2]1[C:3]([H:8])=[C:4]([H:9])[C:5]([H:7])([H:10])[N:6]1[H:11]"
O        1.80628975       0.49231881      -0.37190025
C        0.96686409       0.25857760       0.57728296
C        0.39582697      -1.05601407       0.73227822
C       -0.77404715      -0.93532989       0.04209888
C       -0.88540608       0.42547489      -0.42645476
N       -0.08492261       1.16393474       0.50778339
H        0.69557967       0.42406173      -1.23162973
H        0.95633013      -1.95625549       0.92522116
H       -1.45439806      -1.72804531      -0.23352943
H       -1.84857536       0.84371649      -0.70398063
H        0.22645865       2.06756050       0.18283019
11
Frame=4 idx=004226 GeodesicLength=0.23839041907462274 rxn_smarts="[O:1]([c:2]1[c:3]([H:8])[c:4]([H:9])[c:5]([H:10])[n:6]1[H:11])[H:7]>>[O:1]=[C:2]1[C:3]([H:8])=[C:4]([H:9])[C:5]([H:7])([H:10])[N:6]1[H:11]"
O        1.82053831       0.49712222      -0.35996916
C        0.96967003       0.26004261       0.57920615
C        0.39433936      -1.05349892       0.73157513
C       -0.77965050      -0.93497788       0.04484813
C       -0.88387741       0.42203912      -0.43633335
N       -0.08602516       1.15927920       0.50091856
H        0.70943576       0.41678377      -1.25008577
H        0.95696458      -1.95509868       0.91325292
H       -1.46560326      -1.72669850      -0.21894237
H       -1.85041622       0.84240897      -0.69937435
H        0.21462451       2.07259810       0.19490411
11
Frame=5 idx=004226 GeodesicLength=0.29797692449540114 rxn_smarts="[O:1]([c:2]1[c:3]([H:8])[c:4]([H:9])[c:5]([H:10])[n:6]1[H:11])[H:7]>>[O:1]=[C:2]1[C:3]([H:8])=[C:4]([H:9])[C:5]([H:7])([H:10])[N:6]1[H:11]"
O        1.83469284       0.50198505      -0.34797885
C        0.97253476       0.26154120       0.58107431
C        0.39293770      -1.05096114       0.73077145
C       -0.78539919      -0.93450000       0.04792920
C       -0.88241692       0.41854580      -0.44601951
N       -0.08693625       1.15467627       0.49393106
H        0.72333316       0.40906494      -1.26884943
H        0.95758217      -1.95386122       0.90108139
H       -1.47672424      -1.72512970      -0.20427529
H       -1.85191169       0.84115643      -0.69512416
H        0.20230767       2.07748239       0.20745982
11
Frame=6 idx=004226 GeodesicLength=0.3575650308458017 rxn_smarts="[O:1]([c:2]1[c:3]([H:8])[c:4]([H:9])[c:5]([H:10])[n:6]1[H:11])[H:7]>>[O:1]=[C:2]1[C:3]([H:8])=[C:4]([H:9])[C:5]([H:7])([H:10])[N:6]1[H:11]"
O        1.84876480       0.50690334      -0.33592787
C        0.97546416       0.26307950       0.58288458
C        0.39161862      -1.04839024       0.72987270
C       -0.79128482      -0.93387967       0.05134561
C       -0.88101934       0.41499161      -0.45551846
N       -0.08764317       1.15013889       0.48680023
H        0.73728036       0.40086829      -1.28794251
H        0.95816280      -1.95252729       0.88870769
H       -1.48774099      -1.72333798      -0.18954622
H       -1.85308556       0.83996656      -0.69120853
H        0.18948314       2.08218700       0.22053279
11
Frame=7 idx=004226 GeodesicLength=0.4171620809898684 rxn_smarts="[O:1]([c:2]1[c:3]([H:8])[c:4]([H:9])[c:5]([H:10])[n:6]1[H:11])[H:7]>>[O:1]=[C:2]1[C:3]([H:8])=[C:4]([H:9])[C:5]([H:7])([H:10])[N:6]1[H:11]"
O        1.86277297       0.51187576      -0.32380901
C        0.97846139       0.26466367       0.58463211
C        0.39037989      -1.04577623       0.72888211
C       -0.79730208      -0.93310420       0.05509570
C       -0.87968257       0.41137995      -0.46484343
N       -0.08813586       1.14567958       0.47950456
H        0.75128009       0.39216480      -1.30738624
H        0.95870103      -1.95109118       0.87613809
H       -1.49864673      -1.72132807      -0.17476244
H       -1.85395986       0.83884759      -0.68761247
H        0.17613174       2.08668833       0.23416102
11
Frame=8 idx=004226 GeodesicLength=0.4767575248303673 rxn_smarts="[O:1]([c:2]1[c:3]([H:8])[c:4]([H:9])[c:5]([H:10])[n:6]1[H:11])[H:7]>>[O:1]=[C:2]1[C:3]([H:8])=[C:4]([H:9])[C:5]([H:7])([H:10])[N:6]1[H:11]"
O        1.87673181       0.51690126      -0.31162090
C        0.98153180       0.26630110       0.58631132
C        0.38921907      -1.04310732       0.72780328
C       -0.80344147      -0.93215615       0.05917983
C       -0.87840201       0.40771073      -0.47400629
N       -0.08840109       1.14131299       0.47201864
H        0.76534162       0.38291554      -1.32720074
H        0.95918308      -1.94954052       0.86337292
H       -1.50943224      -1.71909790      -0.15992923
H       -1.85455243       0.83780606      -0.68432205
H        0.16222186       2.09095421       0.24839323
11
Frame=9 idx=004226 GeodesicLength=0.5362999795922478 rxn_smarts="[O:1]([c:2]1[c:3]([H:8])[c:4]([H:9])[c:5]([H:10])[n:6]1[H:11])[H:7]>>[O:1]=[C:2]1[C:3]([H:8])=[C:4]([H:9])[C:5]([H:7])([H:10])[N:6]1[H:11]"
O        1.89065355       0.52199167      -0.29937245
C        0.98467395       0.26800314       0.58791061
C        0.38813689      -1.04037280       0.72661886
C       -0.80968550      -0.93103389       0.06356492
C       -0.87717137       0.40399760      -0.48304423
N       -0.08844494       1.13704269       0.46432010
H        0.77948753       0.37310214      -1.34739377
H        0.95962806      -1.94787124       0.85041415
H       -1.52014029      -1.71663323      -0.14496601
H       -1.85486731       0.83684436      -0.68137623
H        0.14772943       2.09492956       0.26332405
11
Frame=10 idx=004226 GeodesicLength=0.5958518730786924 rxn_smarts="[O:1]([c:2]1[c:3]([H:8])[c:4]([H:9])[c:5]([H:10])[n:6]1[H:11])[H:7]>>[O:1]=[C:2]1[C:3]([H:8])=[C:4]([H:9])[C:5]([H:7])([H:10])[N:6]1[H:11]"
O        1.90456357       0.52713658      -0.28704027
C        0.98789978       0.26977481       0.58942613
C        0.38713108      -1.03755864       0.72534945
C       -0.81603541      -0.92970714       0.06828013
C       -0.87598761       0.40022969      -0.49194980
N       -0.08823257       1.13289546       0.45636878
H        0.79370689       0.36266805      -1.36801001
H        0.95999763      -1.94606048       0.83726400
H       -1.53072104      -1.71393839      -0.12994537
H       -1.85492898       0.83597632      -0.67871913
H        0.13260666       2.09858374       0.27897609
11
Frame=11 idx=004226 GeodesicLength=0.6554036922623532 rxn_smarts="[O:1]([c:2]1[c:3]([H:8])[c:4]([H:9])[c:5]([H:10])[n:6]1[H:11])[H:7]>>[O:1]=[C:2]1[C:3]([H:8])=[C:4]([H:9])[C:5]([H:7])([H:10])[N:6]1[H:11]"
O        1.91848220       0.53234212      -0.27462028
C        0.99121300       0.27162614       0.59084782
C        0.38620111      -1.03465130       0.72399090
C       -0.82247848      -0.92816075       0.07331062
C       -0.87484390       0.39641076      -0.50074538
N       -0.08775242       1.12888532       0.44813139
H        0.80800934       0.35157483      -1.38907221
H        0.96029637      -1.94410180       0.82392405
H       -1.54119025      -1.71099965      -0.11483313
H       -1.85474585       0.83521134      -0.67636192
H        0.11680888       2.10186299       0.29542814
11
Frame=12 idx=004226 GeodesicLength=0.7149555105613465 rxn_smarts="[O:1]([c:2]1[c:3]([H:8])[c:4]([H:9])[c:5]([H:10])[n:6]1[H:11])[H:7]>>[O:1]=[C:2]1[C:3]([H:8])=[C:4]([H:9])[C:5]([H:7])([H:10])[N:6]1[H:11]"
O        1.93242754       0.53760931      -0.26210795
C        0.99462108       0.27356767       0.59216370
C        0.38534760      -1.03163530       0.72254714
C       -0.82900788      -0.92637381       0.07866206
C       -0.87373598       0.39254166      -0.50944377
N       -0.08698423       1.12503211       0.43956844
H        0.82239977       0.33977205      -1.41061056
H        0.96050907      -1.94197569       0.81039674
H       -1.55153667      -1.70780328      -0.09963165
H       -1.85432577       0.83455882      -0.67429809
H        0.10028546       2.10470645       0.31275394
11
Frame=13 idx=004226 GeodesicLength=0.774498259421236 rxn_smarts="[O:1]([c:2]1[c:3]([H:8])[c:4]([H:9])[c:5]([H:10])[n:6]1[H:11])[H:7]>>[O:1]=[C:2]1[C:3]([H:8])=[C:4]([H:9])[C:5]([H:7])([H:10])[N:6]1[H:11]"
O        1.94642306       0.54294631      -0.24949650
C        0.99812937       0.27561196       0.59336080
C        0.38457239      -1.02849344       0.72101267
C       -0.83561124      -0.92432395       0.08432317
C       -0.87265556       0.38862541      -0.51807252
N       -0.08591232       1.12135357       0.43063591
H        0.83688825       0.32721471      -1.43265035
H        0.96064255      -1.93967393       0.79667786
H       -1.56178262      -1.70432861      -0.08429373
H       -1.85367039       0.83402879      -0.67254978
H        0.08297653       2.10703917       0.33105245
11
Frame=14 idx=004226 GeodesicLength=0.8340346281311259 rxn_smarts="[O:1]([c:2]1[c:3]([H:8])[c:4]([H:9])[c:5]([H:10])[n:6]1[H:11])[H:7]>>[O:1]=[C:2]1[C:3]([H:8])=[C:4]([H:9])[C:5]([H:7])([H:10])[N:6]1[H:11]"
O        1.96049295       0.54836139      -0.23678264
C        1.00174818       0.27777560       0.59441834
C        0.38387790      -1.02520342       0.71938639
C       -0.84227737      -0.92198431       0.09029339
C       -0.87159234       0.38466509      -0.52665795
N       -0.08450931       1.11787667       0.42127555
H        0.85148384       0.31383480      -1.45523001
H        0.96068745      -1.93717300       0.78276690
H       -1.57193191      -1.70053733      -0.06878627
H       -1.85277721       0.83363143      -0.67113375
H        0.06479783       2.10875308       0.35045006
11
Frame=15 idx=004226 GeodesicLength=0.8935490871017787 rxn_smarts="[O:1]([c:2]1[c:3]([H:8])[c:4]([H:9])[c:5]([H:10])[n:6]1[H:11])[H:7]>>[O:1]=[C:2]1[C:3]([H:8])=[C:4]([H:9])[C:5]([H:7])([H:10])[N:6]1[H:11]"
O        1.97466268       0.55386293      -0.22396915
C        1.00548761       0.28007741       0.59531331
C        0.38326862      -1.02173907       0.71766284
C       -0.84899157      -0.91932328       0.09656357
C       -0.87053286       0.38066513      -0.53523594
N       -0.08274949       1.11462851       0.41142360
H        0.86620097       0.29956851      -1.47838206
H        0.96064233      -1.93445058       0.76866340
H       -1.58200581      -1.69638751      -0.05305083
H       -1.85163926       0.83337644      -0.67008240
H        0.04565678       2.10972152       0.37109366
11
Frame=16 idx=004226 GeodesicLength=0.9530415083877836 rxn_smarts="[O:1]([c:2]1[c:3]([H:8])[c:4]([H:9])[c:5]([H:10])[n:6]1[H:11])[H:7]>>[O:1]=[C:2]1[C:3]([H:8])=[C:4]([H:9])[C:5]([H:7])([H:10])[N:6]1[H:11]"
O        1.98896361       0.55946614      -0.21105652
C        1.00936141       0.28254042       0.59601473
C        0.38275139      -1.01807097       0.71583354
C       -0.85573673      -0.91630849       0.10312258
C       -0.86945653       0.37662988      -0.54385308
N       -0.08059748       1.11164418       0.40099623
H        0.88106552       0.28434403      -1.50215331
H        0.96050548      -1.93147804       0.75436185
H       -1.59204105      -1.69181916      -0.03699219
H       -1.85024127       0.83328052      -0.66944796
H        0.02542565       2.10977148       0.39317414
