9
Frame=0 idx=000313 GeodesicLength=0.0 rxn_smarts="[O:1]([c:2]1[n:3][o:4][c:5]([H:8])[c:6]1[H:9])[H:7]>>[O:1]([C:2]1=[C:6]=[C:5]([H:8])[O:4][N:3]1[H:9])[H:7]"
O        1.91406433       0.45924705      -0.37756291
C        0.62333171       0.24304319      -0.10175113
N        0.22919213      -1.08136647       0.23224052
O       -1.07507211      -1.04126977       0.17774584
C       -1.48207003       0.24692477      -0.16172428
C       -0.47524820       1.13819078      -0.34600616
H        2.40837544      -0.36378299      -0.29585118
H       -2.55809476       0.31096397      -0.22704260
H        0.41552148       0.08804945       1.09995186
9
Frame=1 idx=000313 GeodesicLength=0.09485592138871582 rxn_smarts="[O:1]([c:2]1[n:3][o:4][c:5]([H:8])[c:6]1[H:9])[H:7]>>[O:1]([C:2]1=[C:6]=[C:5]([H:8])[O:4][N:3]1[H:9])[H:7]"
O        1.91592107       0.45487164      -0.38964601
C        0.62581962       0.23599099      -0.11597762
N        0.23077870      -1.07472014       0.24176361
O       -1.07655417      -1.04521764       0.16629667
C       -1.48146842       0.24026461      -0.17728914
C       -0.47325757       1.13729589      -0.31903741
H        2.41259538      -0.36572940      -0.29887793
H       -2.55794876       0.31263717      -0.22395764
H        0.40411414       0.10460689       1.11672547
9
Frame=2 idx=000313 GeodesicLength=0.18938045044002333 rxn_smarts="[O:1]([c:2]1[n:3][o:4][c:5]([H:8])[c:6]1[H:9])[H:7]>>[O:1]([C:2]1=[C:6]=[C:5]([H:8])[O:4][N:3]1[H:9])[H:7]"
O        1.91761352       0.45066833      -0.40150427
C        0.62807640       0.22908846      -0.13015192
N        0.23223796      -1.06776525       0.25098431
O       -1.07789219      -1.04895925       0.15486391
C       -1.48071410       0.23449962      -0.19080107
C       -0.47116530       1.13520323      -0.29290883
H        2.41651654      -0.36757145      -0.30251519
H       -2.55731029       0.31405440      -0.22219151
H        0.39263744       0.12078191       1.13422457
9
Frame=3 idx=000313 GeodesicLength=0.2836786201154044 rxn_smarts="[O:1]([c:2]1[n:3][o:4][c:5]([H:8])[c:6]1[H:9])[H:7]>>[O:1]([C:2]1=[C:6]=[C:5]([H:8])[O:4][N:3]1[H:9])[H:7]"
O        1.91920597       0.44663186      -0.41309795
C        0.63012120       0.22228375      -0.14447576
N        0.23362139      -1.06050747       0.25989769
O       -1.07904292      -1.05251844       0.14344640
C       -1.47984590       0.22954085      -0.20232284
C       -0.46889862       1.13205613      -0.26764551
H        2.42020941      -0.36933217      -0.30666657
H       -2.55637259       0.31525176      -0.22159617
H        0.38100205       0.13659374       1.15246071
9
Frame=4 idx=000313 GeodesicLength=0.3778410292852178 rxn_smarts="[O:1]([c:2]1[n:3][o:4][c:5]([H:8])[c:6]1[H:9])[H:7]>>[O:1]([C:2]1=[C:6]=[C:5]([H:8])[O:4][N:3]1[H:9])[H:7]"
O        1.92076067       0.44276829      -0.42431545
C        0.63197568       0.21550642      -0.15917409
N        0.23497884      -1.05295448       0.26848012
O       -1.07997059      -1.05595299       0.13193223
C       -1.47887477       0.22522529      -0.21224090
C       -0.46639081       1.12794338      -0.24340577
H        2.42376316      -0.37100157      -0.31112198
H       -2.55524781       0.31636948      -0.22155477
H        0.36900562       0.15209618       1.17140062
9
Frame=5 idx=000313 GeodesicLength=0.472079140898248 rxn_smarts="[O:1]([c:2]1[n:3][o:4][c:5]([H:8])[c:6]1[H:9])[H:7]>>[O:1]([C:2]1=[C:6]=[C:5]([H:8])[O:4][N:3]1[H:9])[H:7]"
O        1.92234511       0.43909218      -0.43507966
C        0.63364722       0.20867989      -0.17450571
N        0.23633582      -1.04508422       0.27669395
O       -1.08063919      -1.05926994       0.12030748
C       -1.47781687       0.22144300      -0.22083796
C       -0.46357131       1.12294083      -0.22025034
H        2.42722519      -0.37257768      -0.31573049
H       -2.55396175       0.31746840      -0.22164354
H        0.35643577       0.16730755       1.19104628
9
Frame=6 idx=000313 GeodesicLength=0.5663157406332295 rxn_smarts="[O:1]([c:2]1[n:3][o:4][c:5]([H:8])[c:6]1[H:9])[H:7]>>[O:1]([C:2]1=[C:6]=[C:5]([H:8])[O:4][N:3]1[H:9])[H:7]"
O        1.92398168       0.43560309      -0.44534423
C        0.63515030       0.20174513      -0.19060481
N        0.23773007      -1.03689837       0.28451956
O       -1.08103729      -1.06249424       0.10855178
C       -1.47666487       0.21807661      -0.22841788
C       -0.46039499       1.11711921      -0.19822921
H        2.43065305      -0.37404950      -0.32038710
H       -2.55253352       0.31863618      -0.22148031
H        0.34311558       0.18226191       1.21139219
9
Frame=7 idx=000313 GeodesicLength=0.6607239891581278 rxn_smarts="[O:1]([c:2]1[n:3][o:4][c:5]([H:8])[c:6]1[H:9])[H:7]>>[O:1]([C:2]1=[C:6]=[C:5]([H:8])[O:4][N:3]1[H:9])[H:7]"
O        1.92566612       0.43230953      -0.45510708
C        0.63648572       0.19462646      -0.20766454
N        0.23919752      -1.02835385       0.29193608
O       -1.08114790      -1.06560623       0.09676208
C       -1.47541078       0.21507235      -0.23511745
C       -0.45677721       1.11052712      -0.17728164
H        2.43405596      -0.37540440      -0.32507305
H       -2.55092269       0.31988854      -0.22096295
H        0.32885326       0.19694049       1.23250855
9
Frame=8 idx=000313 GeodesicLength=0.7552730954552105 rxn_smarts="[O:1]([c:2]1[n:3][o:4][c:5]([H:8])[c:6]1[H:9])[H:7]>>[O:1]([C:2]1=[C:6]=[C:5]([H:8])[O:4][N:3]1[H:9])[H:7]"
O        1.92738656       0.42921369      -0.46439591
C        0.63765928       0.18726753      -0.22578717
N        0.24079300      -1.01943309       0.29895599
O       -1.08096163      -1.06860804       0.08500229
C       -1.47402470       0.21236948      -0.24109508
C       -0.45265679       1.10321184      -0.15735757
H        2.43744741      -0.37663061      -0.32980010
H       -2.54910112       0.32127175      -0.21998919
H        0.31345799       0.21133746       1.25446674
9
Frame=9 idx=000313 GeodesicLength=0.8503919615032441 rxn_smarts="[O:1]([c:2]1[n:3][o:4][c:5]([H:8])[c:6]1[H:9])[H:7]>>[O:1]([C:2]1=[C:6]=[C:5]([H:8])[O:4][N:3]1[H:9])[H:7]"
O        1.92899152       0.42630468      -0.47329935
C        0.63868610       0.17955866      -0.24513460
N        0.24257157      -1.01002303       0.30552198
O       -1.08043289      -1.07143685       0.07346906
C       -1.47242949       0.20994871      -0.24646114
C       -0.44785599       1.09514859      -0.13837229
H        2.44080336      -0.37766719      -0.33463016
H       -2.54695889       0.32279644      -0.21859662
H        0.29662471       0.22536999       1.27750312
9
Frame=10 idx=000313 GeodesicLength=0.9456227813380919 rxn_smarts="[O:1]([c:2]1[n:3][o:4][c:5]([H:8])[c:6]1[H:9])[H:7]>>[O:1]([C:2]1=[C:6]=[C:5]([H:8])[O:4][N:3]1[H:9])[H:7]"
O        1.93054090       0.42355829      -0.48194930
C        0.63956528       0.17150341      -0.26568720
N        0.24460863      -1.00014991       0.31172434
O       -1.07955765      -1.07412900       0.06215985
C       -1.47060601       0.20777303      -0.25129182
C       -0.44237307       1.08641145      -0.12023012
H        2.44417903      -0.37852898      -0.33958412
H       -2.54450276       0.32451147      -0.21675073
H        0.27814564       0.23905025       1.30160910
9
Frame=11 idx=000313 GeodesicLength=1.0410010428535625 rxn_smarts="[O:1]([c:2]1[n:3][o:4][c:5]([H:8])[c:6]1[H:9])[H:7]>>[O:1]([C:2]1=[C:6]=[C:5]([H:8])[O:4][N:3]1[H:9])[H:7]"
O        1.93200496       0.42095297      -0.49051149
C        0.64030272       0.16306276      -0.28747741
N        0.24698553      -0.98974667       0.31760234
O       -1.07828926      -1.07665501       0.05120130
C       -1.46848314       0.20583469      -0.25564483
C       -0.43609513       1.07700730      -0.10281068
H        2.44757312      -0.37920621      -0.34477084
H       -2.54165912       0.32642962      -0.21452326
H        0.25766030       0.25232057       1.32693487
9
Frame=12 idx=000313 GeodesicLength=1.136366148340603 rxn_smarts="[O:1]([c:2]1[n:3][o:4][c:5]([H:8])[c:6]1[H:9])[H:7]>>[O:1]([C:2]1=[C:6]=[C:5]([H:8])[O:4][N:3]1[H:9])[H:7]"
O        1.93334561       0.41844204      -0.49921497
C        0.64091924       0.15422128      -0.31044370
N        0.24978689      -0.97877263       0.32322490
O       -1.07657858      -1.07900683       0.04067180
C       -1.46598760       0.20412667      -0.25957200
C       -0.42894140       1.06695988      -0.08599060
H        2.45100717      -0.37968674      -0.35028035
H       -2.53836775       0.32858264      -0.21197830
H        0.23481643       0.26513370       1.35358323
9
Frame=13 idx=000313 GeodesicLength=1.2316428949479474 rxn_smarts="[O:1]([c:2]1[n:3][o:4][c:5]([H:8])[c:6]1[H:9])[H:7]>>[O:1]([C:2]1=[C:6]=[C:5]([H:8])[O:4][N:3]1[H:9])[H:7]"
O        1.93449282       0.41596977      -0.50833966
C        0.64143921       0.14496553      -0.33445497
N        0.25311243      -0.96717180       0.32868995
O       -1.07435885      -1.08117094       0.03065630
C       -1.46301096       0.20264443      -0.26314601
C       -0.42081322       1.05628326      -0.06962015
H        2.45447741      -0.37996095      -0.35626685
H       -2.53453400       0.33100382      -0.20921568
H        0.20919516       0.27743689       1.38169709
9
Frame=14 idx=000313 GeodesicLength=1.3266859823618253 rxn_smarts="[O:1]([c:2]1[n:3][o:4][c:5]([H:8])[c:6]1[H:9])[H:7]>>[O:1]([C:2]1=[C:6]=[C:5]([H:8])[O:4][N:3]1[H:9])[H:7]"
O        1.93545125       0.41348147      -0.51816255
C        0.64188662       0.13531155      -0.35936145
N        0.25705625      -0.95490946       0.33407562
O       -1.07156473      -1.08312139       0.02127114
C       -1.45946520       0.20140045      -0.26637606
C       -0.41163474       1.04500300      -0.05353830
H        2.45800737      -0.38004180      -0.36287967
H       -2.53008839       0.33370509      -0.20635116
H        0.18035159       0.28917108       1.41132243
9
Frame=15 idx=000313 GeodesicLength=1.4214105750277828 rxn_smarts="[O:1]([c:2]1[n:3][o:4][c:5]([H:8])[c:6]1[H:9])[H:7]>>[O:1]([C:2]1=[C:6]=[C:5]([H:8])[O:4][N:3]1[H:9])[H:7]"
O        1.93620127       0.41091339      -0.52898988
C        0.64228848       0.12528255      -0.38494764
N        0.26172532      -0.94195503       0.33949840
O       -1.06811976      -1.08484595       0.01260181
C       -1.45524868       0.20040859      -0.26926663
C       -0.40133005       1.03314295      -0.03757046
H        2.46160660      -0.37994486      -0.37029993
H       -2.52494699       0.33671231      -0.20351297
H        0.14782382       0.30028605       1.44248731
9
Frame=16 idx=000313 GeodesicLength=1.5157538095648169 rxn_smarts="[O:1]([c:2]1[n:3][o:4][c:5]([H:8])[c:6]1[H:9])[H:7]>>[O:1]([C:2]1=[C:6]=[C:5]([H:8])[O:4][N:3]1[H:9])[H:7]"
O        1.93673178       0.40820263      -0.54111188
C        0.64267940       0.11490539      -0.41094738
N        0.26721908      -0.92829680       0.34506463
O       -1.06394942      -1.08633168       0.00474103
C       -1.45025635       0.19968155      -0.27182229
C       -0.38984733       1.02073490      -0.02152829
H        2.46528831      -0.37969173      -0.37871544
H       -2.51903116       0.34005398      -0.20081595
H        0.11116570       0.31074176       1.47513557
