9
Frame=0 idx=000314 GeodesicLength=0.0 rxn_smarts="[O:1]([c:2]1[n:3][o:4][c:5]([H:8])[c:6]1[H:9])[H:7]>>[O:1]=[c:2]1[n:3]([H:7])[o:4][c:5]([H:8])[c:6]1[H:9]"
O        2.13758774       0.20970885      -0.05202923
C        0.86314603       0.17140509      -0.10580914
N        0.51633267      -1.09858519      -0.14147808
O       -0.84457812      -1.23698643       0.04971104
C       -1.29916000       0.02563720       0.07373736
C       -0.32555866       0.96193758      -0.03168934
H        1.76147958      -1.17979166       0.04555122
H       -2.37104414       0.11571057       0.17187319
H       -0.43820511       2.03096403      -0.00986702
9
Frame=1 idx=000314 GeodesicLength=0.03214431204311385 rxn_smarts="[O:1]([c:2]1[n:3][o:4][c:5]([H:8])[c:6]1[H:9])[H:7]>>[O:1]=[c:2]1[n:3]([H:7])[o:4][c:5]([H:8])[c:6]1[H:9]"
O        2.13689389       0.21186143      -0.06634137
C        0.86163812       0.17150879      -0.07860820
N        0.51598697      -1.10173650      -0.11735153
O       -0.84843429      -1.23537541       0.04891973
C       -1.30267694       0.02720474       0.07367995
C       -0.32861391       0.96152179      -0.03539491
H        1.77661481      -1.18367378       0.02410512
H       -2.37563489       0.11768379       0.15871882
H       -0.43577376       2.03100514      -0.00772762
9
Frame=2 idx=000314 GeodesicLength=0.06496882536394914 rxn_smarts="[O:1]([c:2]1[n:3][o:4][c:5]([H:8])[c:6]1[H:9])[H:7]>>[O:1]=[c:2]1[n:3]([H:7])[o:4][c:5]([H:8])[c:6]1[H:9]"
O        2.13528471       0.21441308      -0.08189522
C        0.86066493       0.17149167      -0.03670287
N        0.51610472      -1.10489057      -0.08838799
O       -0.85283191      -1.23403723       0.03982474
C       -1.30692568       0.02863135       0.06368762
C       -0.33099696       0.96087338      -0.03887232
H        1.79148674      -1.18747158      -0.00207717
H       -2.37919508       0.11999417       0.15693276
H       -0.43359148       2.03099573      -0.01250956
9
Frame=3 idx=000314 GeodesicLength=0.09737688292513816 rxn_smarts="[O:1]([c:2]1[n:3][o:4][c:5]([H:8])[c:6]1[H:9])[H:7]>>[O:1]=[c:2]1[n:3]([H:7])[o:4][c:5]([H:8])[c:6]1[H:9]"
O        2.13035979       0.21811708      -0.09566042
C        0.85976477       0.17080768       0.01787934
N        0.51616483      -1.10808991      -0.05449997
O       -0.85686844      -1.23276201       0.02367417
C       -1.31086299       0.02984316       0.04537608
C       -0.33162028       0.95954322      -0.03737273
H        1.80418661      -1.19003298      -0.03622099
H       -2.38044798       0.12229694       0.16444998
H       -0.43067630       2.03027681      -0.02762547
9
Frame=4 idx=000314 GeodesicLength=0.12942264277260312 rxn_smarts="[O:1]([c:2]1[n:3][o:4][c:5]([H:8])[c:6]1[H:9])[H:7]>>[O:1]=[c:2]1[n:3]([H:7])[o:4][c:5]([H:8])[c:6]1[H:9]"
O        2.12350697       0.22201286      -0.11374385
C        0.85924608       0.17025638       0.05843836
N        0.51627620      -1.11170662      -0.01650673
O       -0.85901159      -1.23133114       0.01361378
C       -1.31251241       0.03099324       0.04405611
C       -0.33132779       0.95802773      -0.02932629
H        1.81337931      -1.19113442      -0.07004892
H       -2.38320792       0.12380076       0.15062719
H       -0.42634886       2.02908120      -0.03710965
9
Frame=5 idx=000314 GeodesicLength=0.16220671334500147 rxn_smarts="[O:1]([c:2]1[n:3][o:4][c:5]([H:8])[c:6]1[H:9])[H:7]>>[O:1]=[c:2]1[n:3]([H:7])[o:4][c:5]([H:8])[c:6]1[H:9]"
O        2.11656191       0.22511549      -0.12451237
C        0.85851026       0.17049933       0.09117709
N        0.51610708      -1.11497504       0.01958883
O       -0.85965225      -1.22963213      -0.00427633
C       -1.31394340       0.03195956       0.03758576
C       -0.33116426       0.95689511      -0.02557308
H        1.81957346      -1.19209711      -0.09751844
H       -2.38391660       0.12413893       0.15113193
H       -0.42207621       2.02809586      -0.04760338
9
Frame=6 idx=000314 GeodesicLength=0.19490246919686932 rxn_smarts="[O:1]([c:2]1[n:3][o:4][c:5]([H:8])[c:6]1[H:9])[H:7]>>[O:1]=[c:2]1[n:3]([H:7])[o:4][c:5]([H:8])[c:6]1[H:9]"
O        2.10930462       0.22778373      -0.13534633
C        0.85829381       0.17109003       0.12033861
N        0.51604759      -1.11780670       0.05306809
O       -0.85876999      -1.22786463      -0.01523111
C       -1.31464484       0.03269922       0.03497324
C       -0.33080320       0.95591550      -0.01795353
H        1.82325384      -1.19273185      -0.12614510
H       -2.38513671       0.12395742       0.14338972
H       -0.41754511       2.02695728      -0.05709360
9
Frame=7 idx=000314 GeodesicLength=0.22799413618972916 rxn_smarts="[O:1]([c:2]1[n:3][o:4][c:5]([H:8])[c:6]1[H:9])[H:7]>>[O:1]=[c:2]1[n:3]([H:7])[o:4][c:5]([H:8])[c:6]1[H:9]"
O        2.10207474       0.23019524      -0.14443634
C        0.85823091       0.17190312       0.14658065
N        0.51606726      -1.12037022       0.08210506
O       -0.85708092      -1.22621379      -0.02084726
C       -1.31497546       0.03327735       0.03388272
C       -0.33046070       0.95504145      -0.00974253
H        1.82538313      -1.19307057      -0.15434736
H       -2.38639497       0.12358102       0.13240268
H       -0.41284399       2.02565640      -0.06559763
9
Frame=8 idx=000314 GeodesicLength=0.2611737911769899 rxn_smarts="[O:1]([c:2]1[n:3][o:4][c:5]([H:8])[c:6]1[H:9])[H:7]>>[O:1]=[c:2]1[n:3]([H:7])[o:4][c:5]([H:8])[c:6]1[H:9]"
O        2.09489250       0.23268314      -0.15103137
C        0.85827727       0.17260644       0.17155593
N        0.51616399      -1.12292988       0.10706183
O       -0.85511627      -1.22465687      -0.02453854
C       -1.31514508       0.03376802       0.03424563
C       -0.33012325       0.95422423       0.00029883
H        1.82640687      -1.19277698      -0.18237143
H       -2.38758945       0.12315474       0.12095359
H       -0.40776658       2.02392715      -0.07617447
9
Frame=9 idx=000314 GeodesicLength=0.2945514021442003 rxn_smarts="[O:1]([c:2]1[n:3][o:4][c:5]([H:8])[c:6]1[H:9])[H:7]>>[O:1]=[c:2]1[n:3]([H:7])[o:4][c:5]([H:8])[c:6]1[H:9]"
O        2.08762647       0.23513574      -0.15689565
C        0.85847920       0.17334914       0.19519201
N        0.51646306      -1.12544690       0.13003138
O       -0.85286372      -1.22314338      -0.02559114
C       -1.31508869       0.03416348       0.03658447
C       -0.32980670       0.95342525       0.01131047
H        1.82633208      -1.19195825      -0.21065956
H       -2.38870245       0.12274868       0.10675502
H       -0.40243925       2.02172624      -0.08672700
9
Frame=10 idx=000314 GeodesicLength=0.32784781099668936 rxn_smarts="[O:1]([c:2]1[n:3][o:4][c:5]([H:8])[c:6]1[H:9])[H:7]>>[O:1]=[c:2]1[n:3]([H:7])[o:4][c:5]([H:8])[c:6]1[H:9]"
O        2.08043030       0.23757424      -0.16103998
C        0.85847170       0.17402426       0.21716476
N        0.51660624      -1.12798499       0.14999270
O       -0.85063845      -1.22159896      -0.02742820
C       -1.31507819       0.03457899       0.03807409
C       -0.32958441       0.95261969       0.02095563
H        1.82613674      -1.19077797      -0.23618277
H       -2.38939569       0.12234752       0.09589478
H       -0.39694824       2.01921722      -0.09743101
9
Frame=11 idx=000314 GeodesicLength=0.3612715494140716 rxn_smarts="[O:1]([c:2]1[n:3][o:4][c:5]([H:8])[c:6]1[H:9])[H:7]>>[O:1]=[c:2]1[n:3]([H:7])[o:4][c:5]([H:8])[c:6]1[H:9]"
O        2.07333978       0.23989364      -0.16438516
C        0.85833985       0.17476738       0.23754468
N        0.51668026      -1.13050762       0.16822229
O       -0.84840132      -1.22008849      -0.02919481
C       -1.31509511       0.03499121       0.03888228
C       -0.32943098       0.95181625       0.02894469
H        1.82589799      -1.18947765      -0.25966294
H       -2.38988406       0.12194179       0.08676632
H       -0.39144641       2.01666350      -0.10711736
9
Frame=12 idx=000314 GeodesicLength=0.39474590278413346 rxn_smarts="[O:1]([c:2]1[n:3][o:4][c:5]([H:8])[c:6]1[H:9])[H:7]>>[O:1]=[c:2]1[n:3]([H:7])[o:4][c:5]([H:8])[c:6]1[H:9]"
O        2.06631468       0.24214722      -0.16688717
C        0.85810803       0.17551893       0.25690027
N        0.51669129      -1.13303489       0.18510642
O       -0.84613785      -1.21857214      -0.03097834
C       -1.31511093       0.03540393       0.03945463
C       -0.32932364       0.95102013       0.03623814
H        1.82552498      -1.18794055      -0.28198735
H       -2.39023137       0.12152377       0.07880529
H       -0.38583520       2.01393358      -0.11665188
9
Frame=13 idx=000314 GeodesicLength=0.42826175360521906 rxn_smarts="[O:1]([c:2]1[n:3][o:4][c:5]([H:8])[c:6]1[H:9])[H:7]>>[O:1]=[c:2]1[n:3]([H:7])[o:4][c:5]([H:8])[c:6]1[H:9]"
O        2.05938397       0.24434606      -0.16846182
C        0.85775443       0.17625825       0.27545436
N        0.51661811      -1.13558406       0.20082999
O       -0.84386754      -1.21704857      -0.03294755
C       -1.31513761       0.03582605       0.03966659
C       -0.32925359       0.95023181       0.04290602
H        1.82507189      -1.18614150      -0.30338828
H       -2.39047823       0.12109148       0.07219447
H       -0.38009143       2.01102047      -0.12625377
9
Frame=14 idx=000314 GeodesicLength=0.46180964958172854 rxn_smarts="[O:1]([c:2]1[n:3][o:4][c:5]([H:8])[c:6]1[H:9])[H:7]>>[O:1]=[c:2]1[n:3]([H:7])[o:4][c:5]([H:8])[c:6]1[H:9]"
O        2.05253887       0.24649397      -0.16919259
C        0.85729080       0.17697813       0.29339802
N        0.51647415      -1.13815847       0.21563111
O       -0.84158215      -1.21551042      -0.03501053
C       -1.31516314       0.03625615       0.03968886
C       -0.32921164       0.94944993       0.04917175
H        1.82449762      -1.18403980      -0.32421434
H       -2.39065342       0.12064847       0.06656972
H       -0.37419111       2.00788203      -0.13604200
9
Frame=15 idx=000314 GeodesicLength=0.495384124861622 rxn_smarts="[O:1]([c:2]1[n:3][o:4][c:5]([H:8])[c:6]1[H:9])[H:7]>>[O:1]=[c:2]1[n:3]([H:7])[o:4][c:5]([H:8])[c:6]1[H:9]"
O        2.04575833       0.24856554      -0.16933682
C        0.85674574       0.17770400       0.31077606
N        0.51629161      -1.14073864       0.22975950
O       -0.83927236      -1.21396684      -0.03689073
C       -1.31517093       0.03668345       0.03971772
C       -0.32918459       0.94866220       0.05506053
H        1.82376605      -1.18165584      -0.34467003
H       -2.39076596       0.12020278       0.06136100
H       -0.36816789       2.00454335      -0.14577723
9
Frame=16 idx=000314 GeodesicLength=0.5289978723800314 rxn_smarts="[O:1]([c:2]1[n:3][o:4][c:5]([H:8])[c:6]1[H:9])[H:7]>>[O:1]=[c:2]1[n:3]([H:7])[o:4][c:5]([H:8])[c:6]1[H:9]"
O        2.03905416       0.25054561      -0.16905453
C        0.85613758       0.17844672       0.32759357
N        0.51607540      -1.14332793       0.24333450
O       -0.83695299      -1.21243508      -0.03857961
C       -1.31517498       0.03710952       0.03971988
C       -0.32917134       0.94787809       0.06056389
H        1.82294188      -1.17904068      -0.36472562
H       -2.39084745       0.11975977       0.05648361
H       -0.36206227       2.00106398      -0.15533569
