11
Frame=0 idx=005087 GeodesicLength=0.0 rxn_smarts="[N:1]#[C:2][C:3]([C@@:4]1([H:9])[C:5]([H:10])([H:11])[O:6]1)([H:7])[H:8]>>[N:1]#[C:2]/[C:3](=[C:4](/[C:5]([O:6][H:7])([H:10])[H:11])[H:9])[H:8]"
N        3.04331569       0.39955378       1.16660498
C        2.08126135       0.36507464       0.53622062
C        0.88887400       0.29386491      -0.24498462
C       -0.38145682       0.27983697       0.42542051
C       -1.50876624      -0.14335163      -0.39165485
O       -0.84946605      -1.33904871       0.04815752
H        0.28113848      -1.02667978      -0.37654569
H        0.92796213       0.78621949      -1.21126804
H       -0.51357552       0.40487357       1.49205755
H       -2.50910625      -0.05902354       0.01922882
H       -1.46018080       0.03868030      -1.46323683
11
Frame=1 idx=005087 GeodesicLength=0.05990534407490156 rxn_smarts="[N:1]#[C:2][C:3]([C@@:4]1([H:9])[C:5]([H:10])([H:11])[O:6]1)([H:7])[H:8]>>[N:1]#[C:2]/[C:3](=[C:4](/[C:5]([O:6][H:7])([H:10])[H:11])[H:9])[H:8]"
N        3.04075427       0.44011430       1.17415544
C        2.08370355       0.37049218       0.53939898
C        0.89326901       0.27880019      -0.24435365
C       -0.37730955       0.27255606       0.42471922
C       -1.51215612      -0.13659877      -0.39087569
O       -0.86724863      -1.34339669       0.03638375
H        0.28380266      -1.05467532      -0.38613432
H        0.93198002       0.76933416      -1.21194115
H       -0.50352266       0.38802788       1.49343072
H       -2.50901209      -0.04028411       0.02606551
H       -1.46426046       0.05563013      -1.46084882
11
Frame=2 idx=005087 GeodesicLength=0.11975641554853825 rxn_smarts="[N:1]#[C:2][C:3]([C@@:4]1([H:9])[C:5]([H:10])([H:11])[O:6]1)([H:7])[H:8]>>[N:1]#[C:2]/[C:3](=[C:4](/[C:5]([O:6][H:7])([H:10])[H:11])[H:9])[H:8]"
N        3.03743489       0.48107906       1.18073328
C        2.08601115       0.37609751       0.54276007
C        0.89774947       0.26347210      -0.24334617
C       -0.37319461       0.26532751       0.42414138
C       -1.51536046      -0.12962739      -0.39006070
O       -0.88503898      -1.34733255       0.02435470
H        0.28633844      -1.08308698      -0.39567433
H        0.93616815       0.75190081      -1.21239804
H       -0.49369443       0.37079444       1.49483212
H       -2.50856772      -0.02160535       0.03294012
H       -1.46784591       0.07298083      -1.45828242
11
Frame=3 idx=005087 GeodesicLength=0.17956186214318787 rxn_smarts="[N:1]#[C:2][C:3]([C@@:4]1([H:9])[C:5]([H:10])([H:11])[O:6]1)([H:7])[H:8]>>[N:1]#[C:2]/[C:3](=[C:4](/[C:5]([O:6][H:7])([H:10])[H:11])[H:9])[H:8]"
N        3.03346424       0.52198069       1.18629550
C        2.08811579       0.38218006       0.54631244
C        0.90228522       0.24799448      -0.24194360
C       -0.36914872       0.25821775       0.42367937
C       -1.51837615      -0.12248762      -0.38921822
O       -0.90274779      -1.35083791       0.01211592
H        0.28881332      -1.11185496      -0.40511989
H        0.94047920       0.73398266      -1.21264141
H       -0.48416251       0.35328297       1.49624048
H       -2.50779394      -0.00310050       0.03982566
H       -1.47092866       0.09064236      -1.45554624
11
Frame=4 idx=005087 GeodesicLength=0.23932145300449398 rxn_smarts="[N:1]#[C:2][C:3]([C@@:4]1([H:9])[C:5]([H:10])([H:11])[O:6]1)([H:7])[H:8]>>[N:1]#[C:2]/[C:3](=[C:4](/[C:5]([O:6][H:7])([H:10])[H:11])[H:9])[H:8]"
N        3.02873926       0.56320994       1.19083031
C        2.09004447       0.38852667       0.55002030
C        0.90689922       0.23226364      -0.24012758
C       -0.36514140       0.25117154       0.42335584
C       -1.52119527      -0.11512641      -0.38834041
O       -0.92042545      -1.35390858      -0.00041512
H        0.29117897      -1.14105605      -0.41450047
H        0.94495628       0.71548979      -1.21262925
H       -0.47488846       0.33537973       1.49767181
H       -2.50667866       0.01531329       0.04674682
H       -1.47348897       0.10873645      -1.45261225
11
Frame=5 idx=005087 GeodesicLength=0.2990362920374906 rxn_smarts="[N:1]#[C:2][C:3]([C@@:4]1([H:9])[C:5]([H:10])([H:11])[O:6]1)([H:7])[H:8]>>[N:1]#[C:2]/[C:3](=[C:4](/[C:5]([O:6][H:7])([H:10])[H:11])[H:9])[H:8]"
N        3.02356061       0.60374055       1.19441724
C        2.09167109       0.39572668       0.55386099
C        0.91152406       0.21654754      -0.23790862
C       -0.36124796       0.24434772       0.42313189
C       -1.52383261      -0.10766807      -0.38744227
O       -0.93788375      -1.35652882      -0.01309901
H        0.29356534      -1.17053153      -0.42374881
H        0.94947885       0.69660200      -1.21242678
H       -0.46598303       0.31736533       1.49907379
H       -2.50528655       0.03338479       0.05365515
H       -1.47556605       0.12701380      -1.44951356
11
Frame=6 idx=005087 GeodesicLength=0.35871087396405965 rxn_smarts="[N:1]#[C:2][C:3]([C@@:4]1([H:9])[C:5]([H:10])([H:11])[O:6]1)([H:7])[H:8]>>[N:1]#[C:2]/[C:3](=[C:4](/[C:5]([O:6][H:7])([H:10])[H:11])[H:9])[H:8]"
N        3.01769271       0.64440239       1.19700146
C        2.09306870       0.40331361       0.55779667
C        0.91620977       0.20062962      -0.23525505
C       -0.35740613       0.23762353       0.42305157
C       -1.52626919      -0.10000358      -0.38650724
O       -0.95524654      -1.35869353      -0.02608745
H        0.29586936      -1.20043583      -0.43292634
H        0.95413854       0.67715047      -1.21195109
H       -0.45736950       0.29900435       1.50047746
H       -2.50357674       0.05130004       0.06060018
H       -1.47711098       0.14570893      -1.44620017
11
Frame=7 idx=005087 GeodesicLength=0.41836742623393375 rxn_smarts="[N:1]#[C:2][C:3]([C@@:4]1([H:9])[C:5]([H:10])([H:11])[O:6]1)([H:7])[H:8]>>[N:1]#[C:2]/[C:3](=[C:4](/[C:5]([O:6][H:7])([H:10])[H:11])[H:9])[H:8]"
N        3.01132413       0.68470514       1.19863611
C        2.09416822       0.41155429       0.56180136
C        0.92091826       0.18464581      -0.23216362
C       -0.35365553       0.23108006       0.42309942
C       -1.52851672      -0.09219697      -0.38554561
O       -0.97242136      -1.36039622      -0.03931476
H        0.29815843      -1.23069253      -0.44201502
H        0.95886920       0.65722815      -1.21122306
H       -0.44910497       0.28044357       1.50186039
H       -2.50159419       0.06893259       0.06755113
H       -1.47814546       0.16469611      -1.44268635
11
Frame=8 idx=005087 GeodesicLength=0.4779958491573056 rxn_smarts="[N:1]#[C:2][C:3]([C@@:4]1([H:9])[C:5]([H:10])([H:11])[O:6]1)([H:7])[H:8]>>[N:1]#[C:2]/[C:3](=[C:4](/[C:5]([O:6][H:7])([H:10])[H:11])[H:9])[H:8]"
N        3.00426710       0.72521346       1.19918241
C        2.09500746       0.42012611       0.56588322
C        0.92568545       0.16845034      -0.22858161
C       -0.34995737       0.22463302       0.42331796
C       -1.53055358      -0.08417103      -0.38455002
O       -0.98948089      -1.36162405      -0.05289680
H        0.30035712      -1.26140336      -0.45105096
H        0.96375023       0.63671700      -1.21015221
H       -0.44115516       0.26151245       1.50325177
H       -2.49931207       0.08640133       0.07452889
H       -1.47860828       0.18414472      -1.43893266
11
Frame=9 idx=005087 GeodesicLength=0.5375693898750964 rxn_smarts="[N:1]#[C:2][C:3]([C@@:4]1([H:9])[C:5]([H:10])([H:11])[O:6]1)([H:7])[H:8]>>[N:1]#[C:2]/[C:3](=[C:4](/[C:5]([O:6][H:7])([H:10])[H:11])[H:9])[H:8]"
N        2.99680142       0.76517881       1.19885308
C        2.09549525       0.42942971       0.56993835
C        0.93045593       0.15224798      -0.22454009
C       -0.34636249       0.21841159       0.42367226
C       -1.53239908      -0.07602020      -0.38352007
O       -1.00627098      -1.36236583      -0.06672987
H        0.30255357      -1.29246013      -0.45999524
H        0.96866522       0.61576367      -1.20882117
H       -0.43358292       0.24245146       1.50459132
H       -2.49679704       0.10350728       0.08151251
H       -1.47855888       0.20385566      -1.43496109
11
Frame=10 idx=005087 GeodesicLength=0.5971479533164512 rxn_smarts="[N:1]#[C:2][C:3]([C@@:4]1([H:9])[C:5]([H:10])([H:11])[O:6]1)([H:7])[H:8]>>[N:1]#[C:2]/[C:3](=[C:4](/[C:5]([O:6][H:7])([H:10])[H:11])[H:9])[H:8]"
N        2.98903525       0.80451490       1.19774967
C        2.09561915       0.43946734       0.57392106
C        0.93521560       0.13608415      -0.22005028
C       -0.34287670       0.21244159       0.42415437
C       -1.53407585      -0.06776812      -0.38246542
O       -1.02277418      -1.36264428      -0.08077293
H        0.30477092      -1.32383149      -0.46889902
H        0.97359654       0.59441089      -1.20723112
H       -0.42637441       0.22332831       1.50589496
H       -2.49408997       0.12022192       0.08848659
H       -1.47804633       0.22377478      -1.43078788
11
Frame=11 idx=005087 GeodesicLength=0.6566925616758699 rxn_smarts="[N:1]#[C:2][C:3]([C@@:4]1([H:9])[C:5]([H:10])([H:11])[O:6]1)([H:7])[H:8]>>[N:1]#[C:2]/[C:3](=[C:4](/[C:5]([O:6][H:7])([H:10])[H:11])[H:9])[H:8]"
N        2.98068454       0.84386704       1.19557980
C        2.09542867       0.44987042       0.57790113
C        0.94000368       0.11979115      -0.21502778
C       -0.33946158       0.20661685       0.42482395
C       -1.53553309      -0.05932490      -0.38137258
O       -1.03906381      -1.36241553      -0.09517904
H        0.30691347      -1.35565142      -0.47778638
H        0.97863185       0.57252399      -1.20525327
H       -0.41953596       0.20392871       1.50717628
H       -2.49113259       0.13667508       0.09547454
H       -1.47693517       0.24411861      -1.42633665
11
Frame=12 idx=005087 GeodesicLength=0.7162127361143692 rxn_smarts="[N:1]#[C:2][C:3]([C@@:4]1([H:9])[C:5]([H:10])([H:11])[O:6]1)([H:7])[H:8]>>[N:1]#[C:2]/[C:3](=[C:4](/[C:5]([O:6][H:7])([H:10])[H:11])[H:9])[H:8]"
N        2.97174791       0.88320348       1.19228270
C        2.09491265       0.46060781       0.58188365
C        0.94481763       0.10339245      -0.20943821
C       -0.33612048       0.20095037       0.42569746
C       -1.53677063      -0.05069475      -0.38024592
O       -1.05510812      -1.36167687      -0.10995140
H        0.30898829      -1.38790402      -0.48668291
H        0.98377797       0.55012591      -1.20284741
H       -0.41307700       0.18427881       1.50845047
H       -2.48794748       0.15284579       0.10245862
H       -1.47522074       0.26487102      -1.42160705
11
Frame=13 idx=005087 GeodesicLength=0.7757217822007857 rxn_smarts="[N:1]#[C:2][C:3]([C@@:4]1([H:9])[C:5]([H:10])([H:11])[O:6]1)([H:7])[H:8]>>[N:1]#[C:2]/[C:3](=[C:4](/[C:5]([O:6][H:7])([H:10])[H:11])[H:9])[H:8]"
N        2.96256178       0.92197826       1.18819682
C        2.09401932       0.47191655       0.58573605
C        0.94959959       0.08706466      -0.20334887
C       -0.33289292       0.19555384       0.42672887
C       -1.53782889      -0.04197148      -0.37908815
O       -1.07080211      -1.36044719      -0.12496118
H        0.31106256      -1.42049542      -0.49561503
H        0.98891926       0.52737180      -1.20010702
H       -0.40702093       0.16462315       1.50967308
H       -2.48460983       0.16858491       0.10942265
H       -1.47300782       0.28582089      -1.41663721
11
Frame=14 idx=005087 GeodesicLength=0.8352072379538091 rxn_smarts="[N:1]#[C:2][C:3]([C@@:4]1([H:9])[C:5]([H:10])([H:11])[O:6]1)([H:7])[H:8]>>[N:1]#[C:2]/[C:3](=[C:4](/[C:5]([O:6][H:7])([H:10])[H:11])[H:9])[H:8]"
N        2.95284445       0.96065150       1.18297891
C        2.09278635       0.48351552       0.58956080
C        0.95438813       0.07068871      -0.19666060
C       -0.32974767       0.19034479       0.42798211
C       -1.53866633      -0.03308465      -0.37789614
O       -1.08618598      -1.35869803      -0.14032619
H        0.31307598      -1.45350468      -0.50461753
H        0.99415055       0.50416532      -1.19689870
H       -0.40137174       0.14479485       1.51088605
H       -2.48108558       0.18398978       0.11636242
H       -1.47018817       0.30713689      -1.41137113
11
Frame=15 idx=005087 GeodesicLength=0.8946719348392237 rxn_smarts="[N:1]#[C:2][C:3]([C@@:4]1([H:9])[C:5]([H:10])([H:11])[O:6]1)([H:7])[H:8]>>[N:1]#[C:2]/[C:3](=[C:4](/[C:5]([O:6][H:7])([H:10])[H:11])[H:9])[H:8]"
N        2.94276271       0.99900831       1.17675824
C        2.09119935       0.49545238       0.59330727
C        0.95915282       0.05435410      -0.18939241
C       -0.32670358       0.18537837       0.42944490
C       -1.53930317      -0.02407658      -0.37667349
O       -1.10120171      -1.35644233      -0.15598877
H        0.31505331      -1.48688691      -0.51372656
H        0.99942115       0.48059075      -1.19323946
H       -0.39614395       0.12491907       1.51207854
H       -2.47742562       0.19898537       0.12325853
H       -1.46681130       0.32871746      -1.40582677
11
Frame=16 idx=005087 GeodesicLength=0.9541206661528983 rxn_smarts="[N:1]#[C:2][C:3]([C@@:4]1([H:9])[C:5]([H:10])([H:11])[O:6]1)([H:7])[H:8]>>[N:1]#[C:2]/[C:3](=[C:4](/[C:5]([O:6][H:7])([H:10])[H:11])[H:9])[H:8]"
N        2.93222594       1.03725800       1.16939120
C        2.08928436       0.50756572       0.59702711
C        0.96390380       0.03802132      -0.18149245
C       -0.32374793       0.18062265       0.43115269
C       -1.53972557      -0.01492292      -0.37541983
O       -1.11585647      -1.35367155      -0.17199179
H        0.31696601      -1.52066732      -0.52299630
H        1.00476624       0.45662418      -1.18906505
H       -0.39134279       0.10494300       1.51327628
H       -2.47363130       0.21360823       0.13009980
H       -1.46284229       0.35061871      -1.39998168
