10
Frame=0 idx=003934 GeodesicLength=0.0 rxn_smarts="[O:1]=[C:2]([N:3]([C:4]([C:5]#[N:6])([H:9])[H:10])[H:8])[H:7]>>[O:1]=[C:2]([N:3]([C:4]([N+:6]#[C-:5])([H:9])[H:10])[H:8])[H:7]"
O       -1.55314347       1.44856375       0.13897431
C       -1.54083656       0.28423212      -0.15188993
N       -0.47172950      -0.55476968       0.05571928
C        0.76327984      -0.07327125       0.48945085
C        1.93729361      -0.38377936      -0.84986711
N        1.84276420       0.79499920      -0.83584377
H       -2.40124109      -0.23871972      -0.60018235
H       -0.52031706      -1.48906372      -0.31462962
H        0.65694052       0.93079760       0.88580403
H        1.28698952      -0.71898894       1.18246431
10
Frame=1 idx=003934 GeodesicLength=0.061262112204903636 rxn_smarts="[O:1]=[C:2]([N:3]([C:4]([C:5]#[N:6])([H:9])[H:10])[H:8])[H:7]>>[O:1]=[C:2]([N:3]([C:4]([N+:6]#[C-:5])([H:9])[H:10])[H:8])[H:7]"
O       -1.55671739       1.44889601       0.12186655
C       -1.54864242       0.27967004      -0.15004379
N       -0.47195282      -0.55188706       0.04145769
C        0.76531617      -0.06752988       0.47324877
C        1.92051291      -0.37599242      -0.89206874
N        1.91642413       0.79912250      -0.78678434
H       -2.41655754      -0.25126940      -0.57385656
H       -0.53169331      -1.49770479      -0.29602911
H        0.64554058       0.92912536       0.88565588
H        1.27776969      -0.71243035       1.17655366
10
Frame=2 idx=003934 GeodesicLength=0.1222159588630988 rxn_smarts="[O:1]=[C:2]([N:3]([C:4]([C:5]#[N:6])([H:9])[H:10])[H:8])[H:7]>>[O:1]=[C:2]([N:3]([C:4]([N+:6]#[C-:5])([H:9])[H:10])[H:8])[H:7]"
O       -1.56319500       1.44773545       0.10919378
C       -1.55692021       0.27479724      -0.14758424
N       -0.47231760      -0.54879131       0.02667714
C        0.76700171      -0.06078170       0.45663740
C        1.90339612      -0.36329215      -0.93488084
N        1.99267864       0.79331450      -0.73544605
H       -2.43109112      -0.26398121      -0.54806132
H       -0.54139745      -1.50452841      -0.27918791
H        0.63477074       0.92974388       0.88129802
H        1.26707416      -0.70421629       1.17135402
10
Frame=3 idx=003934 GeodesicLength=0.18183368185577692 rxn_smarts="[O:1]=[C:2]([N:3]([C:4]([C:5]#[N:6])([H:9])[H:10])[H:8])[H:7]>>[O:1]=[C:2]([N:3]([C:4]([N+:6]#[C-:5])([H:9])[H:10])[H:8])[H:7]"
O       -1.57169015       1.44530529       0.10074456
C       -1.56510415       0.26962767      -0.14454205
N       -0.47303181      -0.54600320       0.01344236
C        0.76849813      -0.05340078       0.44044804
C        1.88501215      -0.34452538      -0.97852844
N        2.06834836       0.77726855      -0.68340947
H       -2.44355742      -0.27624241      -0.52564382
H       -0.54933019      -1.50991892      -0.26337968
H        0.62506168       0.93246792       0.87366479
H        1.25579340      -0.69457875       1.16720371
10
Frame=4 idx=003934 GeodesicLength=0.2389158052926169 rxn_smarts="[O:1]=[C:2]([N:3]([C:4]([C:5]#[N:6])([H:9])[H:10])[H:8])[H:7]>>[O:1]=[C:2]([N:3]([C:4]([N+:6]#[C-:5])([H:9])[H:10])[H:8])[H:7]"
O       -1.58016435       1.44240383       0.09352111
C       -1.57269532       0.26417469      -0.14061529
N       -0.47415073      -0.54408540       0.00331512
C        0.76995220      -0.04608081       0.42570772
C        1.86496833      -0.31834734      -1.02251636
N        2.13982129       0.75187646      -0.63259290
H       -2.45369042      -0.28772045      -0.50696350
H       -0.55534100      -1.51426917      -0.24893930
H        0.61658428       0.93642292       0.86457938
H        1.24471572      -0.68437473       1.16450401
10
Frame=5 idx=003934 GeodesicLength=0.2940405468661353 rxn_smarts="[O:1]=[C:2]([N:3]([C:4]([C:5]#[N:6])([H:9])[H:10])[H:8])[H:7]>>[O:1]=[C:2]([N:3]([C:4]([N+:6]#[C-:5])([H:9])[H:10])[H:8])[H:7]"
O       -1.59020485       1.43806478       0.09233552
C       -1.57969449       0.25838833      -0.13576403
N       -0.47552602      -0.54287030      -0.00295206
C        0.77153724      -0.03839730       0.41260688
C        1.84306879      -0.28591859      -1.06610848
N        2.20666360       0.71598676      -0.58553368
H       -2.46021775      -0.29782239      -0.49679200
H       -0.55933500      -1.51778756      -0.23525522
H        0.60983990       0.94263208       0.85318513
H        1.23386858      -0.67227581       1.16427793
10
Frame=6 idx=003934 GeodesicLength=0.3464778031599371 rxn_smarts="[O:1]=[C:2]([N:3]([C:4]([C:5]#[N:6])([H:9])[H:10])[H:8])[H:7]>>[O:1]=[C:2]([N:3]([C:4]([N+:6]#[C-:5])([H:9])[H:10])[H:8])[H:7]"
O       -1.59832749       1.43410358       0.08889198
C       -1.58601502       0.25226082      -0.12922421
N       -0.47685779      -0.54252481      -0.00671059
C        0.77323441      -0.03146540       0.40159487
C        1.82074199      -0.24552432      -1.10796464
N        2.26650031       0.67235764      -0.54235055
H       -2.46524615      -0.30727842      -0.48838156
H       -0.56138228      -1.52076276      -0.22409418
H        0.60419616       0.94905390       0.84196238
H        1.22315587      -0.66022023       1.16627650
10
Frame=7 idx=003934 GeodesicLength=0.3973885145718031 rxn_smarts="[O:1]=[C:2]([N:3]([C:4]([C:5]#[N:6])([H:9])[H:10])[H:8])[H:7]>>[O:1]=[C:2]([N:3]([C:4]([N+:6]#[C-:5])([H:9])[H:10])[H:8])[H:7]"
O       -1.60744676       1.42923551       0.08923753
C       -1.59086330       0.24664520      -0.12599773
N       -0.47773075      -0.54221711      -0.00946725
C        0.77500243      -0.02428575       0.39224058
C        1.79935550      -0.19932551      -1.14641040
N        2.32171258       0.61871206      -0.50349914
H       -2.46973520      -0.31742774      -0.47899128
H       -0.56089111      -1.52252893      -0.21757988
H        0.59961352       0.95740717       0.82879032
H        1.21098308      -0.64621491       1.17167724
10
Frame=8 idx=003934 GeodesicLength=0.44633187819912007 rxn_smarts="[O:1]=[C:2]([N:3]([C:4]([C:5]#[N:6])([H:9])[H:10])[H:8])[H:7]>>[O:1]=[C:2]([N:3]([C:4]([N+:6]#[C-:5])([H:9])[H:10])[H:8])[H:7]"
O       -1.61596365       1.42392880       0.09136928
C       -1.59528165       0.24047216      -0.12031082
N       -0.47831080      -0.54252821      -0.00956187
C        0.77703984      -0.01744266       0.38509414
C        1.77815042      -0.14754714      -1.18156193
N        2.36887764       0.55775145      -0.47202167
H       -2.47129124      -0.32614310      -0.47647348
H       -0.55869908      -1.52414513      -0.21224828
H        0.59624956       0.96648296       0.81575106
H        1.19922896      -0.63082914       1.17996357
10
Frame=9 idx=003934 GeodesicLength=0.4936440805276906 rxn_smarts="[O:1]=[C:2]([N:3]([C:4]([C:5]#[N:6])([H:9])[H:10])[H:8])[H:7]>>[O:1]=[C:2]([N:3]([C:4]([N+:6]#[C-:5])([H:9])[H:10])[H:8])[H:7]"
O       -1.62427317       1.41830655       0.09476140
C       -1.59889567       0.23431638      -0.11511565
N       -0.47826948      -0.54287270      -0.00946264
C        0.77920835      -0.01063385       0.37964271
C        1.75965853      -0.09150581      -1.21181546
N        2.40909362       0.48984566      -0.44704908
H       -2.47213111      -0.33491517      -0.47410951
H       -0.55459138      -1.52510803      -0.21044104
H        0.59351365       0.97637271       0.80254092
H        1.18668667      -0.61380573       1.19104833
10
Frame=10 idx=003934 GeodesicLength=0.5398017565653419 rxn_smarts="[O:1]=[C:2]([N:3]([C:4]([C:5]#[N:6])([H:9])[H:10])[H:8])[H:7]>>[O:1]=[C:2]([N:3]([C:4]([N+:6]#[C-:5])([H:9])[H:10])[H:8])[H:7]"
O       -1.63105499       1.41292033       0.09660445
C       -1.60049259       0.22878647      -0.11337403
N       -0.47782738      -0.54391761      -0.00624054
C        0.78154392      -0.00415225       0.37722312
C        1.74092082      -0.02966093      -1.23719424
N        2.44079828       0.41561831      -0.43013900
H       -2.47173988      -0.34383873      -0.47195734
H       -0.54845138      -1.52561094      -0.21141839
H        0.59107682       0.98601672       0.79187363
H        1.17522638      -0.59616137       1.20462234
10
Frame=11 idx=003934 GeodesicLength=0.5842858071041468 rxn_smarts="[O:1]=[C:2]([N:3]([C:4]([C:5]#[N:6])([H:9])[H:10])[H:8])[H:7]>>[O:1]=[C:2]([N:3]([C:4]([N+:6]#[C-:5])([H:9])[H:10])[H:8])[H:7]"
O       -1.63988001       1.40629404       0.10409365
C       -1.60332510       0.22221716      -0.10694436
N       -0.47643851      -0.54384074      -0.00595509
C        0.78387522       0.00338244       0.37469494
C        1.72970084       0.03081375      -1.25629119
N        2.46558154       0.33621925      -0.41984727
H       -2.46997192      -0.35205856      -0.47410854
H       -0.54089256      -1.52521244      -0.21421697
H        0.58887868       0.99749391       0.77908218
H        1.16247183      -0.57530879       1.21949263
10
Frame=12 idx=003934 GeodesicLength=0.6278611541296961 rxn_smarts="[O:1]=[C:2]([N:3]([C:4]([C:5]#[N:6])([H:9])[H:10])[H:8])[H:7]>>[O:1]=[C:2]([N:3]([C:4]([N+:6]#[C-:5])([H:9])[H:10])[H:8])[H:7]"
O       -1.64600567       1.40085377       0.10566924
C       -1.60416184       0.21643312      -0.10402287
N       -0.47470595      -0.54443837      -0.00263910
C        0.78625961       0.01059538       0.37532888
C        1.71923845       0.09558935      -1.26943220
N        2.48052683       0.25384576      -0.41805182
H       -2.46769274      -0.36080716      -0.47392645
H       -0.53165677      -1.52433413      -0.21934812
H        0.58613717       1.00767792       0.77120418
H        1.15206091      -0.55541564       1.23521826
10
Frame=13 idx=003934 GeodesicLength=0.6704894740020798 rxn_smarts="[O:1]=[C:2]([N:3]([C:4]([C:5]#[N:6])([H:9])[H:10])[H:8])[H:7]>>[O:1]=[C:2]([N:3]([C:4]([N+:6]#[C-:5])([H:9])[H:10])[H:8])[H:7]"
O       -1.65325139       1.39518229       0.10841362
C       -1.60552303       0.21047182      -0.10005737
N       -0.47210137      -0.54372577      -0.00316392
C        0.78845663       0.01895440       0.37580612
C        1.71807921       0.15783605      -1.27571128
N        2.48864736       0.16918766      -0.42082724
H       -2.46666352      -0.37067062      -0.46953670
H       -0.52104918      -1.52204277      -0.22829806
H        0.58268809       1.01893859       0.76275316
H        1.14071720      -0.53413165       1.25062166
10
Frame=14 idx=003934 GeodesicLength=0.712903643202979 rxn_smarts="[O:1]=[C:2]([N:3]([C:4]([C:5]#[N:6])([H:9])[H:10])[H:8])[H:7]>>[O:1]=[C:2]([N:3]([C:4]([N+:6]#[C-:5])([H:9])[H:10])[H:8])[H:7]"
O       -1.66021922       1.38938801       0.11103449
C       -1.60739000       0.20360950      -0.09193956
N       -0.46936934      -0.54312376      -0.00133199
C        0.79066355       0.02794432       0.37778082
C        1.72032270       0.21851657      -1.27699946
N        2.48707515       0.08432388      -0.43187271
H       -2.46256398      -0.37875327      -0.47337886
H       -0.50976953      -1.51960110      -0.23546292
H        0.57881807       1.03025798       0.75671228
H        1.13243260      -0.51256213       1.26545791
10
Frame=15 idx=003934 GeodesicLength=0.7557432570312699 rxn_smarts="[O:1]=[C:2]([N:3]([C:4]([C:5]#[N:6])([H:9])[H:10])[H:8])[H:7]>>[O:1]=[C:2]([N:3]([C:4]([N+:6]#[C-:5])([H:9])[H:10])[H:8])[H:7]"
O       -1.66796571       1.38353574       0.11387468
C       -1.60935432       0.19684954      -0.08413234
N       -0.46610386      -0.54150889      -0.00178746
C        0.79267576       0.03792796       0.37975141
C        1.73103607       0.27570035      -1.27227565
N        2.47823784      -0.00020765      -0.44686574
H       -2.45952197      -0.38788990      -0.47328404
H       -0.49752872      -1.51591148      -0.24526123
H        0.57405005       1.04223662       0.75082259
H        1.12447486      -0.49073230       1.27915778
10
Frame=16 idx=003934 GeodesicLength=0.7994359144474847 rxn_smarts="[O:1]=[C:2]([N:3]([C:4]([C:5]#[N:6])([H:9])[H:10])[H:8])[H:7]>>[O:1]=[C:2]([N:3]([C:4]([N+:6]#[C-:5])([H:9])[H:10])[H:8])[H:7]"
O       -1.67575905       1.37812823       0.11486517
C       -1.61111094       0.19051634      -0.07758819
N       -0.46249283      -0.53907305      -0.00420902
C        0.79448342       0.04848677       0.38178297
C        1.74989310       0.32922981      -1.26163051
N        2.46237261      -0.08234983      -0.46514991
H       -2.45820075      -0.39853409      -0.46711768
H       -0.48464105      -1.51099726      -0.25791481
H        0.56836808       1.05430100       0.74557757
H        1.11708740      -0.46970791       1.29138442
