12
Frame=0 idx=011030 GeodesicLength=0.0 rxn_smarts="[C:1](#[C:2][C@:3]1([H:9])[N:4]([H:10])[C@@:5]1([C:6]#[C:7][H:12])[H:11])[H:8]>>[C:1](#[C:2][C-:3]([N:4]([C:5](=[C:6]=[C+:7][H:12])[H:11])[H:10])[H:9])[H:8]"
C        1.39748516       2.36253043      -0.02637572
C        0.74085564       1.48414512      -0.51903280
C       -0.02507012       0.44416695      -1.08955598
N        0.39185987      -0.84517498      -1.12938568
C       -0.61969799      -1.38481110      -0.36695244
C       -0.83145464      -1.04290218       0.98919891
C       -1.03600281      -0.82285357       2.15549027
H        1.97866631       3.14264073       0.40555103
H       -0.94823363       0.68101843      -1.59615527
H        1.33913505      -1.17407533      -1.24129638
H       -1.18763688      -2.21950864      -0.76911417
H       -1.19990596      -0.62517591       3.18762828
12
Frame=1 idx=011030 GeodesicLength=0.026297946983750767 rxn_smarts="[C:1](#[C:2][C@:3]1([H:9])[N:4]([H:10])[C@@:5]1([C:6]#[C:7][H:12])[H:11])[H:8]>>[C:1](#[C:2][C-:3]([N:4]([C:5](=[C:6]=[C+:7][H:12])[H:11])[H:10])[H:9])[H:8]"
C        1.40500338       2.35342289      -0.02788513
C        0.74746591       1.48127606      -0.53010659
C       -0.03297555       0.44382431      -1.08707175
N        0.38864836      -0.84482456      -1.14217306
C       -0.61707100      -1.37756437      -0.36720686
C       -0.81671685      -1.04781433       0.99374323
C       -1.02824466      -0.82889637       2.15875597
H        1.98438052       3.14422073       0.38669734
H       -0.96085288       0.68832407      -1.58147936
H        1.34368459      -1.16039710      -1.22085525
H       -1.18291324      -2.21416144      -0.76779136
H       -1.23040857      -0.63740988       3.18537282
12
Frame=2 idx=011030 GeodesicLength=0.05241387408984853 rxn_smarts="[C:1](#[C:2][C@:3]1([H:9])[N:4]([H:10])[C@@:5]1([C:6]#[C:7][H:12])[H:11])[H:8]>>[C:1](#[C:2][C-:3]([N:4]([C:5](=[C:6]=[C+:7][H:12])[H:11])[H:10])[H:9])[H:8]"
C        1.41481258       2.34543410      -0.03201840
C        0.75213681       1.47816311      -0.53574315
C       -0.04211139       0.44363529      -1.08024560
N        0.38567772      -0.84345681      -1.15471323
C       -0.61224399      -1.37297335      -0.36742507
C       -0.79824392      -1.05946395       0.99927535
C       -1.02637018      -0.83386780       2.15965095
H        1.99306142       3.14560231       0.36587757
H       -0.97565862       0.69578673      -1.56013578
H        1.34711278      -1.14481651      -1.20565779
H       -1.17569442      -2.21088862      -0.76805009
H       -1.26247877      -0.64315452       3.17918525
12
Frame=3 idx=011030 GeodesicLength=0.07942764114447769 rxn_smarts="[C:1](#[C:2][C@:3]1([H:9])[N:4]([H:10])[C@@:5]1([C:6]#[C:7][H:12])[H:11])[H:8]>>[C:1](#[C:2][C-:3]([N:4]([C:5](=[C:6]=[C+:7][H:12])[H:11])[H:10])[H:9])[H:8]"
C        1.42670448       2.34256342      -0.04247023
C        0.75346732       1.47685799      -0.53453365
C       -0.05208751       0.44475563      -1.06870067
N        0.38370196      -0.83977903      -1.16398616
C       -0.60672211      -1.36909289      -0.36695704
C       -0.78176042      -1.07441023       1.00541810
C       -1.02750352      -0.84562806       2.16136870
H        2.01194007       3.14876820       0.33238776
H       -0.99084356       0.70378117      -1.53479886
H        1.35073500      -1.12605640      -1.18874623
H       -1.16618739      -2.20817112      -0.77016767
H       -1.30144432      -0.65358867       3.17118595
12
Frame=4 idx=011030 GeodesicLength=0.10767761462482933 rxn_smarts="[C:1](#[C:2][C@:3]1([H:9])[N:4]([H:10])[C@@:5]1([C:6]#[C:7][H:12])[H:11])[H:8]>>[C:1](#[C:2][C-:3]([N:4]([C:5](=[C:6]=[C+:7][H:12])[H:11])[H:10])[H:9])[H:8]"
C        1.44032731       2.34260716      -0.05639682
C        0.75293545       1.47628143      -0.52710044
C       -0.06235925       0.44662153      -1.05294989
N        0.38246575      -0.83448172      -1.17090461
C       -0.60089269      -1.36620537      -0.36651920
C       -0.76714401      -1.09305610       1.01149333
C       -1.03233623      -0.86499145       2.16312262
H        2.03600077       3.15385651       0.29007394
H       -1.00599478       0.71235345      -1.50546937
H        1.35420708      -1.10546912      -1.17093286
H       -1.15532790      -2.20588545      -0.77485870
H       -1.34188150      -0.66163087       3.16044200
12
Frame=5 idx=011030 GeodesicLength=0.13713890620405042 rxn_smarts="[C:1](#[C:2][C@:3]1([H:9])[N:4]([H:10])[C@@:5]1([C:6]#[C:7][H:12])[H:11])[H:8]>>[C:1](#[C:2][C-:3]([N:4]([C:5](=[C:6]=[C+:7][H:12])[H:11])[H:10])[H:9])[H:8]"
C        1.45512694       2.34602709      -0.07523138
C        0.75222879       1.47698754      -0.51690550
C       -0.07181405       0.44940029      -1.03501659
N        0.38219195      -0.82785793      -1.17499072
C       -0.59523522      -1.36240367      -0.36497599
C       -0.75504928      -1.11092984       1.01805449
C       -1.03937613      -0.88652484       2.16571303
H        2.06440220       3.16050748       0.23848296
H       -1.01968192       0.72150478      -1.47500008
H        1.35761551      -1.08417930      -1.15060472
H       -1.14409001      -2.20239828      -0.77965124
H       -1.38631878      -0.68013330       3.15012574
12
Frame=6 idx=011030 GeodesicLength=0.16543693601367374 rxn_smarts="[C:1](#[C:2][C@:3]1([H:9])[N:4]([H:10])[C@@:5]1([C:6]#[C:7][H:12])[H:11])[H:8]>>[C:1](#[C:2][C-:3]([N:4]([C:5](=[C:6]=[C+:7][H:12])[H:11])[H:10])[H:9])[H:8]"
C        1.46794597       2.34771843      -0.09172249
C        0.75348408       1.47695417      -0.51064112
C       -0.07974656       0.45126921      -1.01974574
N        0.38202316      -0.82254743      -1.17927813
C       -0.59043653      -1.35775519      -0.36340887
C       -0.74440609      -1.12549181       1.02379541
C       -1.04496559      -0.90620649       2.16819515
H        2.08577251       3.16558820       0.19532721
H       -1.03128409       0.72980128      -1.44791145
H        1.35993975      -1.06579368      -1.13112020
H       -1.13465562      -2.19781382      -0.78354017
H       -1.42367100      -0.69572286       3.14005041
12
Frame=7 idx=011030 GeodesicLength=0.192908242327993 rxn_smarts="[C:1](#[C:2][C@:3]1([H:9])[N:4]([H:10])[C@@:5]1([C:6]#[C:7][H:12])[H:11])[H:8]>>[C:1](#[C:2][C-:3]([N:4]([C:5](=[C:6]=[C+:7][H:12])[H:11])[H:10])[H:9])[H:8]"
C        1.47973840       2.34767087      -0.10695771
C        0.75630407       1.47638000      -0.50879986
C       -0.08669557       0.45229591      -1.00698762
N        0.38170347      -0.81843559      -1.18420570
C       -0.58589824      -1.35255694      -0.36150525
C       -0.73367365      -1.13723782       1.02928167
C       -1.04897136      -0.92203944       2.17039239
H        2.10126412       3.16915584       0.16117058
H       -1.04182182       0.73716500      -1.42312032
H        1.36119509      -1.04976670      -1.11361879
H       -1.12643048      -2.19264789      -0.78583925
H       -1.45671403      -0.70998323       3.13018987
12
Frame=8 idx=011030 GeodesicLength=0.22041795473536063 rxn_smarts="[C:1](#[C:2][C@:3]1([H:9])[N:4]([H:10])[C@@:5]1([C:6]#[C:7][H:12])[H:11])[H:8]>>[C:1](#[C:2][C-:3]([N:4]([C:5](=[C:6]=[C+:7][H:12])[H:11])[H:10])[H:9])[H:8]"
C        1.49102424       2.34816621      -0.12330144
C        0.75894708       1.47602414      -0.50698023
C       -0.09334477       0.45324483      -0.99406089
N        0.38167275      -0.81421065      -1.18856821
C       -0.58124690      -1.34739162      -0.35938877
C       -0.72360201      -1.14874691       1.03464327
C       -1.05372423      -0.93774439       2.17225894
H        2.11655969       3.17185751       0.12820052
H       -1.05197108       0.74417542      -1.39808869
H        1.36209767      -1.03400058      -1.09649043
H       -1.11804717      -2.18740429      -0.78813612
H       -1.48836527      -0.72396968       3.11991207
12
Frame=9 idx=011030 GeodesicLength=0.24800138281111894 rxn_smarts="[C:1](#[C:2][C@:3]1([H:9])[N:4]([H:10])[C@@:5]1([C:6]#[C:7][H:12])[H:11])[H:8]>>[C:1](#[C:2][C-:3]([N:4]([C:5](=[C:6]=[C+:7][H:12])[H:11])[H:10])[H:9])[H:8]"
C        1.50185285       2.34906579      -0.14070870
C        0.76146461       1.47584149      -0.50522721
C       -0.09980086       0.45411096      -0.98082844
N        0.38179170      -0.80984945      -1.19255711
C       -0.57636895      -1.34236225      -0.35703202
C       -0.71364816      -1.16033105       1.03999971
C       -1.05865540      -0.95380702       2.17395190
H        2.13161911       3.17372228       0.09662299
H       -1.06197319       0.75087205      -1.37232363
H        1.36261140      -1.01843780      -1.08009703
H       -1.10951304      -2.18212659      -0.79036251
H       -1.51938008      -0.73669840       3.10856203
12
Frame=10 idx=011030 GeodesicLength=0.276112978916037 rxn_smarts="[C:1](#[C:2][C@:3]1([H:9])[N:4]([H:10])[C@@:5]1([C:6]#[C:7][H:12])[H:11])[H:8]>>[C:1](#[C:2][C-:3]([N:4]([C:5](=[C:6]=[C+:7][H:12])[H:11])[H:10])[H:9])[H:8]"
C        1.51303894       2.35151321      -0.16091054
C        0.76403042       1.47628055      -0.50198210
C       -0.10577463       0.45545125      -0.96621171
N        0.38241404      -0.80475201      -1.19520617
C       -0.57136884      -1.33706802      -0.35411747
C       -0.70463875      -1.17199742       1.04565196
C       -1.06519354      -0.97117719       2.17573754
H        2.14862828       3.17599860       0.06090200
H       -1.07134662       0.75792138      -1.34512211
H        1.36308387      -1.00254282      -1.06292759
H       -1.10070871      -2.17627950      -0.79272758
H       -1.55216447      -0.75334801       3.09691378
12
Frame=11 idx=011030 GeodesicLength=0.3053144531577539 rxn_smarts="[C:1](#[C:2][C@:3]1([H:9])[N:4]([H:10])[C@@:5]1([C:6]#[C:7][H:12])[H:11])[H:8]>>[C:1](#[C:2][C-:3]([N:4]([C:5](=[C:6]=[C+:7][H:12])[H:11])[H:10])[H:9])[H:8]"
C        1.52396777       2.35709787      -0.18487673
C        0.76615267       1.47835712      -0.49593281
C       -0.11134274       0.45798049      -0.94911091
N        0.38401960      -0.79797146      -1.19547399
C       -0.56607312      -1.33108056      -0.35025842
C       -0.69716655      -1.18378990       1.05195828
C       -1.07465168      -0.99144405       2.17794881
H        2.17136467       3.17794777       0.01507661
H       -1.08009111       0.76577546      -1.31582103
H        1.36400054      -0.98510327      -1.04334764
H       -1.09087734      -2.16951220      -0.79536272
H       -1.58930271      -0.77825728       3.08520056
12
Frame=12 idx=011030 GeodesicLength=0.33555884152305826 rxn_smarts="[C:1](#[C:2][C@:3]1([H:9])[N:4]([H:10])[C@@:5]1([C:6]#[C:7][H:12])[H:11])[H:8]>>[C:1](#[C:2][C-:3]([N:4]([C:5](=[C:6]=[C+:7][H:12])[H:11])[H:10])[H:9])[H:8]"
C        1.53602452       2.36439637      -0.21267309
C        0.76966167       1.48122895      -0.48807811
C       -0.11575410       0.46144156      -0.92982332
N        0.38632422      -0.79013617      -1.19379278
C       -0.56079652      -1.32425198      -0.34540826
C       -0.69088740      -1.19533766       1.05898669
C       -1.08640174      -1.01353696       2.18051364
H        2.19576623       3.18130324      -0.03874212
H       -1.08745748       0.77484409      -1.28419053
H        1.36499962      -0.96748737      -1.02209603
H       -1.08120058      -2.16125175      -0.79793754
H       -1.63027843      -0.81121234       3.07324143
12
Frame=13 idx=011030 GeodesicLength=0.36694822391469134 rxn_smarts="[C:1](#[C:2][C@:3]1([H:9])[N:4]([H:10])[C@@:5]1([C:6]#[C:7][H:12])[H:11])[H:8]>>[C:1](#[C:2][C-:3]([N:4]([C:5](=[C:6]=[C+:7][H:12])[H:11])[H:10])[H:9])[H:8]"
C        1.54638443       2.37479943      -0.24368236
C        0.77284301       1.48607658      -0.47812053
C       -0.11976180       0.46617025      -0.90805043
N        0.38974716      -0.78044951      -1.18977636
C       -0.55504430      -1.31665149      -0.33963209
C       -0.68605347      -1.20699432       1.06659917
C       -1.10117005      -1.03843855       2.18309023
H        2.22545281       3.18197900      -0.10176603
H       -1.09434071       0.78465437      -1.25026389
H        1.36658125      -0.94813497      -0.99832626
H       -1.07020929      -2.15199207      -0.80079326
H       -1.67442905      -0.85101873       3.06072182
12
Frame=14 idx=011030 GeodesicLength=0.399878768886805 rxn_smarts="[C:1](#[C:2][C@:3]1([H:9])[N:4]([H:10])[C@@:5]1([C:6]#[C:7][H:12])[H:11])[H:8]>>[C:1](#[C:2][C-:3]([N:4]([C:5](=[C:6]=[C+:7][H:12])[H:11])[H:10])[H:9])[H:8]"
C        1.56018861       2.38500030      -0.27726621
C        0.77985517       1.49140719      -0.46667639
C       -0.12142979       0.47216007      -0.88329386
N        0.39389730      -0.76976176      -1.18338163
C       -0.54979516      -1.30757586      -0.33255219
C       -0.68272366      -1.21816270       1.07523154
C       -1.11873794      -1.06718217       2.18627149
H        2.25279687       3.18689137      -0.17652544
H       -1.09842700       0.79692661      -1.21302870
H        1.36813178      -0.92967571      -0.97234837
H       -1.06059347      -2.13993959      -0.80354013
H       -1.72316272      -0.90008775       3.04710989
12
Frame=15 idx=011030 GeodesicLength=0.4332338525987633 rxn_smarts="[C:1](#[C:2][C@:3]1([H:9])[N:4]([H:10])[C@@:5]1([C:6]#[C:7][H:12])[H:11])[H:8]>>[C:1](#[C:2][C-:3]([N:4]([C:5](=[C:6]=[C+:7][H:12])[H:11])[H:10])[H:9])[H:8]"
C        1.56741826       2.39990214      -0.31481922
C        0.78446981       1.49974883      -0.45713707
C       -0.12391549       0.47908525      -0.85833941
N        0.39896020      -0.75744844      -1.17557300
C       -0.54342285      -1.29767973      -0.32433174
C       -0.67948691      -1.22780317       1.08456635
C       -1.13708021      -1.09620417       2.18939905
H        2.28733230       3.18120644      -0.25028486
H       -1.10366146       0.80830221      -1.17588559
H        1.37028650      -0.90857642      -0.94489653
H       -1.04860895      -2.12774759      -0.80504178
H       -1.77229118      -0.95278536       3.03234380
12
Frame=16 idx=011030 GeodesicLength=0.4666332441382591 rxn_smarts="[C:1](#[C:2][C@:3]1([H:9])[N:4]([H:10])[C@@:5]1([C:6]#[C:7][H:12])[H:11])[H:8]>>[C:1](#[C:2][C-:3]([N:4]([C:5](=[C:6]=[C+:7][H:12])[H:11])[H:10])[H:9])[H:8]"
C        1.57936441       2.41095453      -0.35151727
C        0.79405813       1.50671712      -0.44886532
C       -0.12343237       0.48616034      -0.83330866
N        0.40414914      -0.74614038      -1.16694341
C       -0.53837243      -1.28639069      -0.31536223
C       -0.67790744      -1.23516055       1.09430870
C       -1.15638737      -1.12489775       2.19263366
H        2.31254433       3.18208703      -0.32714223
H       -1.10514997       0.82164948      -1.13862145
H        1.37181394      -0.89094706      -0.91697144
H       -1.03974763      -2.11299483      -0.80567591
H       -1.82093275      -1.01103723       3.01746556
