12
Frame=0 idx=004365 GeodesicLength=0.0 rxn_smarts="[O:1]=[C:2]([C@@:3]1([H:8])[C:4]([H:9])([H:10])[C:5]([H:11])([H:12])[O:6]1)[H:7]>>[O-:1][C:2](=[C:3]=[O+:6][C:5]([C:4]([H:8])([H:9])[H:10])([H:11])[H:12])[H:7]"
O        2.20306217      -0.85371356       0.13267585
C        1.56438608      -0.03504842       0.75998859
C        0.63697355       0.96300029       0.26759519
C       -0.44816942      -0.19539685      -1.03336885
C       -1.23234475      -0.05512654       0.28174426
O       -0.61079025       1.09553443       0.83476681
H        1.76632407       0.16211220       1.83827288
H        0.41718818       0.67874270      -1.02633842
H        0.04193555      -1.14563547      -1.21851878
H       -0.96098337       0.18665108      -1.91783515
H       -1.07777127      -0.92916488       0.92436998
H       -2.29981056       0.12804505       0.15664768
12
Frame=1 idx=004365 GeodesicLength=0.06508203285347676 rxn_smarts="[O:1]=[C:2]([C@@:3]1([H:8])[C:4]([H:9])([H:10])[C:5]([H:11])([H:12])[O:6]1)[H:7]>>[O-:1][C:2](=[C:3]=[O+:6][C:5]([C:4]([H:8])([H:9])[H:10])([H:11])[H:12])[H:7]"
O        2.21251805      -0.85146225       0.13951757
C        1.57099107      -0.03625339       0.76747944
C        0.64016018       0.95820397       0.26905879
C       -0.45067232      -0.19293639      -1.03536873
C       -1.23422058      -0.05638373       0.27922258
O       -0.60482066       1.09056868       0.83701053
H        1.76865560       0.15562504       1.84732975
H        0.41353798       0.69987108      -1.04512838
H        0.04389088      -1.14198181      -1.21629544
H       -0.97697511       0.16878051      -1.92010920
H       -1.08306080      -0.93114360       0.92124799
H       -2.30000428       0.13711188       0.15603511
12
Frame=2 idx=004365 GeodesicLength=0.1301616501099 rxn_smarts="[O:1]=[C:2]([C@@:3]1([H:8])[C:4]([H:9])([H:10])[C:5]([H:11])([H:12])[O:6]1)[H:7]>>[O-:1][C:2](=[C:3]=[O+:6][C:5]([C:4]([H:8])([H:9])[H:10])([H:11])[H:12])[H:7]"
O        2.22179622      -0.84960565       0.14673193
C        1.57762552      -0.03756224       0.77515220
C        0.64345123       0.95316837       0.27031848
C       -0.45325711      -0.19038155      -1.03750790
C       -1.23610637      -0.05766628       0.27664399
O       -0.59870435       1.08543285       0.83919672
H        1.77130147       0.14950231       1.85639032
H        0.40917147       0.72155684      -1.06390838
H        0.04589212      -1.13812272      -1.21425731
H       -0.99271121       0.15063824      -1.92220842
H       -1.08836106      -0.93320519       0.91796940
H       -2.30009792       0.14624502       0.15547898
12
Frame=3 idx=004365 GeodesicLength=0.19523785431700175 rxn_smarts="[O:1]=[C:2]([C@@:3]1([H:8])[C:4]([H:9])([H:10])[C:5]([H:11])([H:12])[O:6]1)[H:7]>>[O-:1][C:2](=[C:3]=[O+:6][C:5]([C:4]([H:8])([H:9])[H:10])([H:11])[H:12])[H:7]"
O        2.23088745      -0.84817042       0.15433346
C        1.58429497      -0.03896919       0.78300219
C        0.64685370       0.94789052       0.27136405
C       -0.45592554      -0.18773673      -1.03979162
C       -1.23799354      -0.05897463       0.27400716
O       -0.59243568       1.08013142       0.84130828
H        1.77424566       0.14374703       1.86546441
H        0.40406014       0.74382066      -1.08267102
H        0.04793614      -1.13406158      -1.21241105
H       -1.00818384       0.13223303      -1.92412904
H       -1.09365768      -0.93534485       0.91453816
H       -2.30008178       0.15543476       0.15498501
12
Frame=4 idx=004365 GeodesicLength=0.26031036546882047 rxn_smarts="[O:1]=[C:2]([C@@:3]1([H:8])[C:4]([H:9])([H:10])[C:5]([H:11])([H:12])[O:6]1)[H:7]>>[O-:1][C:2](=[C:3]=[O+:6][C:5]([C:4]([H:8])([H:9])[H:10])([H:11])[H:12])[H:7]"
O        2.23978131      -0.84718497       0.16233816
C        1.59100546      -0.04046774       0.79102484
C        0.65037479       0.94236728       0.27218495
C       -0.45867896      -0.18500646      -1.04222524
C       -1.23987360      -0.06030958       0.27131069
O       -0.58600917       1.07466913       0.84332760
H        1.77747352       0.13836390       1.87456050
H        0.39817463       0.76668243      -1.10140728
H        0.05001959      -1.12980230      -1.21076365
H       -1.02338453       0.11357590      -1.92586764
H       -1.09893620      -0.93755812       0.91095863
H       -2.29994683       0.16467052       0.15455846
12
Frame=5 idx=004365 GeodesicLength=0.3253903834363046 rxn_smarts="[O:1]=[C:2]([C@@:3]1([H:8])[C:4]([H:9])([H:10])[C:5]([H:11])([H:12])[O:6]1)[H:7]>>[O-:1][C:2](=[C:3]=[O+:6][C:5]([C:4]([H:8])([H:9])[H:10])([H:11])[H:12])[H:7]"
O        2.24846577      -0.84667877       0.17076290
C        1.59776484      -0.04205077       0.79921786
C        0.65402393       0.93659665       0.27277178
C       -0.46151990      -0.18219494      -1.04481556
C       -1.24173929      -0.06167272       0.26855263
O       -0.57941718       1.06905168       0.84523805
H        1.78097711       0.13336007       1.88368955
H        0.39148460       0.79016394      -1.12010682
H        0.05213574      -1.12534987      -1.20932286
H       -1.03830534       0.09467719      -1.92742547
H       -1.10418441      -0.93984295       0.90723596
H       -2.29968588       0.17394049       0.15420200
12
Frame=6 idx=004365 GeodesicLength=0.39044358778990385 rxn_smarts="[O:1]=[C:2]([C@@:3]1([H:8])[C:4]([H:9])([H:10])[C:5]([H:11])([H:12])[O:6]1)[H:7]>>[O-:1][C:2](=[C:3]=[O+:6][C:5]([C:4]([H:8])([H:9])[H:10])([H:11])[H:12])[H:7]"
O        2.25691193      -0.84669548       0.17963065
C        1.60457131      -0.04371034       0.80757104
C        0.65779940       0.93057098       0.27311371
C       -0.46444711      -0.17930848      -1.04756299
C       -1.24357850      -0.06306762       0.26573328
O       -0.57266383       1.06328093       0.84701864
H        1.78474517       0.12876118       1.89284152
H        0.38396413       0.81427046      -1.13875354
H        0.05427925      -1.12071016      -1.20809721
H       -1.05291920       0.07557643      -1.92879285
H       -1.10937691      -0.94219184       0.90337279
H       -2.29928563       0.18322395       0.15392494
12
Frame=7 idx=004365 GeodesicLength=0.4554755145585561 rxn_smarts="[O:1]=[C:2]([C@@:3]1([H:8])[C:4]([H:9])([H:10])[C:5]([H:11])([H:12])[O:6]1)[H:7]>>[O-:1][C:2](=[C:3]=[O+:6][C:5]([C:4]([H:8])([H:9])[H:10])([H:11])[H:12])[H:7]"
O        2.26510938      -0.84725705       0.18895397
C        1.61143312      -0.04543597       0.81608040
C        0.66171406       0.92429040       0.27319999
C       -0.46745789      -0.17635061      -1.05047435
C       -1.24537839      -0.06449221       0.26284851
O       -0.56573319       1.05736844       0.84865013
H        1.78874897       0.12455666       1.90202860
H        0.37557590       0.83902788      -1.15733021
H        0.05645159      -1.11588674      -1.20709299
H       -1.06723196       0.05626419      -1.92996406
H       -1.11449944      -0.94460099       0.89937101
H       -2.29873214       0.19251600       0.15372899
12
Frame=8 idx=004365 GeodesicLength=0.5205134006156804 rxn_smarts="[O:1]=[C:2]([C@@:3]1([H:8])[C:4]([H:9])([H:10])[C:5]([H:11])([H:12])[O:6]1)[H:7]>>[O-:1][C:2](=[C:3]=[O+:6][C:5]([C:4]([H:8])([H:9])[H:10])([H:11])[H:12])[H:7]"
O        2.27305480      -0.84839094       0.19875246
C        1.61836239      -0.04722273       0.82474461
C        0.66577724       0.91774789       0.27302260
C       -0.47055510      -0.17332814      -1.05355544
C       -1.24713981      -0.06594919       0.25989682
O       -0.55862303       1.05131419       0.85011953
H        1.79299958       0.12076204       1.91125797
H        0.36628782       0.86445465      -1.17582493
H        0.05864379      -1.11088868      -1.20631497
H       -1.08122864       0.03676061      -1.93094963
H       -1.11955078      -0.94706916       0.89523925
H       -2.29802826       0.20180945       0.15361171
12
Frame=9 idx=004365 GeodesicLength=0.585543453337598 rxn_smarts="[O:1]=[C:2]([C@@:3]1([H:8])[C:4]([H:9])([H:10])[C:5]([H:11])([H:12])[O:6]1)[H:7]>>[O-:1][C:2](=[C:3]=[O+:6][C:5]([C:4]([H:8])([H:9])[H:10])([H:11])[H:12])[H:7]"
O        2.28072523      -0.85013001       0.20904498
C        1.62536308      -0.04905964       0.83355554
C        0.66999441       0.91093904       0.27257152
C       -0.47373537      -0.17024722      -1.05680901
C       -1.24885016      -0.06743953       0.25687585
O       -0.55132725       1.04512535       0.85140676
H        1.79747924       0.11738674       1.92052725
H        0.35606568       0.89056358      -1.19421561
H        0.06085297      -1.10572359      -1.20576964
H       -1.09489618       0.01708389      -1.93174389
H       -1.12451156      -0.94959087       0.89097975
H       -2.29716009       0.21109227       0.15357649
12
Frame=10 idx=004365 GeodesicLength=0.6505692484650237 rxn_smarts="[O:1]=[C:2]([C@@:3]1([H:8])[C:4]([H:9])([H:10])[C:5]([H:11])([H:12])[O:6]1)[H:7]>>[O-:1][C:2](=[C:3]=[O+:6][C:5]([C:4]([H:8])([H:9])[H:10])([H:11])[H:12])[H:7]"
O        2.28810120      -0.85250808       0.21985381
C        1.63244339      -0.05093712       0.84250810
C        0.67437377       0.90385907       0.27183820
C       -0.47699685      -0.16711348      -1.06023944
C       -1.25050144      -0.06896522       0.25378260
O       -0.54384029       1.03880808       0.85249335
H        1.80218363       0.11444523       1.92983619
H        0.34487581       0.91736888      -1.21248071
H        0.06307361      -1.10040013      -1.20546382
H       -1.10822330      -0.00274604      -1.93234796
H       -1.12936867      -0.95216386       0.88659635
H       -2.29612085       0.22035267       0.15362332
12
Frame=11 idx=004365 GeodesicLength=0.7155852838391 rxn_smarts="[O:1]=[C:2]([C@@:3]1([H:8])[C:4]([H:9])([H:10])[C:5]([H:11])([H:12])[O:6]1)[H:7]>>[O-:1][C:2](=[C:3]=[O+:6][C:5]([C:4]([H:8])([H:9])[H:10])([H:11])[H:12])[H:7]"
O        2.29515456      -0.85555596       0.23119631
C        1.63960576      -0.05284521       0.85159540
C        0.67892120       0.89650067       0.27081525
C       -0.48033487      -0.16393427      -1.06385068
C       -1.25208307      -0.07052804       0.25061579
O       -0.53615608       1.03236650       0.85336379
H        1.80710604       0.11195487       1.93918306
H        0.33268475       0.94488034      -1.23059730
H        0.06530011      -1.09492765      -1.20540552
H       -1.12119242      -0.02270770      -1.93276435
H       -1.13410856      -0.95478268       0.88209418
H       -2.29489741       0.22957914       0.15375407
12
Frame=12 idx=004365 GeodesicLength=0.7805927009994322 rxn_smarts="[O:1]=[C:2]([C@@:3]1([H:8])[C:4]([H:9])([H:10])[C:5]([H:11])([H:12])[O:6]1)[H:7]>>[O-:1][C:2](=[C:3]=[O+:6][C:5]([C:4]([H:8])([H:9])[H:10])([H:11])[H:12])[H:7]"
O        2.30187345      -0.85929999       0.24309635
C        1.64685970      -0.05477974       0.86081201
C        0.68364105       0.88885662       0.26950070
C       -0.48374894      -0.16071857      -1.06764237
C       -1.25359435      -0.07213105       0.24736904
O       -0.52827634       1.02580363       0.85399953
H        1.81226497       0.10994135       1.94855646
H        0.31946579       0.97309939      -1.24853472
H        0.06751844      -1.08932539      -1.20559315
H       -1.13378593      -0.04275986      -1.93299777
H       -1.13872542      -0.95744660       0.87747617
H       -2.29349243       0.23876021       0.15395775
12
Frame=13 idx=004365 GeodesicLength=0.8455582894228963 rxn_smarts="[O:1]=[C:2]([C@@:3]1([H:8])[C:4]([H:9])([H:10])[C:5]([H:11])([H:12])[O:6]1)[H:7]>>[O-:1][C:2](=[C:3]=[O+:6][C:5]([C:4]([H:8])([H:9])[H:10])([H:11])[H:12])[H:7]"
O        2.30821590      -0.86377664       0.25557180
C        1.65420876      -0.05671904       0.87014061
C        0.68854136       0.88092236       0.26788027
C       -0.48722571      -0.15746815      -1.07161659
C       -1.25501135      -0.07377063       0.24404357
O       -0.52019035       1.01913432       0.85437743
H        1.81760679       0.10839481       1.95794965
H        0.30517616       1.00203823      -1.26626599
H        0.06974048      -1.08359091      -1.20603737
H       -1.14599376      -0.06290675      -1.93303642
H       -1.14318715      -0.96014163       0.87274467
H       -2.29188113       0.24788403       0.15424838
12
Frame=14 idx=004365 GeodesicLength=0.9105353629663295 rxn_smarts="[O:1]=[C:2]([C@@:3]1([H:8])[C:4]([H:9])([H:10])[C:5]([H:11])([H:12])[O:6]1)[H:7]>>[O-:1][C:2](=[C:3]=[O+:6][C:5]([C:4]([H:8])([H:9])[H:10])([H:11])[H:12])[H:7]"
O        2.31416157      -0.86901930       0.26865847
C        1.66166881      -0.05865918       0.87958606
C        0.69363611       0.87269185       0.26595264
C       -0.49076799      -0.15419102      -1.07578255
C       -1.25633583      -0.07545367       0.24063323
O       -0.51189045       1.01236052       0.85448557
H        1.82317307       0.10735192       1.96736804
H        0.28978093       1.03171326      -1.28376992
H        0.07194844      -1.07774308      -1.20674658
H       -1.15780966      -0.08311455      -1.93290528
H       -1.14749710      -0.96287756       0.86790628
H       -2.29006790       0.25694081       0.15461404
12
Frame=15 idx=004365 GeodesicLength=0.97550450819498 rxn_smarts="[O:1]=[C:2]([C@@:3]1([H:8])[C:4]([H:9])([H:10])[C:5]([H:11])([H:12])[O:6]1)[H:7]>>[O-:1][C:2](=[C:3]=[O+:6][C:5]([C:4]([H:8])([H:9])[H:10])([H:11])[H:12])[H:7]"
O        2.31967456      -0.87505918       0.28238123
C        1.66924429      -0.06059021       0.88913655
C        0.69893024       0.86415511       0.26371320
C       -0.49436618      -0.15089358      -1.08014025
C       -1.25755569      -0.07718023       0.23713425
O       -0.50337285       1.00548841       0.85430537
H        1.82895797       0.10683154       1.97679616
H        0.27324276       1.06212708      -1.30101181
H        0.07414145      -1.07179288      -1.20772535
H       -1.16921688      -0.10335967      -1.93260416
H       -1.15163917      -0.96564756       0.86296122
H       -2.28804048       0.26592117       0.15505359
12
Frame=16 idx=004365 GeodesicLength=1.0404659094051665 rxn_smarts="[O:1]=[C:2]([C@@:3]1([H:8])[C:4]([H:9])([H:10])[C:5]([H:11])([H:12])[O:6]1)[H:7]>>[O-:1][C:2](=[C:3]=[O+:6][C:5]([C:4]([H:8])([H:9])[H:10])([H:11])[H:12])[H:7]"
O        2.32471894      -0.88192662       0.29676975
C        1.67694345      -0.06250343       0.89878330
C        0.70443217       0.85530297       0.26115917
C       -0.49801234      -0.14758189      -1.08469212
C       -1.25866160      -0.07895158       0.23354226
O       -0.49463181       0.99852416       0.85382017
H        1.83496711       0.10685545       1.98622235
H        0.25552358       1.09328504      -1.31795929
H        0.07631514      -1.06575322      -1.20897930
H       -1.18020227      -0.12361813      -1.93214077
H       -1.15560203      -0.96844864       0.85791158
H       -2.28579034       0.27481591       0.15556291
