15
Frame=0 idx=005519 GeodesicLength=0.0 rxn_smarts="[C:1]([C:2](/[N:3]=[C:4](/[O:5][C:6]([H:13])([H:14])[H:15])[H:12])([H:10])[H:11])([H:7])([H:8])[H:9]>>[C:1]([H:7])([H:8])([H:9])[H:12].[C:2](=[N+:3]=[C-:4][O:5][C:6]([H:13])([H:14])[H:15])([H:10])[H:11]"
C        2.02030327       0.19996277       1.11001019
C        1.20931223      -0.12019184      -0.99839265
N       -0.09053135      -0.14464451      -0.77892416
C       -0.59896839      -0.02716100       0.37911002
O       -1.88519460      -0.00605765       0.64050017
C       -2.78279265      -0.10730061      -0.46715276
H        1.94840134       0.04936903       2.19363863
H        2.79210603      -0.48938135       0.77090283
H        2.35357517       1.22475693       0.94837647
H        1.71019616      -1.05153797      -1.24929226
H        1.65834256       0.79065800      -1.38542076
H        0.69611091       0.07794198       1.04045055
H       -3.78737892      -0.03855943      -0.05669993
H       -2.64328348      -1.06306871      -0.97497756
H       -2.60019823       0.70521435      -1.17212872
15
Frame=1 idx=005519 GeodesicLength=0.0652126088617637 rxn_smarts="[C:1]([C:2](/[N:3]=[C:4](/[O:5][C:6]([H:13])([H:14])[H:15])[H:12])([H:10])[H:11])([H:7])([H:8])[H:9]>>[C:1]([H:7])([H:8])([H:9])[H:12].[C:2](=[N+:3]=[C-:4][O:5][C:6]([H:13])([H:14])[H:15])([H:10])[H:11]"
C        2.03039811       0.20874061       1.10574140
C        1.20817968      -0.12766049      -0.98872122
N       -0.09400507      -0.14805650      -0.76911070
C       -0.60678184      -0.06143132       0.38933437
O       -1.89566106      -0.03706579       0.64195195
C       -2.78530731      -0.09867672      -0.47486929
H        1.97882303       0.06743907       2.19159120
H        2.81906271      -0.46430166       0.77131211
H        2.34262678       1.23945708       0.93771559
H        1.70021359      -1.06544420      -1.23517463
H        1.64881096       0.77474288      -1.40418108
H        0.68716632       0.05323096       1.06891457
H       -3.79252356      -0.03755679      -0.06970159
H       -2.64765331      -1.03838010      -1.01246910
H       -2.59334902       0.73496297      -1.15233358
15
Frame=2 idx=005519 GeodesicLength=0.13028474091152425 rxn_smarts="[C:1]([C:2](/[N:3]=[C:4](/[O:5][C:6]([H:13])([H:14])[H:15])[H:12])([H:10])[H:11])([H:7])([H:8])[H:9]>>[C:1]([H:7])([H:8])([H:9])[H:12].[C:2](=[N+:3]=[C-:4][O:5][C:6]([H:13])([H:14])[H:15])([H:10])[H:11]"
C        2.03990045       0.21666889       1.10148932
C        1.20728858      -0.13407193      -0.97957622
N       -0.09726865      -0.14839083      -0.75976428
C       -0.61438017      -0.09229936       0.39827550
O       -1.90582250      -0.06629726       0.64247096
C       -2.78738151      -0.09090696      -0.48198380
H        2.00704882       0.08501074       2.18908770
H        2.84420670      -0.44071636       0.77175259
H        2.33282039       1.25240606       0.92762224
H        1.68908840      -1.07898145      -1.22112897
H        1.64103238       0.75832003      -1.42303352
H        0.67820866       0.02927089       1.09701118
H       -3.79725318      -0.03848388      -0.08224859
H       -2.64975836      -1.01398629      -1.04773081
H       -2.58773000       0.76245770      -1.13224330
15
Frame=3 idx=005519 GeodesicLength=0.19532719662933176 rxn_smarts="[C:1]([C:2](/[N:3]=[C:4](/[O:5][C:6]([H:13])([H:14])[H:15])[H:12])([H:10])[H:11])([H:7])([H:8])[H:9]>>[C:1]([H:7])([H:8])([H:9])[H:12].[C:2](=[N+:3]=[C-:4][O:5][C:6]([H:13])([H:14])[H:15])([H:10])[H:11]"
C        2.04860741       0.22499173       1.09706801
C        1.20669162      -0.14081933      -0.97083707
N       -0.10017325      -0.15018107      -0.75045342
C       -0.62159939      -0.12514220       0.40642265
O       -1.91551480      -0.09675912       0.64234766
C       -2.78883557      -0.08250086      -0.48855595
H        2.03339179       0.10347633       2.18604707
H        2.86883357      -0.41564410       0.77210885
H        2.32145344       1.26556280       0.91748797
H        1.67911741      -1.09240007      -1.20690212
H        1.63272113       0.74095956      -1.44222236
H        0.66927174       0.00418486       1.12488846
H       -3.80131460      -0.03825971      -0.09447855
H       -2.65161540      -0.98764349      -1.08276315
H       -2.58103510       0.79017468      -1.11015803
15
Frame=4 idx=005519 GeodesicLength=0.2601828464840479 rxn_smarts="[C:1]([C:2](/[N:3]=[C:4](/[O:5][C:6]([H:13])([H:14])[H:15])[H:12])([H:10])[H:11])([H:7])([H:8])[H:9]>>[C:1]([H:7])([H:8])([H:9])[H:12].[C:2](=[N+:3]=[C-:4][O:5][C:6]([H:13])([H:14])[H:15])([H:10])[H:11]"
C        2.05674575       0.23298474       1.09258608
C        1.20634607      -0.14709776      -0.96256473
N       -0.10280141      -0.15107543      -0.74137148
C       -0.62854257      -0.15692195       0.41346741
O       -1.92486371      -0.12663773       0.64130263
C       -2.78979689      -0.07431236      -0.49455094
H        2.05770566       0.12189697       2.18258640
H        2.89224128      -0.39085241       0.77248848
H        2.31018201       1.27783556       0.90764225
H        1.66911533      -1.10542777      -1.19273586
H        1.62498829       0.72303071      -1.46154491
H        0.66027401      -0.02076561       1.15243142
H       -3.80487251      -0.03847929      -0.10635053
H       -2.65218880      -0.96069130      -1.11623109
H       -2.57453250       0.81651364      -1.08715514
15
Frame=5 idx=005519 GeodesicLength=0.3251887710554352 rxn_smarts="[C:1]([C:2](/[N:3]=[C:4](/[O:5][C:6]([H:13])([H:14])[H:15])[H:12])([H:10])[H:11])([H:7])([H:8])[H:9]>>[C:1]([H:7])([H:8])([H:9])[H:12].[C:2](=[N+:3]=[C-:4][O:5][C:6]([H:13])([H:14])[H:15])([H:10])[H:11]"
C        2.06400770       0.24176989       1.08785591
C        1.20635814      -0.15416685      -0.95467926
N       -0.10502533      -0.15475200      -0.73233904
C       -0.63505978      -0.19194180       0.41968255
O       -1.93368034      -0.15871546       0.63964577
C       -2.79004142      -0.06505981      -0.49995276
H        2.08002647       0.14166438       2.17861287
H        2.91533478      -0.36377400       0.77285870
H        2.29665848       1.29081461       0.89749896
H        1.66097395      -1.11851976      -1.17830342
H        1.61617635       0.70387993      -1.48126739
H        0.65119214      -0.04719268       1.17973223
H       -3.80765132      -0.03677239      -0.11782861
H       -2.65298208      -0.93099911      -1.15004878
H       -2.56628775       0.84376506      -1.06146773
15
Frame=6 idx=005519 GeodesicLength=0.3900472924189819 rxn_smarts="[C:1]([C:2](/[N:3]=[C:4](/[O:5][C:6]([H:13])([H:14])[H:15])[H:12])([H:10])[H:11])([H:7])([H:8])[H:9]>>[C:1]([H:7])([H:8])([H:9])[H:12].[C:2](=[N+:3]=[C-:4][O:5][C:6]([H:13])([H:14])[H:15])([H:10])[H:11]"
C        2.07086509       0.25012250       1.08306017
C        1.20659878      -0.16062783      -0.94724190
N       -0.10700647      -0.15734564      -0.72355056
C       -0.64135112      -0.22536457       0.42477000
O       -1.94221951      -0.18979541       0.63699962
C       -2.78985331      -0.05617132      -0.50480193
H        2.10039546       0.16108332       2.17429790
H        2.93719978      -0.33727261       0.77327548
H        2.28360094       1.30278674       0.88767848
H        1.65269886      -1.13109455      -1.16404403
H        1.60796169       0.68429415      -1.50100862
H        0.64193718      -0.07320575       1.20671051
H       -3.80998802      -0.03564494      -0.12897641
H       -2.65242059      -0.90102870      -1.18195889
H       -2.55841876       0.86926461      -1.03520980
15
Frame=7 idx=005519 GeodesicLength=0.45498362771530787 rxn_smarts="[C:1]([C:2](/[N:3]=[C:4](/[O:5][C:6]([H:13])([H:14])[H:15])[H:12])([H:10])[H:11])([H:7])([H:8])[H:9]>>[C:1]([H:7])([H:8])([H:9])[H:12].[C:2](=[N+:3]=[C-:4][O:5][C:6]([H:13])([H:14])[H:15])([H:10])[H:11]"
C        2.07721674       0.25858276       1.07809480
C        1.20711508      -0.16708322      -0.94019806
N       -0.10869360      -0.16053294      -0.71492957
C       -0.64736082      -0.25910200       0.42887599
O       -1.95041542      -0.22118823       0.63350563
C       -2.78914628      -0.04705842      -0.50910577
H        2.11886403       0.18080152       2.16960256
H        2.95828204      -0.31016164       0.77372751
H        2.26996210       1.31450893       0.87788156
H        1.64513339      -1.14340886      -1.14977013
H        1.59960615       0.66390842      -1.52088822
H        0.63246129      -0.09954820       1.23344764
H       -3.81177499      -0.03404051      -0.13980543
H       -2.65118777      -0.86977568      -1.21290003
H       -2.55006195       0.89409808      -1.00753848
15
Frame=8 idx=005519 GeodesicLength=0.5199288628073772 rxn_smarts="[C:1]([C:2](/[N:3]=[C:4](/[O:5][C:6]([H:13])([H:14])[H:15])[H:12])([H:10])[H:11])([H:7])([H:8])[H:9]>>[C:1]([H:7])([H:8])([H:9])[H:12].[C:2](=[N+:3]=[C-:4][O:5][C:6]([H:13])([H:14])[H:15])([H:10])[H:11]"
C        2.08331716       0.26681342       1.07300325
C        1.20783623      -0.17312789      -0.93352029
N       -0.11015524      -0.16329445      -0.70643739
C       -0.65316890      -0.29182731       0.43206866
O       -1.95837211      -0.25195722       0.62914123
C       -2.78806429      -0.03812981      -0.51295051
H        2.13563629       0.20026634       2.16458321
H        2.97848436      -0.28324966       0.77417411
H        2.25659652       1.32556543       0.86828875
H        1.63770922      -1.15525226      -1.13561274
H        1.59144803       0.64300791      -1.54074781
H        0.62271530      -0.12569369       1.26000008
H       -3.81317416      -0.03261874      -0.15042536
H       -2.64894402      -0.83808477      -1.24230623
H       -2.54186440       0.91758271      -0.97925897
15
Frame=9 idx=005519 GeodesicLength=0.5849045312554838 rxn_smarts="[C:1]([C:2](/[N:3]=[C:4](/[O:5][C:6]([H:13])([H:14])[H:15])[H:12])([H:10])[H:11])([H:7])([H:8])[H:9]>>[C:1]([H:7])([H:8])([H:9])[H:12].[C:2](=[N+:3]=[C-:4][O:5][C:6]([H:13])([H:14])[H:15])([H:10])[H:11]"
C        2.08875601       0.27558603       1.06767488
C        1.20889427      -0.17965024      -0.92722412
N       -0.11128542      -0.16763888      -0.69820484
C       -0.65864798      -0.32593352       0.43430085
O       -1.96596411      -0.28430261       0.62382455
C       -2.78637306      -0.02857796      -0.51618033
H        2.15042449       0.22056023       2.15916155
H        2.99807144      -0.25497624       0.77476049
H        2.24207794       1.33684133       0.85839202
H        1.63148147      -1.16718164      -1.12119920
H        1.58287417       0.62082416      -1.56092528
H        0.61258050      -0.15237478       1.28628038
H       -3.81396570      -0.03024250      -0.16073223
H       -2.64633084      -0.80400315      -1.27141773
H       -2.53259317       0.94106975      -0.94851100
15
Frame=10 idx=005519 GeodesicLength=0.6498428532537915 rxn_smarts="[C:1]([C:2](/[N:3]=[C:4](/[O:5][C:6]([H:13])([H:14])[H:15])[H:12])([H:10])[H:11])([H:7])([H:8])[H:9]>>[C:1]([H:7])([H:8])([H:9])[H:12].[C:2](=[N+:3]=[C-:4][O:5][C:6]([H:13])([H:14])[H:15])([H:10])[H:11]"
C        2.09432937       0.28382234       1.06225307
C        1.21004571      -0.18533313      -0.92122683
N       -0.11228797      -0.17057817      -0.68997932
C       -0.66403499      -0.35780468       0.43580558
O       -1.97345102      -0.31498676       0.61770738
C       -2.78452712      -0.01961533      -0.51912771
H        2.16398573       0.23993423       2.15351236
H        3.01686385      -0.22766842       0.77528630
H        2.22875681       1.34714000       0.84888555
H        1.62481167      -1.17837224      -1.10706552
H        1.57468528       0.59848441      -1.58086396
H        0.60211147      -0.17842224       1.31250999
H       -3.81460627      -0.02864085      -0.17107215
H       -2.64251822      -0.77046929      -1.29845067
H       -2.52416432       0.96251013      -0.91817407
15
Frame=11 idx=005519 GeodesicLength=0.7148344250965173 rxn_smarts="[C:1]([C:2](/[N:3]=[C:4](/[O:5][C:6]([H:13])([H:14])[H:15])[H:12])([H:10])[H:11])([H:7])([H:8])[H:9]>>[C:1]([H:7])([H:8])([H:9])[H:12].[C:2](=[N+:3]=[C-:4][O:5][C:6]([H:13])([H:14])[H:15])([H:10])[H:11]"
C        2.09973176       0.29210544       1.05661828
C        1.21140345      -0.19084950      -0.91554415
N       -0.11306933      -0.17372855      -0.68186501
C       -0.66923937      -0.38930250       0.43650279
O       -1.98072348      -0.34541017       0.61072016
C       -2.78231305      -0.01061459      -0.52165895
H        2.17604827       0.25914479       2.14756187
H        3.03507516      -0.20001742       0.77579507
H        2.21534855       1.35717069       0.83943251
H        1.61858289      -1.18921066      -1.09294328
H        1.56638279       0.57542974      -1.60075775
H        0.59122923      -0.20467540       1.33864979
H       -3.81486535      -0.02676733      -0.18129290
H       -2.63800179      -0.73616103      -1.32420032
H       -2.51558971       0.98288650      -0.88701810
15
Frame=12 idx=005519 GeodesicLength=0.7798232419375593 rxn_smarts="[C:1]([C:2](/[N:3]=[C:4](/[O:5][C:6]([H:13])([H:14])[H:15])[H:12])([H:10])[H:11])([H:7])([H:8])[H:9]>>[C:1]([H:7])([H:8])([H:9])[H:12].[C:2](=[N+:3]=[C-:4][O:5][C:6]([H:13])([H:14])[H:15])([H:10])[H:11]"
C        2.10517304       0.30023361       1.05079147
C        1.21289372      -0.19592671      -0.91014283
N       -0.11368658      -0.17648154      -0.67377681
C       -0.67432854      -0.41973414       0.43650572
O       -1.98785482      -0.37486069       0.60293994
C       -2.77983940      -0.00182188      -0.52387636
H        2.18687799       0.27777757       2.14134958
H        3.05274271      -0.17247137       0.77622191
H        2.20234323       1.36674269       0.83018385
H        1.61244331      -1.19950974      -1.07894497
H        1.55807672       0.55193836      -1.62045776
H        0.57991510      -0.23096595       1.36477158
H       -3.81484436      -0.02493047      -0.19147952
H       -2.63265968      -0.70179518      -1.34830918
H       -2.50725244       1.00180546      -0.85577663
15
Frame=13 idx=005519 GeodesicLength=0.8448726376472647 rxn_smarts="[C:1]([C:2](/[N:3]=[C:4](/[O:5][C:6]([H:13])([H:14])[H:15])[H:12])([H:10])[H:11])([H:7])([H:8])[H:9]>>[C:1]([H:7])([H:8])([H:9])[H:12].[C:2](=[N+:3]=[C-:4][O:5][C:6]([H:13])([H:14])[H:15])([H:10])[H:11]"
C        2.11052211       0.30851719       1.04470321
C        1.21457656      -0.20091305      -0.90502142
N       -0.11409925      -0.17956811      -0.66576666
C       -0.67926164      -0.44993974       0.43578993
O       -1.99479783      -0.40410634       0.59434597
C       -2.77702268       0.00706849      -0.52572995
H        2.19638644       0.29623512       2.13484134
H        3.06997707      -0.14439009       0.77659957
H        2.18917271       1.37619503       0.82094318
H        1.60678233      -1.20951366      -1.06489435
H        1.54955990       0.52765085      -1.64006359
H        0.56810982      -0.25766980       1.39086903
H       -3.81446824      -0.02271066      -0.20160841
H       -2.62672402      -0.66663510      -1.37125187
H       -2.49871328       1.01977988      -0.82375597
15
Frame=14 idx=005519 GeodesicLength=0.909954355194935 rxn_smarts="[C:1]([C:2](/[N:3]=[C:4](/[O:5][C:6]([H:13])([H:14])[H:15])[H:12])([H:10])[H:11])([H:7])([H:8])[H:9]>>[C:1]([H:7])([H:8])([H:9])[H:12].[C:2](=[N+:3]=[C-:4][O:5][C:6]([H:13])([H:14])[H:15])([H:10])[H:11]"
C        2.11578057       0.31702038       1.03831788
C        1.21646091      -0.20586809      -0.90018093
N       -0.11429969      -0.18300533      -0.65785517
C       -0.68404019      -0.47996617       0.43434599
O       -2.00156427      -0.43330585       0.58485429
C       -2.77384793       0.01608885      -0.52719746
H        2.20456067       0.31457780       2.12801950
H        3.08677669      -0.11569598       0.77694034
H        2.17579990       1.38558018       0.81163701
H        1.60160886      -1.21929463      -1.05071685
H        1.54087537       0.50243480      -1.65959023
H        0.55573033      -0.28480234       1.41694782
H       -3.81372336      -0.02012464      -0.21168254
H       -2.62015385      -0.63048677      -1.39308740
H       -2.48996402       1.03684779      -0.79075226
15
Frame=15 idx=005519 GeodesicLength=0.9749988034646274 rxn_smarts="[C:1]([C:2](/[N:3]=[C:4](/[O:5][C:6]([H:13])([H:14])[H:15])[H:12])([H:10])[H:11])([H:7])([H:8])[H:9]>>[C:1]([H:7])([H:8])([H:9])[H:12].[C:2](=[N+:3]=[C-:4][O:5][C:6]([H:13])([H:14])[H:15])([H:10])[H:11]"
C        2.12125161       0.32545178       1.03167478
C        1.21843778      -0.21038980      -0.89557364
N       -0.11436574      -0.18601033      -0.64987891
C       -0.68874889      -0.50894327       0.43236929
O       -2.00822960      -0.46143941       0.57468171
C       -2.77048967       0.02490418      -0.52845178
H        2.21181572       0.33219231       2.12093407
H        3.10324571      -0.08697542       0.77711917
H        2.16287834       1.39464317       0.80252816
H        1.59646919      -1.22854542      -1.03660730
H        1.53209141       0.47677240      -1.67880107
H        0.54280186      -0.31218369       1.44312861
H       -3.81277750      -0.01752900      -0.22184069
H       -2.61286407      -0.59446907      -1.41335700
H       -2.48151614       1.05252158      -0.75792539
15
Frame=16 idx=005519 GeodesicLength=1.0399918792130105 rxn_smarts="[C:1]([C:2](/[N:3]=[C:4](/[O:5][C:6]([H:13])([H:14])[H:15])[H:12])([H:10])[H:11])([H:7])([H:8])[H:9]>>[C:1]([H:7])([H:8])([H:9])[H:12].[C:2](=[N+:3]=[C-:4][O:5][C:6]([H:13])([H:14])[H:15])([H:10])[H:11]"
C        2.12695279       0.33389534       1.02473836
C        1.22050853      -0.21455475      -0.89118814
N       -0.11429328      -0.18870023      -0.64181391
C       -0.69339013      -0.53702711       0.42989708
O       -2.01479484      -0.48866394       0.56383955
C       -2.76694912       0.03357758      -0.52950868
H        2.21820693       0.34913177       2.11356907
H        3.11944831      -0.05807199       0.77712189
H        2.15032123       1.40347933       0.79356357
H        1.59141401      -1.23732608      -1.02250112
H        1.52315139       0.45057221      -1.69768893
H        0.52927469      -0.33993139       1.46944240
H       -3.81163412      -0.01485697      -0.23211995
H       -2.60490012      -0.55843746      -1.43218920
H       -2.47331626       1.06691369      -0.72516199
