14
Frame=0 idx=005802 GeodesicLength=0.0 rxn_smarts="[C:1]([C@:2]12[C:3]([H:10])([H:11])[C:4]([H:12])([H:13])[C@@:5]1([H:14])[O:6]2)([H:7])([H:8])[H:9]>>[C:1]([C:2](=[C:3]([H:10])[H:11])[O:6][C:5](=[C:4]([H:12])[H:13])[H:14])([H:7])([H:8])[H:9]"
C       -1.47410390       0.56899262       0.26804206
C       -0.40424586      -0.42578877      -0.05875036
C        0.34234232      -1.00039663       0.97892765
C        1.45608220       0.12670164      -0.36339037
C        0.61844974       0.26570349      -1.54129287
O       -0.34180894      -0.84669282      -1.34097772
H       -1.16787575       1.24993022       1.06128705
H       -2.32075737      -0.01432065       0.64234545
H       -1.78856307       1.12666724      -0.61011157
H        0.22417583      -0.59472645       1.97240836
H        0.80613272      -1.96639212       0.85487843
H        1.83595027       1.02007416       0.12630845
H        2.13666881      -0.71331127      -0.34376490
H        0.07755299       1.20355930      -1.64590964
14
Frame=1 idx=005802 GeodesicLength=0.06859553076981609 rxn_smarts="[C:1]([C@:2]12[C:3]([H:10])([H:11])[C:4]([H:12])([H:13])[C@@:5]1([H:14])[O:6]2)([H:7])([H:8])[H:9]>>[C:1]([C:2](=[C:3]([H:10])[H:11])[O:6][C:5](=[C:4]([H:12])[H:13])[H:14])([H:7])([H:8])[H:9]"
C       -1.48568853       0.56807262       0.27554780
C       -0.41062700      -0.41976225      -0.05184382
C        0.34600058      -0.99780467       0.97782443
C        1.47003582       0.13125523      -0.36646882
C        0.61667284       0.25473015      -1.53091150
O       -0.34569386      -0.84670178      -1.33489461
H       -1.19208665       1.23652633       1.08407922
H       -2.33989287      -0.01903494       0.62564506
H       -1.78507171       1.14280176      -0.59710259
H        0.23318139      -0.59874212       1.97497684
H        0.78978362      -1.97348655       0.85260484
H        1.85694017       1.03197227       0.10354846
H        2.15313084      -0.70660048      -0.33948970
H        0.09331535       1.19677442      -1.67351560
14
Frame=2 idx=005802 GeodesicLength=0.13716756378950665 rxn_smarts="[C:1]([C@:2]12[C:3]([H:10])([H:11])[C:4]([H:12])([H:13])[C@@:5]1([H:14])[O:6]2)([H:7])([H:8])[H:9]>>[C:1]([C:2](=[C:3]([H:10])[H:11])[O:6][C:5](=[C:4]([H:12])[H:13])[H:14])([H:7])([H:8])[H:9]"
C       -1.49756798       0.56700555       0.28332695
C       -0.41717779      -0.41366786      -0.04475494
C        0.34964831      -0.99507472       0.97670392
C        1.48411633       0.13593397      -0.36967194
C        0.61482040       0.24429169      -1.51995409
O       -0.34960041      -0.84637570      -1.32871563
H       -1.21728270       1.22183101       1.10762498
H       -2.35926560      -0.02361425       0.60784827
H       -1.78098133       1.15962014      -0.58292077
H        0.24231105      -0.60259797       1.97745623
H        0.77322344      -1.98008800       0.85070367
H        1.87833892       1.04370821       0.07991957
H        2.16964718      -0.69974858      -0.33540821
H        0.10977018       1.18877650      -1.70215801
14
Frame=3 idx=005802 GeodesicLength=0.20570523216529657 rxn_smarts="[C:1]([C@:2]12[C:3]([H:10])([H:11])[C:4]([H:12])([H:13])[C@@:5]1([H:14])[O:6]2)([H:7])([H:8])[H:9]>>[C:1]([C:2](=[C:3]([H:10])[H:11])[O:6][C:5](=[C:4]([H:12])[H:13])[H:14])([H:7])([H:8])[H:9]"
C       -1.50975378       0.56578250       0.29138449
C       -0.42391096      -0.40751229      -0.03747824
C        0.35327758      -0.99219948       0.97556872
C        1.49831443       0.14075820      -0.37300109
C        0.61287231       0.23446851      -1.50839520
O       -0.35350887      -0.84567865      -1.32245109
H       -1.24350723       1.20574551       1.13189241
H       -2.37884782      -0.02798324       0.58890315
H       -1.77628377       1.17711516      -0.56744508
H        0.25156110      -0.60627105       1.97984283
H        0.75645974      -1.98618360       0.84918993
H        1.90014721       1.05525812       0.05539996
H        2.18620433      -0.69274236      -0.33154440
H        0.12697572       1.17944267      -1.73186638
14
Frame=4 idx=005802 GeodesicLength=0.2741977194910227 rxn_smarts="[C:1]([C@:2]12[C:3]([H:10])([H:11])[C:4]([H:12])([H:13])[C@@:5]1([H:14])[O:6]2)([H:7])([H:8])[H:9]>>[C:1]([C:2](=[C:3]([H:10])[H:11])[O:6][C:5](=[C:4]([H:12])[H:13])[H:14])([H:7])([H:8])[H:9]"
C       -1.52225966       0.56439326       0.29972543
C       -0.43084037      -0.40130181      -0.03000819
C        0.35688005      -0.98916958       0.97442095
C        1.51262067       0.14574997      -0.37645863
C        0.61080612       0.22535470      -1.49620697
O       -0.35739568      -0.84456846      -1.31611272
H       -1.27080566       1.18816660       1.15683844
H       -2.39860714      -0.03205892       0.56876183
H       -1.77098080       1.19526987      -0.55054374
H        0.26092756      -0.60973463       1.98213194
H        0.73949902      -1.99175895       0.84807824
H        1.92236772       1.06659411       0.02996920
H        2.20278582      -0.68557023      -0.32792863
H        0.14500234       1.16863406      -1.76266716
14
Frame=5 idx=005802 GeodesicLength=0.3426339419232734 rxn_smarts="[C:1]([C@:2]12[C:3]([H:10])([H:11])[C:4]([H:12])([H:13])[C@@:5]1([H:14])[O:6]2)([H:7])([H:8])[H:9]>>[C:1]([C:2](=[C:3]([H:10])[H:11])[O:6][C:5](=[C:4]([H:12])[H:13])[H:14])([H:7])([H:8])[H:9]"
C       -1.53510290       0.56282615       0.30835444
C       -0.43798158      -0.39504129      -0.02233936
C        0.36044683      -0.98597278       0.97326276
C        1.52702581       0.15093184      -0.38004889
C        0.60859431       0.21706150      -1.48335924
O       -0.36123520      -0.84299559      -1.30971401
H       -1.29922665       1.16898797       1.18240739
H       -2.41850658      -0.03575205       0.54738129
H       -1.76509073       1.21405307      -0.53207620
H        0.27040732      -0.61295572       1.98431815
H        0.72234977      -1.99679642       0.84738369
H        1.94500976       1.07768181       0.00360835
H        2.21937039      -0.67822571      -0.32460054
H        0.16393944       1.15619720      -1.79457783
14
Frame=6 idx=005802 GeodesicLength=0.41100263852743124 rxn_smarts="[C:1]([C@:2]12[C:3]([H:10])([H:11])[C:4]([H:12])([H:13])[C@@:5]1([H:14])[O:6]2)([H:7])([H:8])[H:9]>>[C:1]([C:2](=[C:3]([H:10])[H:11])[O:6][C:5](=[C:4]([H:12])[H:13])[H:14])([H:7])([H:8])[H:9]"
C       -1.54830608       0.56106778       0.31727575
C       -0.44535143      -0.38873331      -0.01446795
C        0.36396759      -0.98259471       0.97209412
C        1.54152250       0.15632739      -0.38377664
C        0.60620849       0.20972364      -1.46981780
O       -0.36499406      -0.84089781      -1.30327320
H       -1.32881279       1.14811143       1.20851968
H       -2.43850111      -0.03896777       0.52474375
H       -1.75866461       1.23340919      -0.51189880
H        0.27999385      -0.61589895       1.98639429
H        0.70501825      -2.00127721       0.84711804
H        1.96808931       1.08847870      -0.02369441
H        2.23593378      -0.67070816      -0.32160978
H        0.18389633       1.14195980      -1.82760706
14
Frame=7 idx=005802 GeodesicLength=0.4792901789769186 rxn_smarts="[C:1]([C@:2]12[C:3]([H:10])([H:11])[C:4]([H:12])([H:13])[C@@:5]1([H:14])[O:6]2)([H:7])([H:8])[H:9]>>[C:1]([C:2](=[C:3]([H:10])[H:11])[O:6][C:5](=[C:4]([H:12])[H:13])[H:14])([H:7])([H:8])[H:9]"
C       -1.56189745       0.55909981       0.32649486
C       -0.45296650      -0.38237406      -0.00638993
C        0.36743144      -0.97901242       0.97091372
C        1.55610601       0.16195956      -0.38765219
C        0.60361625       0.20350107      -1.45554631
O       -0.36863251      -0.83819821      -1.29680861
H       -1.35961384       1.12543366       1.23508412
H       -2.45854073      -0.04161434       0.50084092
H       -1.75177435       1.25326727      -0.48985764
H        0.28968079      -0.61851780       1.98835040
H        0.68750396      -2.00517529       0.84729447
H        1.99163320       1.09893211      -0.05195185
H        2.25244518      -0.66302648      -0.31902263
H        0.20500855       1.12572512      -1.86174935
14
Frame=8 idx=005802 GeodesicLength=0.5475024777316086 rxn_smarts="[C:1]([C@:2]12[C:3]([H:10])([H:11])[C:4]([H:12])([H:13])[C@@:5]1([H:14])[O:6]2)([H:7])([H:8])[H:9]>>[C:1]([C:2](=[C:3]([H:10])[H:11])[O:6][C:5](=[C:4]([H:12])[H:13])[H:14])([H:7])([H:8])[H:9]"
C       -1.57592553       0.55690360       0.33601712
C       -0.46084321      -0.37595102       0.00189621
C        0.37083754      -0.97519535       0.96972210
C        1.57078422       0.16784628      -0.39169045
C        0.60077724       0.19858238      -1.44051089
O       -0.37210728      -0.83480796      -1.29034964
H       -1.39170116       1.10085358       1.26200569
H       -2.47858518      -0.04360554       0.47566654
H       -1.74453507       1.27355311      -0.46578937
H        0.29947631      -0.62074839       1.99018284
H        0.66980856      -2.00846826       0.84792967
H        2.01569753       1.10897926      -0.08117228
H        2.26888163      -0.65521433      -0.31692412
H        0.22743438       1.10727263      -1.89698342
14
Frame=9 idx=005802 GeodesicLength=0.6155858348119571 rxn_smarts="[C:1]([C@:2]12[C:3]([H:10])([H:11])[C:4]([H:12])([H:13])[C@@:5]1([H:14])[O:6]2)([H:7])([H:8])[H:9]>>[C:1]([C:2](=[C:3]([H:10])[H:11])[O:6][C:5](=[C:4]([H:12])[H:13])[H:14])([H:7])([H:8])[H:9]"
C       -1.59042539       0.55444263       0.34584735
C       -0.46900770      -0.36943958       0.01038875
C        0.37414293      -0.97111173       0.96850283
C        1.58554320       0.17401087      -0.39590783
C        0.59765662       0.19523183      -1.42464105
O       -0.37536143      -0.83057738      -1.28391838
H       -1.42503407       1.07434286       1.28908138
H       -2.49853588      -0.04488281       0.44939190
H       -1.73719967       1.29403496      -0.43960975
H        0.30933838      -0.62254623       1.99185696
H        0.65191891      -2.01109624       0.84901341
H        2.04034466       1.11851315      -0.11134974
H        2.28515789      -0.64729806      -0.31542911
H        0.25146154       1.08637573      -1.93322673
14
Frame=10 idx=005802 GeodesicLength=0.6835682744976261 rxn_smarts="[C:1]([C@:2]12[C:3]([H:10])([H:11])[C:4]([H:12])([H:13])[C@@:5]1([H:14])[O:6]2)([H:7])([H:8])[H:9]>>[C:1]([C:2](=[C:3]([H:10])[H:11])[O:6][C:5](=[C:4]([H:12])[H:13])[H:14])([H:7])([H:8])[H:9]"
C       -1.60547852       0.55169140       0.35600044
C       -0.47746905      -0.36279571       0.01908829
C        0.37736573      -0.96669976       0.96725334
C        1.60041380       0.18046408      -0.40033909
C        0.59420056       0.19370700      -1.40790855
O       -0.37833433      -0.82537933      -1.27755163
H       -1.45974798       1.04576627       1.31624691
H       -2.51837694      -0.04538866       0.42197807
H       -1.72992459       1.31467263      -0.41110849
H        0.31929889      -0.62380593       1.99337191
H        0.63382700      -2.01302508       0.85056897
H        2.06567396       1.12745411      -0.14249429
H        2.30125797      -0.63935850      -0.31467785
H        0.27729352       1.06269748      -1.97042804
14
Frame=11 idx=005802 GeodesicLength=0.7514340114967021 rxn_smarts="[C:1]([C@:2]12[C:3]([H:10])([H:11])[C:4]([H:12])([H:13])[C@@:5]1([H:14])[O:6]2)([H:7])([H:8])[H:9]>>[C:1]([C:2](=[C:3]([H:10])[H:11])[O:6][C:5](=[C:4]([H:12])[H:13])[H:14])([H:7])([H:8])[H:9]"
C       -1.62116554       0.54860442       0.36649634
C       -0.48624366      -0.35594728       0.02799528
C        0.38048791      -0.96188449       0.96595587
C        1.61541167       0.18721747      -0.40503298
C        0.59035799       0.19436081      -1.39025346
O       -0.38094986      -0.81901056      -1.27127539
H       -1.49590152       1.01502989       1.34335665
H       -2.53805001      -0.04510337       0.39353958
H       -1.72300691       1.33528815      -0.38013940
H        0.32934891      -0.62442816       1.99469868
H        0.61550848      -2.01417230       0.85259666
H        2.09180961       1.13566894      -0.17462008
H        2.31710543      -0.63148291      -0.31486050
H        0.30528750       1.03585939      -2.00845723
14
Frame=12 idx=005802 GeodesicLength=0.8191785142212353 rxn_smarts="[C:1]([C@:2]12[C:3]([H:10])([H:11])[C:4]([H:12])([H:13])[C@@:5]1([H:14])[O:6]2)([H:7])([H:8])[H:9]>>[C:1]([C:2](=[C:3]([H:10])[H:11])[O:6][C:5](=[C:4]([H:12])[H:13])[H:14])([H:7])([H:8])[H:9]"
C       -1.63759180       0.54512393       0.37736196
C       -0.49533796      -0.34878674       0.03710783
C        0.38350377      -0.95655571       0.96458585
C        1.63056312       0.19427393      -0.41006293
C        0.58606828       0.19760594      -1.37162177
O       -0.38311374      -0.81122658      -1.26511976
H       -1.53360512       0.98199284       1.37029152
H       -2.55750964      -0.04403961       0.36415320
H       -1.71676899       1.35573114      -0.34651189
H        0.33949678      -0.62426887       1.99580370
H        0.59692290      -2.01442917       0.85510030
H        2.11890956       1.14300006      -0.20775838
H        2.33261633      -0.62379504      -0.31622412
H        0.33584652       1.00537388      -2.04710552
14
Frame=13 idx=005802 GeodesicLength=0.8867974065066122 rxn_smarts="[C:1]([C@:2]12[C:3]([H:10])([H:11])[C:4]([H:12])([H:13])[C@@:5]1([H:14])[O:6]2)([H:7])([H:8])[H:9]>>[C:1]([C:2](=[C:3]([H:10])[H:11])[O:6][C:5](=[C:4]([H:12])[H:13])[H:14])([H:7])([H:8])[H:9]"
C       -1.65489783       0.54119022       0.38861314
C       -0.50476865      -0.34116683       0.04640003
C        0.38639276      -0.95062008       0.96309801
C        1.64591409       0.20162892      -0.41550513
C        0.58127664       0.20398321      -1.35194944
O       -0.38473590      -0.80169468      -1.25914745
H       -1.57280343       0.94672722       1.39680826
H       -2.57671227      -0.04232082       0.33417743
H       -1.71184520       1.37568810      -0.31024151
H        0.34974686      -0.62322479       1.99664167
H        0.57802492      -2.01370807       0.85803771
H        2.14720001       1.14925261      -0.24187944
H        2.34768822      -0.61647251      -0.31906833
H        0.36951976       0.97073749      -2.08598494
14
Frame=14 idx=005802 GeodesicLength=0.9542778499207822 rxn_smarts="[C:1]([C@:2]12[C:3]([H:10])([H:11])[C:4]([H:12])([H:13])[C@@:5]1([H:14])[O:6]2)([H:7])([H:8])[H:9]>>[C:1]([C:2](=[C:3]([H:10])[H:11])[O:6][C:5](=[C:4]([H:12])[H:13])[H:14])([H:7])([H:8])[H:9]"
C       -1.67319518       0.53672836       0.40028103
C       -0.51450360      -0.33288483       0.05585590
C        0.38916624      -0.94388442       0.96143387
C        1.66147358       0.20926982      -0.42151238
C        0.57593155       0.21398244      -1.33124022
O       -0.38567897      -0.79009377      -1.25337487
H       -1.61369864       0.90892941       1.42285713
H       -2.59561436      -0.03998679       0.30353815
H       -1.70852551       1.39509880      -0.27103274
H        0.36012608      -0.62106540       1.99714312
H        0.55875633      -2.01180991       0.86139640
H        2.17682158       1.15422611      -0.27709320
H        2.36219245      -0.60967300      -0.32375917
H        0.40674846       0.93116318      -2.12449301
14
Frame=15 idx=005802 GeodesicLength=1.0216273364932023 rxn_smarts="[C:1]([C@:2]12[C:3]([H:10])([H:11])[C:4]([H:12])([H:13])[C@@:5]1([H:14])[O:6]2)([H:7])([H:8])[H:9]>>[C:1]([C:2](=[C:3]([H:10])[H:11])[O:6][C:5](=[C:4]([H:12])[H:13])[H:14])([H:7])([H:8])[H:9]"
C       -1.69258036       0.53168273       0.41234174
C       -0.52449841      -0.32371125       0.06541210
C        0.39182764      -0.93618971       0.95951237
C        1.67725346       0.21716438      -0.42826834
C        0.57005142       0.22803358      -1.30960908
O       -0.38583214      -0.77611157      -1.24783915
H       -1.65630982       0.86847217       1.44823148
H       -2.61416527      -0.03709909       0.27234591
H       -1.70726436       1.41378883      -0.22881164
H        0.37065724      -0.61761591       1.99722194
H        0.53907384      -2.00856725       0.86513494
H        2.20788440       1.15771580      -0.31352632
H        2.37602348      -0.60355368      -0.33064828
H        0.44787888       0.88599099      -2.16149766
14
Frame=16 idx=005802 GeodesicLength=1.0888390398825107 rxn_smarts="[C:1]([C@:2]12[C:3]([H:10])([H:11])[C:4]([H:12])([H:13])[C@@:5]1([H:14])[O:6]2)([H:7])([H:8])[H:9]>>[C:1]([C:2](=[C:3]([H:10])[H:11])[O:6][C:5](=[C:4]([H:12])[H:13])[H:14])([H:7])([H:8])[H:9]"
C       -1.71299659       0.52605192       0.42464601
C       -0.53464195      -0.31346345       0.07493648
C        0.39439210      -0.92742860       0.95723976
C        1.69321620       0.22523962      -0.43598001
C        0.56380636       0.24607812      -1.28742535
O       -0.38513183      -0.75970191      -1.24256616
H       -1.70050821       0.82527084       1.47259382
H       -2.63223385      -0.03355960       0.24056776
H       -1.70822132       1.43164053      -0.18363512
H        0.38135651      -0.61273613       1.99677389
H        0.51896993      -2.00386076       0.86923210
H        2.24024234       1.15959450      -0.35141574
H        2.38915222      -0.59816515      -0.33988073
H        0.49259809       0.83504006      -2.19508671
