12
Frame=0 idx=011850 GeodesicLength=0.0 rxn_smarts="[C:1]([N:2]([C:3]([C:4]#[N:5])([C:6]#[N:7])[H:12])[H:11])([H:8])([H:9])[H:10]>>[C:1]([N:2]([C:4]1=[N:5][C@:3]1([C:6]#[N:7])[H:12])[H:11])([H:8])([H:9])[H:10]"
C       -1.80965990      -0.12237084      -0.19553550
N       -0.44605765       0.34216192      -0.37473719
C        1.21803218      -0.24762184       0.65076939
C        0.68620160      -0.57179213      -0.66500354
N        0.96912136      -1.30824037      -1.58245758
C        2.24781921       0.69932708       0.85808285
N        3.05055346       1.51220244       1.00454268
H       -1.78520169      -1.10940560       0.26581129
H       -2.31037999      -0.21134597      -1.16214814
H       -2.37128305       0.56448876       0.43707597
H       -0.34329018       1.28084057      -0.74526577
H        0.89414465      -0.82824398       1.50886557
12
Frame=1 idx=011850 GeodesicLength=0.07879946989505866 rxn_smarts="[C:1]([N:2]([C:3]([C:4]#[N:5])([C:6]#[N:7])[H:12])[H:11])([H:8])([H:9])[H:10]>>[C:1]([N:2]([C:4]1=[N:5][C@:3]1([C:6]#[N:7])[H:12])[H:11])([H:8])([H:9])[H:10]"
C       -1.80727277      -0.11086483      -0.17797283
N       -0.44685390       0.34445096      -0.39766063
C        1.20443235      -0.25228496       0.62758143
C        0.70008669      -0.56323789      -0.69899525
N        1.03068641      -1.33875943      -1.56322017
C        2.22846587       0.69934874       0.85934281
N        3.01587122       1.51860915       1.04598387
H       -1.77919641      -1.09492018       0.28928845
H       -2.33584056      -0.20271278      -1.12920652
H       -2.34777912       0.58387878       0.46500770
H       -0.35204781       1.27380677      -0.79225332
H        0.88944804      -0.85731432       1.47210446
12
Frame=2 idx=011850 GeodesicLength=0.1576045426935626 rxn_smarts="[C:1]([N:2]([C:3]([C:4]#[N:5])([C:6]#[N:7])[H:12])[H:11])([H:8])([H:9])[H:10]>>[C:1]([N:2]([C:4]1=[N:5][C@:3]1([C:6]#[N:7])[H:12])[H:11])([H:8])([H:9])[H:10]"
C       -1.80422059      -0.09851773      -0.15994619
N       -0.44739383       0.34443786      -0.42110110
C        1.19090231      -0.25902081       0.60388975
C        0.71393704      -0.55821761      -0.73275681
N        1.09503434      -1.36379525      -1.54383689
C        2.20738347       0.69852779       0.86047477
N        2.97609253       1.52559594       1.08550855
H       -1.77387722      -1.07930600       0.31380279
H       -2.36069881      -0.19267523      -1.09473033
H       -2.32157960       0.60551335       0.49254925
H       -0.36021057       1.26394577      -0.83911995
H        0.88463094      -0.88648808       1.43526616
12
Frame=3 idx=011850 GeodesicLength=0.2364617513093038 rxn_smarts="[C:1]([N:2]([C:3]([C:4]#[N:5])([C:6]#[N:7])[H:12])[H:11])([H:8])([H:9])[H:10]>>[C:1]([N:2]([C:4]1=[N:5][C@:3]1([C:6]#[N:7])[H:12])[H:11])([H:8])([H:9])[H:10]"
C       -1.80073813      -0.08563461      -0.14160415
N       -0.44813216       0.34206914      -0.44503424
C        1.17716754      -0.26710121       0.58006865
C        0.72772563      -0.55639238      -0.76586678
N        1.16235923      -1.38240852      -1.52483061
C        2.18383081       0.69797483       0.86178957
N        2.93397621       1.53107414       1.12289161
H       -1.76921193      -1.06269837       0.33952289
H       -2.38498530      -0.18180129      -1.05891014
H       -2.29320167       0.62901739       0.51918214
H       -0.36842141       1.25118526      -0.88599503
H        0.87963119      -0.91528437       1.39878608
12
Frame=4 idx=011850 GeodesicLength=0.3154041476282932 rxn_smarts="[C:1]([N:2]([C:3]([C:4]#[N:5])([C:6]#[N:7])[H:12])[H:11])([H:8])([H:9])[H:10]>>[C:1]([N:2]([C:4]1=[N:5][C@:3]1([C:6]#[N:7])[H:12])[H:11])([H:8])([H:9])[H:10]"
C       -1.79670291      -0.07205285      -0.12292870
N       -0.44902067       0.33724199      -0.46936854
C        1.16333670      -0.27678172       0.55617353
C        0.74153771      -0.55781185      -0.79826808
N        1.23222615      -1.39479486      -1.50660441
C        2.15801447       0.69718933       0.86335873
N        2.88862315       1.53593483       1.15819273
H       -1.76512296      -1.04486785       0.36655923
H       -2.40855962      -0.16980254      -1.02170940
H       -2.26243345       0.65456115       0.54476178
H       -0.37653027       1.23540895      -0.93284022
H        0.87463171      -0.94422458       1.36267334
12
Frame=5 idx=011850 GeodesicLength=0.3943545858296048 rxn_smarts="[C:1]([N:2]([C:3]([C:4]#[N:5])([C:6]#[N:7])[H:12])[H:11])([H:8])([H:9])[H:10]>>[C:1]([N:2]([C:4]1=[N:5][C@:3]1([C:6]#[N:7])[H:12])[H:11])([H:8])([H:9])[H:10]"
C       -1.79194191      -0.05773748      -0.10397104
N       -0.45006372       0.32997762      -0.49411091
C        1.14958506      -0.28796821       0.53203731
C        0.75562997      -0.56206215      -0.83020317
N        1.30339765      -1.40204858      -1.48887196
C        2.13029134       0.69599008       0.86484865
N        2.83943638       1.54076586       1.19220939
H       -1.76130317      -1.02592656       0.39451896
H       -2.43129607      -0.15620260      -0.98313979
H       -2.22897954       0.68183775       0.56944651
H       -0.38458727       1.21673507      -0.97953992
H        0.86983127      -0.97336080       1.32677597
12
Frame=6 idx=011850 GeodesicLength=0.4738445203175016 rxn_smarts="[C:1]([N:2]([C:3]([C:4]#[N:5])([C:6]#[N:7])[H:12])[H:11])([H:8])([H:9])[H:10]>>[C:1]([N:2]([C:4]1=[N:5][C@:3]1([C:6]#[N:7])[H:12])[H:11])([H:8])([H:9])[H:10]"
C       -1.78626727      -0.04229998      -0.08449732
N       -0.45121882       0.32002503      -0.51921060
C        1.13582933      -0.30129603       0.50778591
C        0.76981416      -0.56967192      -0.86150733
N        1.37704564      -1.40285410      -1.47248320
C        2.10039606       0.69359348       0.86688671
N        2.78481849       1.54608695       1.22430682
H       -1.75772984      -1.00499769       0.42449296
H       -2.45308928      -0.14104514      -0.94280027
H       -2.19248618       0.71173058       0.59273877
H       -0.39252653       1.19460425      -1.02659541
H        0.86541426      -1.00387543       1.29088297
12
Frame=7 idx=011850 GeodesicLength=0.5535922767541175 rxn_smarts="[C:1]([N:2]([C:3]([C:4]#[N:5])([C:6]#[N:7])[H:12])[H:11])([H:8])([H:9])[H:10]>>[C:1]([N:2]([C:4]1=[N:5][C@:3]1([C:6]#[N:7])[H:12])[H:11])([H:8])([H:9])[H:10]"
C       -1.78015348      -0.02653613      -0.06503093
N       -0.45335598       0.30757778      -0.54485962
C        1.12161898      -0.31501659       0.48363432
C        0.78449386      -0.57894891      -0.89222505
N        1.45209347      -1.39758093      -1.45589511
C        2.06719749       0.69221936       0.86956491
N        2.73103147       1.54839706       1.25501656
H       -1.75409290      -0.98314064       0.45541715
H       -2.47420184      -0.12494670      -0.90134101
H       -2.15389308       0.74269360       0.61443423
H       -0.40184862       1.16938558      -1.07403741
H        0.86111062      -1.03410348       1.25532195
12
Frame=8 idx=011850 GeodesicLength=0.6338601327370678 rxn_smarts="[C:1]([N:2]([C:3]([C:4]#[N:5])([C:6]#[N:7])[H:12])[H:11])([H:8])([H:9])[H:10]>>[C:1]([N:2]([C:4]1=[N:5][C@:3]1([C:6]#[N:7])[H:12])[H:11])([H:8])([H:9])[H:10]"
C       -1.77312363      -0.01016872      -0.04547328
N       -0.45616657       0.29259285      -0.57086293
C        1.10736737      -0.32959305       0.45912463
C        0.79994788      -0.58951005      -0.92278127
N        1.52685642      -1.38733304      -1.43879466
C        2.03154439       0.69073483       0.87245813
N        2.67499298       1.54940028       1.28509838
H       -1.74992777      -0.95985812       0.48746861
H       -2.49411070      -0.10765610      -0.85855743
H       -2.11262174       0.77497368       0.63424930
H       -0.41213106       1.14111619      -1.12130714
H        0.85737245      -1.06469875       1.21937767
12
Frame=9 idx=011850 GeodesicLength=0.7150445374951997 rxn_smarts="[C:1]([N:2]([C:3]([C:4]#[N:5])([C:6]#[N:7])[H:12])[H:11])([H:8])([H:9])[H:10]>>[C:1]([N:2]([C:4]1=[N:5][C@:3]1([C:6]#[N:7])[H:12])[H:11])([H:8])([H:9])[H:10]"
C       -1.76505873       0.00714450      -0.02567420
N       -0.45978114       0.27446829      -0.59737267
C        1.09295087      -0.34569902       0.43450402
C        0.81598029      -0.60228296      -0.95285595
N        1.60282019      -1.37017937      -1.42227714
C        1.99233769       0.68892301       0.87621447
N        2.61616730       1.54913946       1.31407214
H       -1.74531199      -0.93444296       0.52149840
H       -2.51294522      -0.08873074      -0.81405761
H       -2.06802446       0.80932754       0.65192875
H       -0.42344969       1.10888693      -1.16918701
H        0.85431489      -1.09655467       1.18320678
12
Frame=10 idx=011850 GeodesicLength=0.7967883641755865 rxn_smarts="[C:1]([N:2]([C:3]([C:4]#[N:5])([C:6]#[N:7])[H:12])[H:11])([H:8])([H:9])[H:10]>>[C:1]([N:2]([C:4]1=[N:5][C@:3]1([C:6]#[N:7])[H:12])[H:11])([H:8])([H:9])[H:10]"
C       -1.75585178       0.02490287      -0.00605064
N       -0.46431035       0.25378650      -0.62397189
C        1.07874392      -0.36231343       0.40949351
C        0.83328560      -0.61513708      -0.98295358
N        1.67637129      -1.34909468      -1.40481956
C        1.95076235       0.68700018       0.88006374
N        2.55550674       1.54731800       1.34297030
H       -1.73946493      -0.90764570       0.55643156
H       -2.53010002      -0.06869290      -0.76861470
H       -2.02088861       0.84448359       0.66712421
H       -0.43616943       1.07387893      -1.21630506
H        0.85211521      -1.12848628       1.14663209
12
Frame=11 idx=011850 GeodesicLength=0.880064521284166 rxn_smarts="[C:1]([N:2]([C:3]([C:4]#[N:5])([C:6]#[N:7])[H:12])[H:11])([H:8])([H:9])[H:10]>>[C:1]([N:2]([C:4]1=[N:5][C@:3]1([C:6]#[N:7])[H:12])[H:11])([H:8])([H:9])[H:10]"
C       -1.74523817       0.04365275       0.01368260
N       -0.46989587       0.22967171      -0.65090469
C        1.06454172      -0.38030073       0.38417984
C        0.85159017      -0.62912158      -1.01281347
N        1.74950861      -1.32150802      -1.38747671
C        1.90542808       0.68447807       0.88471270
N        2.49166428       1.54395058       1.37155916
H       -1.73238366      -0.87827795       0.59343635
H       -2.54572902      -0.04691460      -0.72141702
H       -1.97000998       0.88152103       0.67945093
H       -0.45044618       1.03458690      -1.26381818
H        0.85097003      -1.16173816       1.10940848
12
Frame=12 idx=011850 GeodesicLength=0.9646284782907205 rxn_smarts="[C:1]([N:2]([C:3]([C:4]#[N:5])([C:6]#[N:7])[H:12])[H:11])([H:8])([H:9])[H:10]>>[C:1]([N:2]([C:4]1=[N:5][C@:3]1([C:6]#[N:7])[H:12])[H:11])([H:8])([H:9])[H:10]"
C       -1.73348439       0.06277898       0.03301841
N       -0.47689972       0.20271375      -0.67764195
C        1.05042322      -0.39842203       0.35861627
C        0.87131182      -0.64206315      -1.04254633
N        1.81983596      -1.28904683      -1.36900456
C        1.85687772       0.68196691       0.88988264
N        2.42822050       1.53733129       1.40032503
H       -1.72347785      -0.84678638       0.63199534
H       -2.55945111      -0.02491978      -0.67342734
H       -1.91717881       0.91946203       0.68783510
H       -0.46700799       0.99192207      -1.31070282
H        0.85083063      -1.19493686       1.07165020
12
Frame=13 idx=011850 GeodesicLength=1.0513920869345974 rxn_smarts="[C:1]([N:2]([C:3]([C:4]#[N:5])([C:6]#[N:7])[H:12])[H:11])([H:8])([H:9])[H:10]>>[C:1]([N:2]([C:4]1=[N:5][C@:3]1([C:6]#[N:7])[H:12])[H:11])([H:8])([H:9])[H:10]"
C       -1.72015347       0.08269704       0.05215016
N       -0.48538490       0.17229576      -0.70429973
C        1.03651193      -0.41710904       0.33257160
C        0.89259541      -0.65382593      -1.07236770
N        1.88753962      -1.25135091      -1.34987008
C        1.80466202       0.67889330       0.89568189
N        2.36299765       1.52774854       1.43012346
H       -1.71218762      -0.81222244       0.67280623
H       -2.57118242      -0.00223189      -0.62396088
H       -1.86134951       0.95900450       0.69185901
H       -0.48612157       0.94487032      -1.35753496
H        0.85207286      -1.22876926       1.03284100
12
Frame=14 idx=011850 GeodesicLength=1.1416190586783066 rxn_smarts="[C:1]([N:2]([C:3]([C:4]#[N:5])([C:6]#[N:7])[H:12])[H:11])([H:8])([H:9])[H:10]>>[C:1]([N:2]([C:4]1=[N:5][C@:3]1([C:6]#[N:7])[H:12])[H:11])([H:8])([H:9])[H:10]"
C       -1.70412480       0.10436076       0.07154910
N       -0.49479070       0.13811427      -0.73033556
C        1.02351797      -0.43799469       0.30559413
C        0.91524727      -0.66514677      -1.10268020
N        1.95224940      -1.20877702      -1.33147534
C        1.75000279       0.67265779       0.90195827
N        2.28785234       1.51835048       1.46124555
H       -1.69744873      -0.77312426       0.71667322
H       -2.58001862       0.02261494      -0.57215148
H       -1.80085637       1.00113446       0.69140106
H       -0.50707588       0.89289494      -1.40395414
H        0.85544532      -1.26508489       0.99217539
12
Frame=15 idx=011850 GeodesicLength=1.2357341445251329 rxn_smarts="[C:1]([N:2]([C:3]([C:4]#[N:5])([C:6]#[N:7])[H:12])[H:11])([H:8])([H:9])[H:10]>>[C:1]([N:2]([C:4]1=[N:5][C@:3]1([C:6]#[N:7])[H:12])[H:11])([H:8])([H:9])[H:10]"
C       -1.68608702       0.12701179       0.09041013
N       -0.50599682       0.09995257      -0.75548679
C        1.01085196      -0.45940316       0.27833410
C        0.93926017      -0.67426615      -1.13270769
N        2.01357455      -1.16030002      -1.31226912
C        1.69134276       0.66510877       0.90919086
N        2.21036850       1.50539641       1.49314816
H       -1.67942883      -0.73015808       0.76225980
H       -2.58634791       0.04903893      -0.51887250
H       -1.73687960       1.04434434       0.68559748
H       -0.53127239       0.83529343      -1.44994970
H        0.86061462      -1.30201883       0.95034527
12
Frame=16 idx=011850 GeodesicLength=1.3344884238240504 rxn_smarts="[C:1]([N:2]([C:3]([C:4]#[N:5])([C:6]#[N:7])[H:12])[H:11])([H:8])([H:9])[H:10]>>[C:1]([N:2]([C:4]1=[N:5][C@:3]1([C:6]#[N:7])[H:12])[H:11])([H:8])([H:9])[H:10]"
C       -1.66555239       0.15121827       0.10880442
N       -0.51865338       0.05836317      -0.77873366
C        0.99907569      -0.48200331       0.25060550
C        0.96429260      -0.68055122      -1.16274892
N        2.07053677      -1.10641324      -1.29322189
C        1.63028731       0.65421086       0.91758855
N        2.12716519       1.48962837       1.52666565
H       -1.65653367      -0.68145854       0.81078260
H       -2.58935878       0.07575107      -0.46412108
H       -1.67065598       1.08983710       0.67264219
H       -0.55882469       0.77196601      -1.49495154
H        0.86822133      -1.34054854       0.90668818
