19
Frame=0 idx=008072 GeodesicLength=0.0 rxn_smarts="[C:1]([C:2]([C@@:3]([O:4][H:14])([C@@:5]([C:6]([H:16])([H:17])[H:18])([O:7][H:19])[H:15])[H:13])([H:11])[H:12])([H:8])([H:9])[H:10]>>[C:1]([O:4][H:14])([H:8])([H:9])[H:10].[C:2](=[C:3]([C@@:5]([C:6]([H:16])([H:17])[H:18])([O:7][H:19])[H:15])[H:13])([H:11])[H:12]"
C        2.07561947      -0.64919954       1.36207469
C        0.76012303       1.30632522       0.87626114
C        0.31211033       0.56418402      -0.26923252
O        0.97895573      -0.84345912      -0.14354263
C       -1.18848713       0.27690677      -0.41473695
C       -1.57926531      -0.18924134      -1.80621949
O       -1.51056271      -0.71440773       0.56341720
H        2.30355217      -1.69860937       1.17652738
H        2.90467686       0.00135240       1.13710616
H        1.63261259      -0.47858684       2.32992122
H        0.04667917       1.48151181       1.67600849
H        1.46812570       2.11034472       0.71075714
H        0.71873291       0.90994019      -1.21975793
H        0.26934875      -1.41082746       0.20989079
H       -1.72062028       1.20270019      -0.17362202
H       -1.03229637      -1.09442176      -2.07754299
H       -2.65132631      -0.39849734      -1.86228869
H       -1.35550166       0.58319955      -2.54407870
H       -2.43247694      -0.95921435       0.46905772
19
Frame=1 idx=008072 GeodesicLength=0.09055672966811565 rxn_smarts="[C:1]([C:2]([C@@:3]([O:4][H:14])([C@@:5]([C:6]([H:16])([H:17])[H:18])([O:7][H:19])[H:15])[H:13])([H:11])[H:12])([H:8])([H:9])[H:10]>>[C:1]([O:4][H:14])([H:8])([H:9])[H:10].[C:2](=[C:3]([C@@:5]([C:6]([H:16])([H:17])[H:18])([O:7][H:19])[H:15])[H:13])([H:11])[H:12]"
C        2.08532467      -0.64170741       1.35527671
C        0.75205642       1.29118883       0.88747950
C        0.30313401       0.57006398      -0.27018286
O        0.97791218      -0.86350543      -0.14462878
C       -1.19598688       0.28537836      -0.42152674
C       -1.57721981      -0.18900723      -1.81301548
O       -1.52277410      -0.70065425       0.56011635
H        2.27925308      -1.70586288       1.22106006
H        2.93137559      -0.02895768       1.08681056
H        1.71112301      -0.42874369       2.34469441
H        0.04207732       1.43434062       1.69685733
H        1.43624956       2.11716637       0.72942126
H        0.71346520       0.92910502      -1.21421263
H        0.26177746      -1.41716731       0.21586363
H       -1.72924803       1.21301336      -0.18932985
H       -1.02774404      -1.09527492      -2.07533580
H       -2.64868379      -0.39936936      -1.87506342
H       -1.34910605       0.57929474      -2.55389098
H       -2.44298580      -0.94930111       0.45960673
19
Frame=2 idx=008072 GeodesicLength=0.18047511806726724 rxn_smarts="[C:1]([C:2]([C@@:3]([O:4][H:14])([C@@:5]([C:6]([H:16])([H:17])[H:18])([O:7][H:19])[H:15])[H:13])([H:11])[H:12])([H:8])([H:9])[H:10]>>[C:1]([O:4][H:14])([H:8])([H:9])[H:10].[C:2](=[C:3]([C@@:5]([C:6]([H:16])([H:17])[H:18])([O:7][H:19])[H:15])[H:13])([H:11])[H:12]"
C        2.09420048      -0.63411637       1.34917181
C        0.74407356       1.27594542       0.89852851
C        0.29425592       0.57620648      -0.27101741
O        0.97724720      -0.88408764      -0.14567497
C       -1.20328961       0.29374389      -0.42806525
C       -1.57499696      -0.18853838      -1.81955878
O       -1.53446374      -0.68738323       0.55673053
H        2.25311864      -1.70962151       1.26858997
H        2.95577599      -0.06311905       1.03728254
H        1.79175158      -0.37673814       2.35365722
H        0.03796375       1.38670703       1.71655611
H        1.40397986       2.12319235       0.74923334
H        0.70804702       0.94879186      -1.20831243
H        0.25446475      -1.42390446       0.22105441
H       -1.73780846       1.22297105      -0.20444752
H       -1.02290487      -1.09563560      -2.07319992
H       -2.64578438      -0.40025189      -1.88752476
H       -1.34275263       0.57588370      -2.56318989
H       -2.45287809      -0.94004550       0.45018648
19
Frame=3 idx=008072 GeodesicLength=0.26978025806591543 rxn_smarts="[C:1]([C:2]([C@@:3]([O:4][H:14])([C@@:5]([C:6]([H:16])([H:17])[H:18])([O:7][H:19])[H:15])[H:13])([H:11])[H:12])([H:8])([H:9])[H:10]>>[C:1]([O:4][H:14])([H:8])([H:9])[H:10].[C:2](=[C:3]([C@@:5]([C:6]([H:16])([H:17])[H:18])([O:7][H:19])[H:15])[H:13])([H:11])[H:12]"
C        2.10244360      -0.62632194       1.34364968
C        0.73621276       1.26066213       0.90940219
C        0.28549154       0.58266559      -0.27171863
O        0.97701241      -0.90518573      -0.14666835
C       -1.21037900       0.30201503      -0.43432217
C       -1.57257300      -0.18787535      -1.82581313
O       -1.54558733      -0.67456392       0.55333265
H        2.22518593      -1.70945829       1.31893971
H        2.97804748      -0.10129446       0.98913555
H        1.87369766      -0.32317115       2.35607480
H        0.03443606       1.33864537       1.73513474
H        1.37128850       2.12850425       0.77014068
H        0.70245371       0.96906846      -1.20203871
H        0.24746282      -1.43100535       0.22551884
H       -1.74631194       1.23258648      -0.21897647
H       -1.01773733      -1.09554978      -2.07106853
H       -2.64260279      -0.40120354      -1.89963054
H       -1.33643068       0.57290705      -2.57197384
H       -2.46211039      -0.93142486       0.44088152
19
Frame=4 idx=008072 GeodesicLength=0.35857107162206103 rxn_smarts="[C:1]([C:2]([C@@:3]([O:4][H:14])([C@@:5]([C:6]([H:16])([H:17])[H:18])([O:7][H:19])[H:15])[H:13])([H:11])[H:12])([H:8])([H:9])[H:10]>>[C:1]([O:4][H:14])([H:8])([H:9])[H:10].[C:2](=[C:3]([C@@:5]([C:6]([H:16])([H:17])[H:18])([O:7][H:19])[H:15])[H:13])([H:11])[H:12]"
C        2.11031364      -0.61824651       1.33852513
C        0.72848920       1.24539285       0.92011023
C        0.27684270       0.58948003      -0.27226384
O        0.97723797      -0.92682077      -0.14756935
C       -1.21725910       0.31021823      -0.44027570
C       -1.56992094      -0.18705497      -1.83175953
O       -1.55614492      -0.66212812       0.55000243
H        2.19570272      -1.70490838       1.37180071
H        2.99839954      -0.14358982       0.94293255
H        1.95607917      -0.26872988       2.35141410
H        0.03155941       1.29020048       1.75263545
H        1.33812121       2.13314770       0.79210773
H        0.69666582       0.98996820      -1.19537365
H        0.24080966      -1.43842999       0.22940035
H       -1.75479338       1.24190264      -0.23294195
H       -1.01219073      -1.09507484      -2.06887642
H       -2.63911663      -0.40225587      -1.91136901
H       -1.33010855       0.57029331      -2.58026914
H       -2.47068681      -0.92336428       0.43176990
19
Frame=5 idx=008072 GeodesicLength=0.4467877448020266 rxn_smarts="[C:1]([C:2]([C@@:3]([O:4][H:14])([C@@:5]([C:6]([H:16])([H:17])[H:18])([O:7][H:19])[H:15])[H:13])([H:11])[H:12])([H:8])([H:9])[H:10]>>[C:1]([O:4][H:14])([H:8])([H:9])[H:10].[C:2](=[C:3]([C@@:5]([C:6]([H:16])([H:17])[H:18])([O:7][H:19])[H:15])[H:13])([H:11])[H:12]"
C        2.11800843      -0.60977539       1.33345562
C        0.72097052       1.23018214       0.93061784
C        0.26832602       0.59671281      -0.27263235
O        0.97789350      -0.94897783      -0.14836904
C       -1.22388423       0.31836473      -0.44588847
C       -1.56697277      -0.18613095      -1.83730759
O       -1.56609811      -0.65003373       0.54680614
H        2.16470020      -1.69545902       1.42675336
H        3.01696209      -0.18990632       0.89920601
H        2.03786160      -0.21431349       2.33931431
H        0.02945084       1.24146522       1.76898606
H        1.30449533       2.13716643       0.81510269
H        0.69066770       1.01157205      -1.18827071
H        0.23450302      -1.44612771       0.23280634
H       -1.76319181       1.25093093      -0.24636014
H       -1.00621724      -1.09426734      -2.06648188
H       -2.63523391      -0.40349446      -1.92264372
H       -1.32370220       0.56796180      -2.58801263
H       -2.47853897      -0.91586990       0.42291814
19
Frame=6 idx=008072 GeodesicLength=0.5346384429191497 rxn_smarts="[C:1]([C:2]([C@@:3]([O:4][H:14])([C@@:5]([C:6]([H:16])([H:17])[H:18])([O:7][H:19])[H:15])[H:13])([H:11])[H:12])([H:8])([H:9])[H:10]>>[C:1]([O:4][H:14])([H:8])([H:9])[H:10].[C:2](=[C:3]([C@@:5]([C:6]([H:16])([H:17])[H:18])([O:7][H:19])[H:15])[H:13])([H:11])[H:12]"
C        2.12576008      -0.60094421       1.32825065
C        0.71370324       1.21508040       0.94089761
C        0.25994418       0.60439294      -0.27286097
O        0.97903153      -0.97170555      -0.14908357
C       -1.23028806       0.32648131      -0.45116260
C       -1.56378649      -0.18512810      -1.84248583
O       -1.57544930      -0.63821443       0.54382051
H        2.13284776      -1.68070081       1.48317922
H        3.03403920      -0.24022206       0.85873231
H        2.11801206      -0.16060326       2.31991714
H        0.02814443       1.19258968       1.78417049
H        1.27049016       2.14051641       0.83906656
H        0.68442194       1.03389720      -1.18080118
H        0.22859127      -1.45407692       0.23581466
H       -1.77157899       1.25971504      -0.25924925
H       -0.99984662      -1.09317271      -2.06390327
H       -2.63103998      -0.40492830      -1.93345574
H       -1.31729228       0.56586263      -2.59528529
H       -2.48570413      -0.90883925       0.41443856
19
Frame=7 idx=008072 GeodesicLength=0.6221685100723592 rxn_smarts="[C:1]([C:2]([C@@:3]([O:4][H:14])([C@@:5]([C:6]([H:16])([H:17])[H:18])([O:7][H:19])[H:15])[H:13])([H:11])[H:12])([H:8])([H:9])[H:10]>>[C:1]([O:4][H:14])([H:8])([H:9])[H:10].[C:2](=[C:3]([C@@:5]([C:6]([H:16])([H:17])[H:18])([O:7][H:19])[H:15])[H:13])([H:11])[H:12]"
C        2.13370109      -0.59177390       1.32260209
C        0.70672773       1.20010121       0.95089848
C        0.25168595       0.61255726      -0.27296153
O        0.98060600      -0.99503848      -0.14970335
C       -1.23646341       0.33459021      -0.45609274
C       -1.56034411      -0.18407231      -1.84725488
O       -1.58418956      -0.62660465       0.54109688
H        2.10059470      -1.66028376       1.54038523
H        3.04974894      -0.29434495       0.82208583
H        2.19566640      -0.10828782       2.29348396
H        0.02768491       1.14368997       1.79810378
H        1.23617142       2.14313427       0.86394722
H        0.67788137       1.05698496      -1.17296739
H        0.22305715      -1.46223839       0.23853701
H       -1.77994265       1.26828156      -0.27165510
H       -0.99307086      -1.09182368      -2.06105406
H       -2.62650203      -0.40658734      -1.94375682
H       -1.31085725       0.56394004      -2.60208093
H       -2.49215580      -0.90222419       0.40638631
19
Frame=8 idx=008072 GeodesicLength=0.7095971415595962 rxn_smarts="[C:1]([C:2]([C@@:3]([O:4][H:14])([C@@:5]([C:6]([H:16])([H:17])[H:18])([O:7][H:19])[H:15])[H:13])([H:11])[H:12])([H:8])([H:9])[H:10]>>[C:1]([O:4][H:14])([H:8])([H:9])[H:10].[C:2](=[C:3]([C@@:5]([C:6]([H:16])([H:17])[H:18])([O:7][H:19])[H:15])[H:13])([H:11])[H:12]"
C        2.14194151      -0.58236304       1.31629737
C        0.70006743       1.18528322       0.96062289
C        0.24351252       0.62124915      -0.27295847
O        0.98255097      -1.01908063      -0.15021095
C       -1.24243517       0.34273489      -0.46070036
C       -1.55667489      -0.18298532      -1.85167280
O       -1.59232694      -0.61513902       0.53870704
H        2.06862248      -1.63406022       1.59763852
H        3.06415912      -0.35207040       0.78980132
H        2.27022495      -0.05785614       2.26054133
H        0.02810584       1.09490357       1.81080952
H        1.20162206       2.14498111       0.88973023
H        0.67095815       1.08088919      -1.16482747
H        0.21787219      -1.47062976       0.24111448
H       -1.78830777       1.27671695      -0.28364076
H       -0.98592415      -1.09028724      -2.05795515
H       -2.62163846      -0.40848748      -1.95360411
H       -1.30443614       0.56215982      -2.60852524
H       -2.49789370      -0.89595865       0.39883260
19
Frame=9 idx=008072 GeodesicLength=0.7965447962429761 rxn_smarts="[C:1]([C:2]([C@@:3]([O:4][H:14])([C@@:5]([C:6]([H:16])([H:17])[H:18])([O:7][H:19])[H:15])[H:13])([H:11])[H:12])([H:8])([H:9])[H:10]>>[C:1]([O:4][H:14])([H:8])([H:9])[H:10].[C:2](=[C:3]([C@@:5]([C:6]([H:16])([H:17])[H:18])([O:7][H:19])[H:15])[H:13])([H:11])[H:12]"
C        2.15050066      -0.57268856       1.30902713
C        0.69376328       1.17046076       0.96995193
C        0.23544782       0.63041699      -0.27278483
O        0.98480160      -1.04374581      -0.15052092
C       -1.24822011       0.35088224      -0.46499725
C       -1.55271993      -0.18188659      -1.85553972
O       -1.59999568      -0.60367481       0.53648075
H        2.03719053      -1.60173332       1.65402160
H        3.07726029      -0.41289099       0.76235248
H        2.34135486      -0.00969260       2.22142046
H        0.02933237       1.04618354       1.82195167
H        1.16702593       2.14567067       0.91641277
H        0.66373350       1.10549830      -1.15612659
H        0.21292308      -1.47903175       0.24357273
H       -1.79669020       1.28486696      -0.29531397
H       -0.97834983      -1.08846828      -2.05431263
H       -2.61641674      -0.41063597      -1.96285327
H       -1.29787962       0.56036842      -2.61430511
H       -2.50306183      -0.88989920       0.39156276
19
Frame=10 idx=008072 GeodesicLength=0.8835366923403706 rxn_smarts="[C:1]([C:2]([C@@:3]([O:4][H:14])([C@@:5]([C:6]([H:16])([H:17])[H:18])([O:7][H:19])[H:15])[H:13])([H:11])[H:12])([H:8])([H:9])[H:10]>>[C:1]([O:4][H:14])([H:8])([H:9])[H:10].[C:2](=[C:3]([C@@:5]([C:6]([H:16])([H:17])[H:18])([O:7][H:19])[H:15])[H:13])([H:11])[H:12]"
C        2.15934430      -0.56301489       1.30076996
C        0.68781277       1.15580885       0.97896263
C        0.22742845       0.64014552      -0.27251847
O        0.98723890      -1.06931956      -0.15062756
C       -1.25384895       0.35911900      -0.46900692
C       -1.54853821      -0.18078929      -1.85908056
O       -1.60719658      -0.59221239       0.53463056
H        2.00743492      -1.56377685       1.70878402
H        3.08890600      -0.47640009       0.74017463
H        2.40862124       0.03598039       2.17694485
H        0.03138283       0.99781632       1.83179675
H        1.13251547       2.14537524       0.94393261
H        0.65608161       1.13093449      -1.14711975
H        0.20814183      -1.48766057       0.24610641
H       -1.80510128       1.29297290      -0.30668379
H       -0.97042373      -1.08652765      -2.05037384
H       -2.61087339      -0.41304095      -1.97169314
H       -1.29127928       0.55863892      -2.61980579
H       -2.50764691      -0.88404937       0.38480739
19
Frame=11 idx=008072 GeodesicLength=0.9705139422342977 rxn_smarts="[C:1]([C:2]([C@@:3]([O:4][H:14])([C@@:5]([C:6]([H:16])([H:17])[H:18])([O:7][H:19])[H:15])[H:13])([H:11])[H:12])([H:8])([H:9])[H:10]>>[C:1]([O:4][H:14])([H:8])([H:9])[H:10].[C:2](=[C:3]([C@@:5]([C:6]([H:16])([H:17])[H:18])([O:7][H:19])[H:15])[H:13])([H:11])[H:12]"
C        2.16839037      -0.55346574       1.29140535
C        0.68221237       1.14126963       0.98761514
C        0.21944695       0.65042182      -0.27212849
O        0.98975484      -1.09589026      -0.15042000
C       -1.25934628       0.36746285      -0.47275042
C       -1.54408355      -0.17970128      -1.86224362
O       -1.61405241      -0.58064774       0.53310581
H        1.97993110      -1.52052361       1.76115810
H        3.09891492      -0.54188969       0.72355571
H        2.47193350       0.07903574       2.12753182
H        0.03416486       0.94983351       1.84023942
H        1.09823191       2.14391852       0.97226411
H        0.64803340       1.15716008      -1.13770355
H        0.20339140      -1.49647447       0.24881443
H       -1.81355782       1.30103616      -0.31784129
H       -0.96210312      -1.08445684      -2.04601892
H       -2.60497270      -0.41569121      -1.98011128
H       -1.28452030       0.55690621      -2.62495006
H       -2.51176943      -0.87830368       0.37847774
19
Frame=12 idx=008072 GeodesicLength=1.0575763688149784 rxn_smarts="[C:1]([C:2]([C@@:3]([O:4][H:14])([C@@:5]([C:6]([H:16])([H:17])[H:18])([O:7][H:19])[H:15])[H:13])([H:11])[H:12])([H:8])([H:9])[H:10]>>[C:1]([O:4][H:14])([H:8])([H:9])[H:10].[C:2](=[C:3]([C@@:5]([C:6]([H:16])([H:17])[H:18])([O:7][H:19])[H:15])[H:13])([H:11])[H:12]"
C        2.17753441      -0.54421414       1.28097299
C        0.67695096       1.12683424       0.99590846
C        0.21146903       0.66126040      -0.27161507
O        0.99225983      -1.12358727      -0.14978450
C       -1.26475181       0.37595109      -0.47626894
C       -1.53936463      -0.17862301      -1.86507419
O       -1.62063580      -0.56889610       0.53190400
H        1.95533923      -1.47261037       1.81053138
H        3.10713897      -0.60861431       0.71278713
H        2.53133079       0.11945636       2.07363558
H        0.03760976       0.90230665       1.84728092
H        1.06432300       2.14119611       1.00136460
H        0.63954307       1.18418349      -1.12786709
H        0.19857125      -1.50548771       0.25178679
H       -1.82210559       1.30910840      -0.32888010
H       -0.95338590      -1.08226877      -2.04124511
H       -2.59872514      -0.41857725      -1.98817959
H       -1.27759712       0.55514565      -2.62980556
H       -2.51550433      -0.87256346       0.37254831
19
Frame=13 idx=008072 GeodesicLength=1.1445069792765974 rxn_smarts="[C:1]([C:2]([C@@:3]([O:4][H:14])([C@@:5]([C:6]([H:16])([H:17])[H:18])([O:7][H:19])[H:15])[H:13])([H:11])[H:12])([H:8])([H:9])[H:10]>>[C:1]([O:4][H:14])([H:8])([H:9])[H:10].[C:2](=[C:3]([C@@:5]([C:6]([H:16])([H:17])[H:18])([O:7][H:19])[H:15])[H:13])([H:11])[H:12]"
C        2.18653971      -0.53537000       1.26943619
C        0.67203999       1.11244410       1.00380931
C        0.20350633       0.67265108      -0.27093162
O        0.99451771      -1.15252827      -0.14852644
C       -1.27002284       0.38460253      -0.47957803
C       -1.53425954      -0.17758394      -1.86749939
O       -1.62704690      -0.55683844       0.53100453
H        1.93417050      -1.42082711       1.85626714
H        3.11316388      -0.67522697       0.70763757
H        2.58667279       0.15704158       2.01567451
H        0.04164879       0.85525963       1.85283768
H        1.03099236       2.13705028       1.03119311
H        0.63067277       1.21196249      -1.11750353
H        0.19343615      -1.51467094       0.25518377
H       -1.83063224       1.31719806      -0.33992021
H       -0.94421216      -1.07998271      -2.03587834
H       -2.59198447      -0.42171947      -1.99586840
H       -1.27028329       0.55325908      -2.63429738
H       -2.51891954      -0.86672097       0.36695953
19
Frame=14 idx=008072 GeodesicLength=1.231522172083626 rxn_smarts="[C:1]([C:2]([C@@:3]([O:4][H:14])([C@@:5]([C:6]([H:16])([H:17])[H:18])([O:7][H:19])[H:15])[H:13])([H:11])[H:12])([H:8])([H:9])[H:10]>>[C:1]([O:4][H:14])([H:8])([H:9])[H:10].[C:2](=[C:3]([C@@:5]([C:6]([H:16])([H:17])[H:18])([O:7][H:19])[H:15])[H:13])([H:11])[H:12]"
C        2.19529906      -0.52714225       1.25699057
C        0.66746538       1.09813792       1.01134017
C        0.19552409       0.68463125      -0.27010017
O        0.99652214      -1.18287900      -0.14653540
C       -1.27521564       0.39346314      -0.48272080
C       -1.52881185      -0.17658271      -1.86961784
O       -1.63331869      -0.54441810       0.53042407
H        1.91686112      -1.36612205       1.89815666
H        3.11707629      -0.74089469       0.70816950
H        2.63805690       0.19184161       1.95402701
H        0.04619096       0.80883613       1.85698445
H        0.99839736       2.13147149       1.06166992
H        0.62134391       1.24054073      -1.10665610
H        0.18795534      -1.52409416       0.25900458
H       -1.83924050       1.32538353      -0.35101665
H       -0.93456933      -1.07762268      -2.03000861
H       -2.58480680      -0.42511797      -2.00328345
H       -1.26265944       0.55125644      -2.63855740
H       -2.52207030      -0.86068863       0.36172950
19
Frame=15 idx=008072 GeodesicLength=1.3185425296202142 rxn_smarts="[C:1]([C:2]([C@@:3]([O:4][H:14])([C@@:5]([C:6]([H:16])([H:17])[H:18])([O:7][H:19])[H:15])[H:13])([H:11])[H:12])([H:8])([H:9])[H:10]>>[C:1]([O:4][H:14])([H:8])([H:9])[H:10].[C:2](=[C:3]([C@@:5]([C:6]([H:16])([H:17])[H:18])([O:7][H:19])[H:15])[H:13])([H:11])[H:12]"
C        2.20360625      -0.51964595       1.24371701
C        0.66322303       1.08388827       1.01849655
C        0.18752277       0.69721999      -0.26908458
O        0.99811979      -1.21476395      -0.14361681
C       -1.28031008       0.40255093      -0.48571403
C       -1.52293037      -0.17563506      -1.87140269
O       -1.63951243      -0.53156398       0.53014505
H        1.90356583      -1.30933346       1.93604563
H        3.11880115      -0.80450063       0.71394962
H        2.68547090       0.22378260       1.88891186
H        0.05115046       0.76306582       1.85970808
H        0.96669363       2.12438857       1.09273549
H        0.61156972       1.26993890      -1.09524152
H        0.18196047      -1.53376426       0.26331976
H       -1.84788707       1.33367107      -0.36225291
H       -0.92437701      -1.07518717      -2.02354261
H       -2.57708341      -0.42880202      -2.01043320
H       -1.25458333       0.54909317      -2.64255378
H       -2.52500029      -0.85440284       0.35681309
19
Frame=16 idx=008072 GeodesicLength=1.4055588047340946 rxn_smarts="[C:1]([C:2]([C@@:3]([O:4][H:14])([C@@:5]([C:6]([H:16])([H:17])[H:18])([O:7][H:19])[H:15])[H:13])([H:11])[H:12])([H:8])([H:9])[H:10]>>[C:1]([O:4][H:14])([H:8])([H:9])[H:10].[C:2](=[C:3]([C@@:5]([C:6]([H:16])([H:17])[H:18])([O:7][H:19])[H:15])[H:13])([H:11])[H:12]"
C        2.21128082      -0.51299147       1.22972962
C        0.65928472       1.06967591       1.02529984
C        0.17949095       0.71045084      -0.26784102
O        0.99918205      -1.24831554      -0.13955770
C       -1.28529556       0.41188548      -0.48857489
C       -1.51652267      -0.17475264      -1.87284545
O       -1.64567799      -0.51822284       0.53015075
H        1.89428357      -1.25120567       1.96997336
H        3.11841561      -0.86510563       0.72441278
H        2.72894677       0.25282947       1.82042766
H        0.05642332       0.71796457       1.86103305
H        0.93600610       2.11575525       1.12434612
H        0.60133928       1.30020374      -1.08317159
H        0.17531328      -1.54370384       0.26818469
H       -1.85656052       1.34207014      -0.37370447
H       -0.91353164      -1.07267168      -2.01641202
H       -2.56870268      -0.43280362      -2.01734792
H       -1.24592673       0.54674161      -2.64627477
H       -2.52774870      -0.84780407       0.35217196
