14
Frame=0 idx=006051 GeodesicLength=0.0 rxn_smarts="[C:1]([O:2][C:3]([C:4]#[C:5][C:6]([H:12])([H:13])[H:14])([H:10])[H:11])([H:7])([H:8])[H:9]>>[C:1]([O:2][C:3]([C:5](=[C:4])[C:6]([H:12])([H:13])[H:14])([H:10])[H:11])([H:7])([H:8])[H:9]"
C       -2.20824408       0.66820717      -0.12112152
O       -1.21008793       0.00433780       0.63056753
C       -0.35821223      -0.77680170      -0.10934172
C        0.40682641       0.15008710      -1.42304053
C        1.24891048       0.02601756      -0.50729103
C        2.33219928       0.04835386       0.47523904
H       -2.81688128      -0.05015205      -0.68147193
H       -2.83696599       1.19463666       0.59409252
H       -1.76170718       1.37394314      -0.82486651
H        0.20776186      -1.38983559       0.59743799
H       -0.86395782      -1.46109334      -0.79125810
H        2.75530413      -0.94370142       0.64106054
H        3.12053449       0.69850422       0.09497612
H        1.98451982       0.45749658       1.42501755
14
Frame=1 idx=006051 GeodesicLength=0.044816559181909375 rxn_smarts="[C:1]([O:2][C:3]([C:4]#[C:5][C:6]([H:12])([H:13])[H:14])([H:10])[H:11])([H:7])([H:8])[H:9]>>[C:1]([O:2][C:3]([C:5](=[C:4])[C:6]([H:12])([H:13])[H:14])([H:10])[H:11])([H:7])([H:8])[H:9]"
C       -2.19858121       0.67303373      -0.11379496
O       -1.21402231      -0.01593470       0.63247638
C       -0.36700824      -0.79620281      -0.11730884
C        0.41418665       0.12312835      -1.42747025
C        1.25026367       0.00961468      -0.50654795
C        2.33203383       0.06435108       0.47668482
H       -2.81185618      -0.02638188      -0.69298353
H       -2.82681432       1.19387006       0.60596876
H       -1.73725752       1.38651710      -0.80048545
H        0.18726955      -1.42736346       0.58273717
H       -0.88446204      -1.46674209      -0.80499908
H        2.76123866      -0.92074438       0.66647590
H        3.11679286       0.71096139       0.08321674
H        1.97821659       0.49189294       1.41603028
14
Frame=2 idx=006051 GeodesicLength=0.08979309058312382 rxn_smarts="[C:1]([O:2][C:3]([C:4]#[C:5][C:6]([H:12])([H:13])[H:14])([H:10])[H:11])([H:7])([H:8])[H:9]>>[C:1]([O:2][C:3]([C:5](=[C:4])[C:6]([H:12])([H:13])[H:14])([H:10])[H:11])([H:7])([H:8])[H:9]"
C       -2.18844929       0.67757593      -0.10613156
O       -1.21834193      -0.03702859       0.63438438
C       -0.37602146      -0.81593517      -0.12554868
C        0.42186282       0.09613852      -1.43137897
C        1.25152743      -0.00685589      -0.50506310
C        2.33157222       0.08083619       0.47801518
H       -2.80601050      -0.00198872      -0.70448981
H       -2.81640139       1.19263441       0.61808324
H       -1.71176272       1.39853750      -0.77504735
H        0.16584172      -1.46565725       0.56717383
H       -0.90496221      -1.47184896      -0.81951600
H        2.76570039      -0.89684295       0.69323823
H        3.11353177       0.72213335       0.07047494
H        1.97191314       0.52830162       1.40580570
14
Frame=3 idx=006051 GeodesicLength=0.1349483089007435 rxn_smarts="[C:1]([O:2][C:3]([C:4]#[C:5][C:6]([H:12])([H:13])[H:14])([H:10])[H:11])([H:7])([H:8])[H:9]>>[C:1]([O:2][C:3]([C:5](=[C:4])[C:6]([H:12])([H:13])[H:14])([H:10])[H:11])([H:7])([H:8])[H:9]"
C       -2.17791508       0.68179144      -0.09816830
O       -1.22314084      -0.05891714       0.63624584
C       -0.38526453      -0.83592226      -0.13403708
C        0.42990839       0.06919058      -1.43468558
C        1.25266450      -0.02327281      -0.50270120
C        2.33087631       0.09776847       0.47921738
H       -2.79939339       0.02293683      -0.71591212
H       -2.80578916       1.19093806       0.63037014
H       -1.68530827       1.40987427      -0.74858370
H        0.14340770      -1.50461976       0.55075071
H       -0.92538040      -1.47633210      -0.83480911
H        2.76868313      -0.87200389       0.72126177
H        3.11086282       0.73189363       0.05678373
H        1.96578882       0.56667467       1.39426753
14
Frame=4 idx=006051 GeodesicLength=0.1802548665205011 rxn_smarts="[C:1]([O:2][C:3]([C:4]#[C:5][C:6]([H:12])([H:13])[H:14])([H:10])[H:11])([H:7])([H:8])[H:9]>>[C:1]([O:2][C:3]([C:5](=[C:4])[C:6]([H:12])([H:13])[H:14])([H:10])[H:11])([H:7])([H:8])[H:9]"
C       -2.16696727       0.68564276      -0.08985503
O       -1.22851723      -0.08163546       0.63792019
C       -0.39475006      -0.85614050      -0.14281729
C        0.43835966       0.04231781      -1.43737224
C        1.25365774      -0.03958999      -0.49940533
C        2.32994702       0.11516285       0.48028508
H       -2.79191493       0.04847247      -0.72709798
H       -2.79496532       1.18879459       0.64280501
H       -1.65792897       1.42026836      -0.72095919
H        0.11989681      -1.54420461       0.53339668
H       -0.94565847      -1.48013860      -0.85094255
H        2.77008524      -0.84608419       0.75064474
H        3.10888717       0.74001519       0.04221034
H        1.95986862       0.60711930       1.38118756
14
Frame=5 idx=006051 GeodesicLength=0.225700031899633 rxn_smarts="[C:1]([O:2][C:3]([C:4]#[C:5][C:6]([H:12])([H:13])[H:14])([H:10])[H:11])([H:7])([H:8])[H:9]>>[C:1]([O:2][C:3]([C:5](=[C:4])[C:6]([H:12])([H:13])[H:14])([H:10])[H:11])([H:7])([H:8])[H:9]"
C       -2.15566990       0.68908461      -0.08120627
O       -1.23455319      -0.10512420       0.63931780
C       -0.40448659      -0.87652474      -0.15188507
C        0.44725147       0.01557065      -1.43938919
C        1.25447727      -0.05571910      -0.49508391
C        2.32884212       0.13299772       0.48119828
H       -2.78355046       0.07456974      -0.73796158
H       -2.78398667       1.18620146       0.65536427
H       -1.62974526       1.42954323      -0.69215352
H        0.09524264      -1.58430242       0.51509949
H       -0.96571928      -1.48318923      -0.86792160
H        2.76988572      -0.81900654       0.78135933
H        3.10771693       0.74631627       0.02684870
H        1.95429521       0.64958255       1.36641328
14
Frame=6 idx=006051 GeodesicLength=0.27131289555610616 rxn_smarts="[C:1]([O:2][C:3]([C:4]#[C:5][C:6]([H:12])([H:13])[H:14])([H:10])[H:11])([H:7])([H:8])[H:9]>>[C:1]([O:2][C:3]([C:5](=[C:4])[C:6]([H:12])([H:13])[H:14])([H:10])[H:11])([H:7])([H:8])[H:9]"
C       -2.14404234       0.69208847      -0.07219135
O       -1.24134046      -0.12938503       0.64034467
C       -0.41449285      -0.89704826      -0.16123830
C        0.45662560      -0.01107153      -1.44068016
C        1.25507362      -0.07159560      -0.48963986
C        2.32759453       0.15125856       0.48194456
H       -2.77424586       0.10125053      -0.74845150
H       -2.77290559       1.18312678       0.66803061
H       -1.60081793       1.43759585      -0.66211605
H        0.06937690      -1.62485329       0.49581228
H       -0.98551145      -1.48543657      -0.88573832
H        2.76807611      -0.79060694       0.81338323
H        3.10741764       0.75062848       0.01081139
H        1.94919208       0.69404855       1.34972879
14
Frame=7 idx=006051 GeodesicLength=0.3171026269777376 rxn_smarts="[C:1]([O:2][C:3]([C:4]#[C:5][C:6]([H:12])([H:13])[H:14])([H:10])[H:11])([H:7])([H:8])[H:9]>>[C:1]([O:2][C:3]([C:5](=[C:4])[C:6]([H:12])([H:13])[H:14])([H:10])[H:11])([H:7])([H:8])[H:9]"
C       -2.13214981       0.69464730      -0.06285810
O       -1.24891573      -0.15431742       0.64099211
C       -0.42477439      -0.91765296      -0.17082511
C        0.46651370      -0.03764206      -1.44118102
C        1.25541098      -0.08717419      -0.48296951
C        2.32627522       0.16990532       0.48250218
H       -2.76402614       0.12843267      -0.75853491
H       -2.76179224       1.17959639       0.68074367
H       -1.57126518       1.44436342      -0.63095314
H        0.04223288      -1.66574745       0.47555883
H       -1.00499158      -1.48682119      -0.90430985
H        2.76483380      -0.76082643       0.84647273
H        3.10797563       0.75302458      -0.00575177
H        1.94467287       0.74021201       1.33111390
14
Frame=8 idx=006051 GeodesicLength=0.36310227163396913 rxn_smarts="[C:1]([O:2][C:3]([C:4]#[C:5][C:6]([H:12])([H:13])[H:14])([H:10])[H:11])([H:7])([H:8])[H:9]>>[C:1]([O:2][C:3]([C:5](=[C:4])[C:6]([H:12])([H:13])[H:14])([H:10])[H:11])([H:7])([H:8])[H:9]"
C       -2.12000535       0.69672782      -0.05317276
O       -1.25735665      -0.17993849       0.64116654
C       -0.43534360      -0.93833186      -0.18064406
C        0.47693958      -0.06419713      -1.44083935
C        1.25542602      -0.10240106      -0.47499977
C        2.32489076       0.18895045       0.48285521
H       -2.75277041       0.15618808      -0.76819090
H       -2.75070696       1.17555018       0.69349577
H       -1.54110304       1.44976416      -0.59851698
H        0.01376302      -1.70693479       0.45427136
H       -1.02410559      -1.48731207      -0.92363120
H        2.76011162      -0.72942352       0.88063453
H        3.10942278       0.75328668      -0.02271202
H        1.94083780       0.78807154       1.31028364
14
Frame=9 idx=006051 GeodesicLength=0.4092617408915816 rxn_smarts="[C:1]([O:2][C:3]([C:4]#[C:5][C:6]([H:12])([H:13])[H:14])([H:10])[H:11])([H:7])([H:8])[H:9]>>[C:1]([O:2][C:3]([C:5](=[C:4])[C:6]([H:12])([H:13])[H:14])([H:10])[H:11])([H:7])([H:8])[H:9]"
C       -2.10793323       0.69828932      -0.04332015
O       -1.26658827      -0.20582930       0.64113132
C       -0.44613802      -0.95883977      -0.19050947
C        0.48799853      -0.09059102      -1.43934569
C        1.25516815      -0.11706612      -0.46546430
C        2.32374203       0.20820221       0.48299044
H       -2.74089874       0.18391947      -0.77746616
H       -2.73995586       1.17101544       0.70617015
H       -1.51089093       1.45402559      -0.56560534
H       -0.01604020      -1.74816105       0.43195785
H       -1.04274181      -1.48668709      -0.94343058
H        2.75437367      -0.69669871       0.91521362
H        3.11170476       0.75161973      -0.03982177
H        1.93819993       0.83680130       1.28750007
14
Frame=10 idx=006051 GeodesicLength=0.45569724463220124 rxn_smarts="[C:1]([O:2][C:3]([C:4]#[C:5][C:6]([H:12])([H:13])[H:14])([H:10])[H:11])([H:7])([H:8])[H:9]>>[C:1]([O:2][C:3]([C:5](=[C:4])[C:6]([H:12])([H:13])[H:14])([H:10])[H:11])([H:7])([H:8])[H:9]"
C       -2.09563567       0.69935442      -0.03309780
O       -1.27679232      -0.23235979       0.64054426
C       -0.45722731      -0.97939965      -0.20058168
C        0.49964392      -0.11709887      -1.43689637
C        1.25447963      -0.13126511      -0.45450557
C        2.32256351       0.22783520       0.48287242
H       -2.72788934       0.21221562      -0.78627463
H       -2.72932713       1.16592615       0.71885981
H       -1.48014549       1.45681022      -0.53130282
H       -0.04724962      -1.78953576       0.40849486
H       -1.06089981      -1.48509903      -0.96392117
H        2.74723794      -0.66197034       0.95070184
H        3.11481877       0.74762090      -0.05699647
H        1.93642291       0.88696604       1.26210333
14
Frame=11 idx=006051 GeodesicLength=0.5024913702105269 rxn_smarts="[C:1]([O:2][C:3]([C:4]#[C:5][C:6]([H:12])([H:13])[H:14])([H:10])[H:11])([H:7])([H:8])[H:9]>>[C:1]([O:2][C:3]([C:5](=[C:4])[C:6]([H:12])([H:13])[H:14])([H:10])[H:11])([H:7])([H:8])[H:9]"
C       -2.08316545       0.69988432      -0.02250163
O       -1.28804313      -0.25949373       0.63938624
C       -0.46861087      -0.99998288      -0.21085609
C        0.51188736      -0.14374848      -1.43342820
C        1.25330481      -0.14489778      -0.44206811
C        2.32139557       0.24781893       0.48246803
H       -2.71367912       0.24104199      -0.79459609
H       -2.71888351       1.16026509       0.73156613
H       -1.44896615       1.45806361      -0.49559274
H       -0.07988368      -1.83096522       0.38382942
H       -1.07851329      -1.48250485      -0.98508136
H        2.73872703      -0.62506763       0.98702970
H        3.11877016       0.74116841      -0.07407194
H        1.93566026       0.93841821       1.23391665
14
Frame=12 idx=006051 GeodesicLength=0.5494924257674391 rxn_smarts="[C:1]([O:2][C:3]([C:4]#[C:5][C:6]([H:12])([H:13])[H:14])([H:10])[H:11])([H:7])([H:8])[H:9]>>[C:1]([O:2][C:3]([C:5](=[C:4])[C:6]([H:12])([H:13])[H:14])([H:10])[H:11])([H:7])([H:8])[H:9]"
C       -2.07055007       0.70000158      -0.01177611
O       -1.30033271      -0.28695227       0.63770988
C       -0.48031200      -1.02053058      -0.22105920
C        0.52477306      -0.17086983      -1.42878857
C        1.25155481      -0.15801334      -0.42797664
C        2.32029790       0.26804780       0.48173633
H       -2.69838197       0.27028434      -0.80253532
H       -2.70862414       1.15436350       0.74393113
H       -1.41735023       1.45780562      -0.45893432
H       -0.11403488      -1.87220611       0.35835853
H       -1.09556257      -1.47896813      -1.00654213
H        2.72998421      -0.58636127       1.02285660
H        3.12287507       0.73365060      -0.09086587
H        1.93566352       0.98974809       1.20388567
14
Frame=13 idx=006051 GeodesicLength=0.5968731169572047 rxn_smarts="[C:1]([O:2][C:3]([C:4]#[C:5][C:6]([H:12])([H:13])[H:14])([H:10])[H:11])([H:7])([H:8])[H:9]>>[C:1]([O:2][C:3]([C:5](=[C:4])[C:6]([H:12])([H:13])[H:14])([H:10])[H:11])([H:7])([H:8])[H:9]"
C       -2.05786216       0.69957691      -0.00076802
O       -1.31376940      -0.31483572       0.63546042
C       -0.49229294      -1.04101936      -0.23132430
C        0.53829282      -0.19828585      -1.42292782
C        1.24914869      -0.17031509      -0.41223884
C        2.31929147       0.28852964       0.48065400
H       -2.68183869       0.29993737      -0.81004269
H       -2.69874395       1.14791844       0.75613752
H       -1.38544453       1.45597078      -0.42097201
H       -0.14961389      -1.91321401       0.33176870
H       -1.11189859      -1.47438147      -1.02848243
H        2.72031389      -0.54544851       1.05884802
H        3.12753893       0.72395756      -0.10729495
H        1.93687836       1.04160932       1.17118240
14
Frame=14 idx=006051 GeodesicLength=0.6446993070694707 rxn_smarts="[C:1]([O:2][C:3]([C:4]#[C:5][C:6]([H:12])([H:13])[H:14])([H:10])[H:11])([H:7])([H:8])[H:9]>>[C:1]([O:2][C:3]([C:5](=[C:4])[C:6]([H:12])([H:13])[H:14])([H:10])[H:11])([H:7])([H:8])[H:9]"
C       -2.04502533       0.69861965       0.01055934
O       -1.32838247      -0.34318134       0.63258759
C       -0.50454736      -1.06150156      -0.24163830
C        0.55244714      -0.22617556      -1.41579926
C        1.24597011      -0.18172748      -0.39485288
C        2.31829299       0.30929782       0.47917870
H       -2.66383104       0.33013205      -0.81713033
H       -2.68924288       1.14089604       0.76816667
H       -1.35314921       1.45250403      -0.38149439
H       -0.18660570      -1.95394686       0.30397997
H       -1.12747519      -1.46875840      -1.05084210
H        2.70967071      -0.50210434       1.09487181
H        3.13265007       0.71209502      -0.12319278
H        1.93922816       1.09385093       1.13560596
14
Frame=15 idx=006051 GeodesicLength=0.6929842693585224 rxn_smarts="[C:1]([O:2][C:3]([C:4]#[C:5][C:6]([H:12])([H:13])[H:14])([H:10])[H:11])([H:7])([H:8])[H:9]>>[C:1]([O:2][C:3]([C:5](=[C:4])[C:6]([H:12])([H:13])[H:14])([H:10])[H:11])([H:7])([H:8])[H:9]"
C       -2.03209152       0.69713414       0.02213598
O       -1.34420059      -0.37185389       0.62912331
C       -0.51705083      -1.08192746      -0.25189005
C        0.56723667      -0.25464811      -1.40727717
C        1.24191318      -0.19206574      -0.37576337
C        2.31732756       0.33029321       0.47727865
H       -2.64432726       0.36077704      -0.82386615
H       -2.68022711       1.13334693       0.77989003
H       -1.32053022       1.44739957      -0.34060794
H       -0.22498170      -1.99422670       0.27506688
H       -1.14219139      -1.46210593      -1.07345983
H        2.69837053      -0.45643848       1.13039760
H        3.13800441       0.69838501      -0.13839507
H        1.94274825       1.14593044       1.09736712
14
Frame=16 idx=006051 GeodesicLength=0.7419296020251839 rxn_smarts="[C:1]([O:2][C:3]([C:4]#[C:5][C:6]([H:12])([H:13])[H:14])([H:10])[H:11])([H:7])([H:8])[H:9]>>[C:1]([O:2][C:3]([C:5](=[C:4])[C:6]([H:12])([H:13])[H:14])([H:10])[H:11])([H:7])([H:8])[H:9]"
C       -2.01910400       0.69498335       0.03415271
O       -1.36128478      -0.40103931       0.62501173
C       -0.52972991      -1.10229328      -0.26220638
C        0.58262849      -0.28354985      -1.39732998
C        1.23679403      -0.20087754      -0.35504091
C        2.31636801       0.35156202       0.47489484
H       -2.62313103       0.39190773      -0.83018051
H       -2.67189117       1.12490485       0.79150556
H       -1.28768275       1.44060473      -0.29779956
H       -0.26455769      -2.03400191       0.24464601
H       -1.15588583      -1.45433542      -1.09645845
H        2.68538614      -0.40793767       1.16608599
H        3.14412929       0.68153488      -0.15266865
H        1.94796119       1.19853741       1.05538759
