9
Frame=0 idx=001922 GeodesicLength=0.0 rxn_smarts="[C:1]([C:2]([C:3]#[N:4])([H:8])[H:9])([H:5])([H:6])[H:7]>>[C:1]([C:2]([N+:4]#[C-:3])([H:8])[H:9])([H:5])([H:6])[H:7]"
C       -0.93710640      -0.29320192       0.04403308
C        0.33699211       0.49788813      -0.08356825
C        1.60694046      -0.65022202      -0.54020645
N        1.86451647      -0.35593561       0.57708393
H       -1.77662373       0.40426549       0.10705107
H       -0.92904019      -0.89661784       0.95099827
H       -1.08857941      -0.95125787      -0.80992149
H        0.49476214       1.17191283       0.75442968
H        0.42813856       1.07316878      -0.99989987
9
Frame=1 idx=001922 GeodesicLength=0.04499129502589983 rxn_smarts="[C:1]([C:2]([C:3]#[N:4])([H:8])[H:9])([H:5])([H:6])[H:7]>>[C:1]([C:2]([N+:4]#[C-:3])([H:8])[H:9])([H:5])([H:6])[H:7]"
C       -0.94033808      -0.29252971       0.04188710
C        0.34033228       0.49155070      -0.07938042
C        1.60315564      -0.68264410      -0.52346243
N        1.89725657      -0.32340254       0.56221621
H       -1.77699534       0.40748621       0.11208431
H       -0.93470417      -0.90434617       0.94328554
H       -1.09935878      -0.93979560      -0.81902405
H        0.48231882       1.17271276       0.75641554
H        0.42833305       1.07096846      -0.99402180
9
Frame=2 idx=001922 GeodesicLength=0.08958117690839121 rxn_smarts="[C:1]([C:2]([C:3]#[N:4])([H:8])[H:9])([H:5])([H:6])[H:7]>>[C:1]([C:2]([N+:4]#[C-:3])([H:8])[H:9])([H:5])([H:6])[H:7]"
C       -0.94369786      -0.29178394       0.03967797
C        0.34356698       0.48522650      -0.07482213
C        1.59954092      -0.71502883      -0.50417418
N        1.92994903      -0.29055418       0.54366149
H       -1.77755830       0.41070264       0.11615119
H       -0.94125328      -0.91141457       0.93580142
H       -1.10920966      -0.92872885      -0.82778862
H        0.47042181       1.17256040       0.75912256
H        0.42824035       1.06902083      -0.98762970
9
Frame=3 idx=001922 GeodesicLength=0.13408042050669136 rxn_smarts="[C:1]([C:2]([C:3]#[N:4])([H:8])[H:9])([H:5])([H:6])[H:7]>>[C:1]([C:2]([N+:4]#[C-:3])([H:8])[H:9])([H:5])([H:6])[H:7]"
C       -0.94720901      -0.29096469       0.03738206
C        0.34668570       0.47890287      -0.06978278
C        1.59590034      -0.74761358      -0.48182953
N        1.96287942      -0.25704897       0.52074378
H       -1.77836115       0.41394000       0.11901959
H       -0.94880569      -0.91782417       0.92853271
H       -1.11809100      -0.91805961      -0.83630655
H        0.45913546       1.17130700       0.76282074
H        0.42786592       1.06736115      -0.98058001
9
Frame=4 idx=001922 GeodesicLength=0.17762210223025443 rxn_smarts="[C:1]([C:2]([C:3]#[N:4])([H:8])[H:9])([H:5])([H:6])[H:7]>>[C:1]([C:2]([N+:4]#[C-:3])([H:8])[H:9])([H:5])([H:6])[H:7]"
C       -0.95072394      -0.29006299       0.03503340
C        0.34967777       0.47278183      -0.06451944
C        1.59297486      -0.77920204      -0.45710833
N        1.99462228      -0.22462720       0.49416143
H       -1.77936370       0.41713893       0.12065577
H       -0.95716272      -0.92324175       0.92176570
H       -1.12561823      -0.90831025      -0.84426746
H        0.44871060       1.16913972       0.76730039
H        0.42688308       1.06638374      -0.97302145
9
Frame=5 idx=001922 GeodesicLength=0.2208247750090863 rxn_smarts="[C:1]([C:2]([C:3]#[N:4])([H:8])[H:9])([H:5])([H:6])[H:7]>>[C:1]([C:2]([N+:4]#[C-:3])([H:8])[H:9])([H:5])([H:6])[H:7]"
C       -0.95430797      -0.28906935       0.03259740
C        0.35254725       0.46683180      -0.05861077
C        1.59007006      -0.81027166      -0.42949806
N        2.02608692      -0.19253538       0.46237402
H       -1.78070121       0.42031873       0.11981398
H       -0.96677509      -0.92724063       0.91573701
H       -1.13150655      -0.89989718      -0.85150343
H        0.43928943       1.16551937       0.77340037
H        0.42529714       1.06634430      -0.96431053
9
Frame=6 idx=001922 GeodesicLength=0.26338893575495725 rxn_smarts="[C:1]([C:2]([C:3]#[N:4])([H:8])[H:9])([H:5])([H:6])[H:7]>>[C:1]([C:2]([N+:4]#[C-:3])([H:8])[H:9])([H:5])([H:6])[H:7]"
C       -0.95784718      -0.28802102       0.03006545
C        0.35529733       0.46109497      -0.05259870
C        1.58801309      -0.84036483      -0.39861235
N        2.05603624      -0.16153316       0.42647629
H       -1.78211547       0.42349527       0.11811764
H       -0.97704648      -0.93058796       0.90995763
H       -1.13616197      -0.89210340      -0.85852330
H        0.43074744       1.16099871       0.78027189
H        0.42307701       1.06702141      -0.95515454
9
Frame=7 idx=001922 GeodesicLength=0.30553509571996246 rxn_smarts="[C:1]([C:2]([C:3]#[N:4])([H:8])[H:9])([H:5])([H:6])[H:7]>>[C:1]([C:2]([N+:4]#[C-:3])([H:8])[H:9])([H:5])([H:6])[H:7]"
C       -0.96132901      -0.28690807       0.02741125
C        0.35792257       0.45564889      -0.04637656
C        1.58669439      -0.86937178      -0.36418675
N        2.08446810      -0.13183072       0.38582239
H       -1.78368244       0.42665065       0.11502279
H       -0.98807016      -0.93305601       0.90455183
H       -1.13934584      -0.88522432      -0.86523071
H        0.42322002       1.15539115       0.78827370
H        0.42012238       1.06870020      -0.94528795
9
Frame=8 idx=001922 GeodesicLength=0.3472916791401745 rxn_smarts="[C:1]([C:2]([C:3]#[N:4])([H:8])[H:9])([H:5])([H:6])[H:7]>>[C:1]([C:2]([N+:4]#[C-:3])([H:8])[H:9])([H:5])([H:6])[H:7]"
C       -0.96471028      -0.28575624       0.02462231
C        0.36041952       0.45056326      -0.04013156
C        1.58645775      -0.89694672      -0.32596961
N        2.11080516      -0.10397515       0.34062598
H       -1.78533916       0.42976221       0.11095020
H       -0.99961876      -0.93486745       0.89935386
H       -1.14114666      -0.87909323      -0.87178135
H        0.41673122       1.14886908       0.79718991
H        0.41640121       1.07144424      -0.93485973
9
Frame=9 idx=001922 GeodesicLength=0.38882409029561493 rxn_smarts="[C:1]([C:2]([C:3]#[N:4])([H:8])[H:9])([H:5])([H:6])[H:7]>>[C:1]([C:2]([N+:4]#[C-:3])([H:8])[H:9])([H:5])([H:6])[H:7]"
C       -0.96783886      -0.28448498       0.02166324
C        0.36277577       0.44613765      -0.03342225
C        1.58641088      -0.92287054      -0.28342633
N        2.13521090      -0.07847014       0.28902033
H       -1.78724120       0.43257530       0.10419561
H       -1.01200014      -0.93533583       0.89474808
H       -1.14059336      -0.87455395      -0.87767868
H        0.41158612       1.14096085       0.80795601
H        0.41168989       1.07604164      -0.92305601
9
Frame=10 idx=001922 GeodesicLength=0.42939854507769143 rxn_smarts="[C:1]([C:2]([C:3]#[N:4])([H:8])[H:9])([H:5])([H:6])[H:7]>>[C:1]([C:2]([N+:4]#[C-:3])([H:8])[H:9])([H:5])([H:6])[H:7]"
C       -0.97064208      -0.28321072       0.01861919
C        0.36499100       0.44238400      -0.02703651
C        1.58805247      -0.94594302      -0.23820339
N        2.15584804      -0.05703807       0.23438552
H       -1.78907870       0.43517048       0.09670033
H       -1.02425133      -0.93514103       0.89043872
H       -1.13848604      -0.87099499      -0.88322683
H        0.40739837       1.13262666       0.81915400
H        0.40616828       1.08214669      -0.91083104
9
Frame=11 idx=001922 GeodesicLength=0.46957463434499486 rxn_smarts="[C:1]([C:2]([C:3]#[N:4])([H:8])[H:9])([H:5])([H:6])[H:7]>>[C:1]([C:2]([N+:4]#[C-:3])([H:8])[H:9])([H:5])([H:6])[H:7]"
C       -0.97310962      -0.28192482       0.01543729
C        0.36706373       0.43938090      -0.02072762
C        1.59111637      -0.96614533      -0.18965497
N        2.17288962      -0.03976066       0.17558969
H       -1.79093281       0.43747147       0.08787463
H       -1.03652799      -0.93417959       0.88642112
H       -1.13453800      -0.86856176      -0.88841932
H        0.40424215       1.12368783       0.83121283
H        0.39979656       1.09003195      -0.89773365
9
Frame=12 idx=001922 GeodesicLength=0.5095362777239241 rxn_smarts="[C:1]([C:2]([C:3]#[N:4])([H:8])[H:9])([H:5])([H:6])[H:7]>>[C:1]([C:2]([N+:4]#[C-:3])([H:8])[H:9])([H:5])([H:6])[H:7]"
C       -0.97513616      -0.28061231       0.01209638
C        0.36899624       0.43736513      -0.01444040
C        1.59546786      -0.98304708      -0.13755437
N        2.18598883      -0.02743992       0.11239659
H       -1.79285879       0.43927143       0.07769440
H       -1.04864904      -0.93260434       0.88255126
H       -1.12851259      -0.86723666      -0.89327171
H        0.40207217       1.11437103       0.84414966
H        0.39263147       1.09993273      -0.88362183
9
Frame=13 idx=001922 GeodesicLength=0.549362012097697 rxn_smarts="[C:1]([C:2]([C:3]#[N:4])([H:8])[H:9])([H:5])([H:6])[H:7]>>[C:1]([C:2]([N+:4]#[C-:3])([H:8])[H:9])([H:5])([H:6])[H:7]"
C       -0.97663379      -0.27927276       0.00860915
C        0.37078023       0.43655706      -0.00810043
C        1.60118438      -0.99602514      -0.08225458
N        2.19458950      -0.02108109       0.04512788
H       -1.79490037       0.44038889       0.06623236
H       -1.06034014      -0.93060216       0.87871504
H       -1.12027127      -0.86697225      -0.89777321
H        0.40074444       1.10506939       0.85786848
H        0.38484702       1.11193806      -0.86842469
9
Frame=14 idx=001922 GeodesicLength=0.5889680043091128 rxn_smarts="[C:1]([C:2]([C:3]#[N:4])([H:8])[H:9])([H:5])([H:6])[H:7]>>[C:1]([C:2]([N+:4]#[C-:3])([H:8])[H:9])([H:5])([H:6])[H:7]"
C       -0.97760896      -0.27797687       0.00503993
C        0.37236610       0.43669897      -0.00180552
C        1.60914732      -1.00447372      -0.02506423
N        2.19770740      -0.02109160      -0.02454914
H       -1.79666280       0.44106064       0.05411856
H       -1.07128918      -0.92836623       0.87488936
H       -1.11017902      -0.86727213      -0.90207699
H        0.39977453       1.09598859       0.87187559
H        0.37674460       1.12543236      -0.85242757
9
Frame=15 idx=001922 GeodesicLength=0.6287005928842432 rxn_smarts="[C:1]([C:2]([C:3]#[N:4])([H:8])[H:9])([H:5])([H:6])[H:7]>>[C:1]([C:2]([N+:4]#[C-:3])([H:8])[H:9])([H:5])([H:6])[H:7]"
C       -0.97798601      -0.27667517       0.00139530
C        0.37379393       0.43821650       0.00469372
C        1.61907263      -1.00795787       0.03370581
N        2.19519824      -0.02848192      -0.09651379
H       -1.79847247       0.44095021       0.04141530
H       -1.08124235      -0.92627879       0.87081625
H       -1.09800869      -0.86809705      -0.90619034
H        0.39899579       1.08778408       0.88625782
H        0.36864893       1.14054002      -0.83558007
9
Frame=16 idx=001922 GeodesicLength=0.6686176150651975 rxn_smarts="[C:1]([C:2]([C:3]#[N:4])([H:8])[H:9])([H:5])([H:6])[H:7]>>[C:1]([C:2]([N+:4]#[C-:3])([H:8])[H:9])([H:5])([H:6])[H:7]"
C       -0.97767538      -0.27533200      -0.00227142
C        0.37505397       0.44121584       0.01155691
C        1.63104985      -1.00601520       0.09286824
N        2.18649412      -0.04383699      -0.16961771
H       -1.80026350       0.43995962       0.02839699
H       -1.08986619      -0.92459291       0.86636881
H       -1.08376776      -0.86916032      -0.91013093
H        0.39800996       1.08087266       0.90091516
H        0.36096494       1.15688931      -0.81808606
