16
Frame=0 idx=003092 GeodesicLength=0.0 rxn_smarts="[C:1]1([H:7])([H:8])[C:2]([H:9])([H:10])[C@:3]2([H:11])[C:4]([H:12])([H:13])[C:5]([H:14])([H:15])[C@:6]12[H:16]>>[C:1]([C:2]([H:9])([H:10])[H:11])([C@@:6]1([H:16])[C:3][C:4]([H:12])([H:13])[C:5]1([H:14])[H:15])([H:7])[H:8]"
C       -0.86109784      -1.14793767       0.43568502
C       -1.40752808       0.26038161       0.64006064
C       -0.28735629       0.49925152      -1.15022520
C        0.94929888       1.21336030      -0.59379407
C        1.47125926      -0.08003612       0.06835988
C        0.25759904      -0.82892299      -0.53718750
H       -0.56353016      -1.65934474       1.35545742
H       -1.61562877      -1.76126803      -0.06076230
H       -2.48091482       0.35442749       0.81216442
H       -0.85416400       0.88041756       1.33992273
H       -1.39506411       0.76060755      -0.52428920
H        1.55181949       1.52950189      -1.45088053
H        0.79741016       2.09577660       0.02897052
H        1.49041584      -0.07302476       1.16083024
H        2.44658195      -0.41813917      -0.28198573
H        0.50089947      -1.62505106      -1.24232630
16
Frame=1 idx=003092 GeodesicLength=0.07219629179414405 rxn_smarts="[C:1]1([H:7])([H:8])[C:2]([H:9])([H:10])[C@:3]2([H:11])[C:4]([H:12])([H:13])[C:5]([H:14])([H:15])[C@:6]12[H:16]>>[C:1]([C:2]([H:9])([H:10])[H:11])([C@@:6]1([H:16])[C:3][C:4]([H:12])([H:13])[C:5]1([H:14])[H:15])([H:7])[H:8]"
C       -0.86393688      -1.14935681       0.43672969
C       -1.41754994       0.25727824       0.63947666
C       -0.28053668       0.50641449      -1.13120268
C        0.96278369       1.21856560      -0.59910210
C        1.47208728      -0.07811481       0.06729686
C        0.25534786      -0.82654699      -0.53527189
H       -0.56071795      -1.65640343       1.35693097
H       -1.61365479      -1.77088773      -0.05680975
H       -2.49201161       0.33570452       0.81260621
H       -0.87672480       0.87549649       1.35125571
H       -1.41441180       0.77313514      -0.53039931
H        1.56745896       1.52071879      -1.45954893
H        0.82015398       2.10357380       0.02194934
H        1.49834763      -0.06649645       1.15919201
H        2.44216922      -0.42503324      -0.28844856
H        0.50119582      -1.61804761      -1.24465423
16
Frame=2 idx=003092 GeodesicLength=0.14439432537389765 rxn_smarts="[C:1]1([H:7])([H:8])[C:2]([H:9])([H:10])[C@:3]2([H:11])[C:4]([H:12])([H:13])[C:5]([H:14])([H:15])[C@:6]12[H:16]>>[C:1]([C:2]([H:9])([H:10])[H:11])([C@@:6]1([H:16])[C:3][C:4]([H:12])([H:13])[C:5]1([H:14])[H:15])([H:7])[H:8]"
C       -0.86670365      -1.15080002       0.43786541
C       -1.42781833       0.25402308       0.63897477
C       -0.27384054       0.51409011      -1.11128092
C        0.97656327       1.22367970      -0.60463768
C        1.47298010      -0.07609380       0.06635239
C        0.25304521      -0.82387376      -0.53330616
H       -0.55779243      -1.65339820       1.35847407
H       -1.61140055      -1.78063244      -0.05275543
H       -2.50325015       0.31672726       0.81242496
H       -0.90004365       0.87002627       1.36296271
H       -1.43372412       0.78571389      -0.53641565
H        1.58286625       1.51130846      -1.46875552
H        0.84385682       2.11141956       0.01449021
H        1.50637401      -0.05981965       1.15760613
H        2.43768413      -0.43194828      -0.29467152
H        0.50120364      -1.61042219      -1.24732778
16
Frame=3 idx=003092 GeodesicLength=0.2165956802413621 rxn_smarts="[C:1]1([H:7])([H:8])[C:2]([H:9])([H:10])[C@:3]2([H:11])[C:4]([H:12])([H:13])[C:5]([H:14])([H:15])[C@:6]12[H:16]>>[C:1]([C:2]([H:9])([H:10])[H:11])([C@@:6]1([H:16])[C:3][C:4]([H:12])([H:13])[C:5]1([H:14])[H:15])([H:7])[H:8]"
C       -0.86939753      -1.15226421       0.43909222
C       -1.43834010       0.25060668       0.63856728
C       -0.26723976       0.52229369      -1.09040787
C        0.99063154       1.22868923      -0.61041429
C        1.47394502      -0.07396496       0.06553588
C        0.25068846      -0.82088185      -0.53128262
H       -0.55475564      -1.65033094       1.36008247
H       -1.60885337      -1.79049422      -0.04861190
H       -2.51464014       0.29748335       0.81159113
H       -0.92416008       0.86396947       1.37505865
H       -1.45297748       0.79836304      -0.54232758
H        1.59799299       1.50123430      -1.47852393
H        0.86856164       2.11930081       0.00655164
H        1.51450501      -0.05298446       1.15607996
H        2.43312607      -0.43888270      -0.30064939
H        0.50091337      -1.60213723      -1.25034165
16
Frame=4 idx=003092 GeodesicLength=0.2887988404365541 rxn_smarts="[C:1]1([H:7])([H:8])[C:2]([H:9])([H:10])[C@:3]2([H:11])[C:4]([H:12])([H:13])[C:5]([H:14])([H:15])[C@:6]12[H:16]>>[C:1]([C:2]([H:9])([H:10])[H:11])([C@@:6]1([H:16])[C:3][C:4]([H:12])([H:13])[C:5]1([H:14])[H:15])([H:7])[H:8]"
C       -0.87201665      -1.15374573       0.44041167
C       -1.44912189       0.24701990       0.63826367
C       -0.26070463       0.53104058      -1.06852432
C        1.00498193       1.23357807      -0.61644673
C        1.47499157      -0.07172128       0.06485640
C        0.24827505      -0.81754871      -0.52919248
H       -0.55160839      -1.64720100       1.36175466
H       -1.60599823      -1.80046594      -0.04438999
H       -2.52619215       0.27796043       0.81006425
H       -0.94911804       0.85728630       1.38755776
H       -1.47214274       0.81110636      -0.54812309
H        1.61278050       1.49045973      -1.48887442
H        0.89431186       2.12720015      -0.00190782
H        1.52275433      -0.04598135       1.15462013
H        2.42849528      -0.44583544      -0.30638034
H        0.50031218      -1.59315205      -1.25368934
16
Frame=5 idx=003092 GeodesicLength=0.3610066581827563 rxn_smarts="[C:1]1([H:7])([H:8])[C:2]([H:9])([H:10])[C@:3]2([H:11])[C:4]([H:12])([H:13])[C:5]([H:14])([H:15])[C@:6]12[H:16]>>[C:1]([C:2]([H:9])([H:10])[H:11])([C@@:6]1([H:16])[C:3][C:4]([H:12])([H:13])[C:5]1([H:14])[H:15])([H:7])[H:8]"
C       -0.87455890      -1.15524053       0.44182538
C       -1.46017118       0.24325352       0.63807051
C       -0.25420121       0.54034428      -1.04556485
C        1.01960254       1.23832829      -0.62274811
C        1.47613174      -0.06935608       0.06432371
C        0.24580336      -0.81385136      -0.52702516
H       -0.54835230      -1.64400617       1.36349078
H       -1.60281947      -1.81054084      -0.04010134
H       -2.53791282       0.25815015       0.80780535
H       -0.97496146       0.84993657       1.40046927
H       -1.49118809       0.82396859      -0.55379517
H        1.62716285       1.47895067      -1.49982347
H        0.92114727       2.13509502      -0.01093237
H        1.53113893      -0.03880301       1.15323482
H        2.42379293      -0.45280454      -0.31186306
H        0.49938580      -1.58342455      -1.25736630
16
Frame=6 idx=003092 GeodesicLength=0.4332176264636178 rxn_smarts="[C:1]1([H:7])([H:8])[C:2]([H:9])([H:10])[C@:3]2([H:11])[C:4]([H:12])([H:13])[C:5]([H:14])([H:15])[C@:6]12[H:16]>>[C:1]([C:2]([H:9])([H:10])[H:11])([C@@:6]1([H:16])[C:3][C:4]([H:12])([H:13])[C:5]1([H:14])[H:15])([H:7])[H:8]"
C       -0.87702129      -1.15674158       0.44333864
C       -1.47149516       0.23930125       0.63799237
C       -0.24769130       0.55022072      -1.02145341
C        1.03447711       1.24292023      -0.62932814
C        1.47738062      -0.06686469       0.06394641
C        0.24327107      -0.80976447      -0.52476798
H       -0.54498789      -1.64073805       1.36529558
H       -1.59929800      -1.82071000      -0.03575260
H       -2.54981024       0.23803635       0.80475649
H       -1.00174647       0.84187514       1.41379889
H       -1.51007212       0.83697970      -0.55933421
H        1.64106284       1.46667298      -1.51138752
H        0.94911009       2.14295637      -0.02056510
H        1.53968438      -0.03144630       1.15192973
H        2.41902045      -0.45978942      -0.31710603
H        0.49811592      -1.57290823      -1.26136312
16
Frame=7 idx=003092 GeodesicLength=0.5054331523518019 rxn_smarts="[C:1]1([H:7])([H:8])[C:2]([H:9])([H:10])[C@:3]2([H:11])[C:4]([H:12])([H:13])[C:5]([H:14])([H:15])[C@:6]12[H:16]>>[C:1]([C:2]([H:9])([H:10])[H:11])([C@@:6]1([H:16])[C:3][C:4]([H:12])([H:13])[C:5]1([H:14])[H:15])([H:7])[H:8]"
C       -0.87939932      -1.15824192       0.44495703
C       -1.48309952       0.23515752       0.63803033
C       -0.24113302       0.56068129      -0.99610847
C        1.04958450       1.24733262      -0.63619233
C        1.47875777      -0.06424452       0.06373377
C        0.24067796      -0.80526265      -0.52240553
H       -0.54151661      -1.63738655       1.36717736
H       -1.59541323      -1.83096542      -0.03135090
H       -2.56188747       0.21761319       0.80085596
H       -1.02952661       0.83305836       1.42754486
H       -1.52874971       0.85017253      -0.56473601
H        1.65438859       1.45359598      -1.52357517
H        0.97822967       2.15074651      -0.03084975
H        1.54842253      -0.02391285       1.15071138
H        2.41418196      -0.46678870      -0.32212133
H        0.49648249      -1.56155540      -1.26567123
16
Frame=8 idx=003092 GeodesicLength=0.5776500302954802 rxn_smarts="[C:1]1([H:7])([H:8])[C:2]([H:9])([H:10])[C@:3]2([H:11])[C:4]([H:12])([H:13])[C:5]([H:14])([H:15])[C@:6]12[H:16]>>[C:1]([C:2]([H:9])([H:10])[H:11])([C@@:6]1([H:16])[C:3][C:4]([H:12])([H:13])[C:5]1([H:14])[H:15])([H:7])[H:8]"
C       -0.88168730      -1.15973169       0.44669187
C       -1.49499025       0.23081964       0.63817904
C       -0.23447844       0.57173350      -0.96943962
C        1.06489433       1.25153960      -0.64334542
C        1.48028670      -0.06149719       0.06368977
C        0.23802265      -0.80032148      -0.51992083
H       -0.53793690      -1.63393262       1.36915157
H       -1.59114206      -1.84129859      -0.02689272
H       -2.57414435       0.19687887       0.79602703
H       -1.05836978       0.82343865       1.44169571
H       -1.54716229       0.86358031      -0.57000012
H        1.66703886       1.43970658      -1.53638313
H        1.00853089       2.15842036      -0.04182224
H        1.55739750      -0.01621269       1.14958008
H        2.40928013      -0.47380234      -0.32693412
H        0.49446031      -1.54932091      -1.27027687
16
Frame=9 idx=003092 GeodesicLength=0.6498759856515548 rxn_smarts="[C:1]1([H:7])([H:8])[C:2]([H:9])([H:10])[C@:3]2([H:11])[C:4]([H:12])([H:13])[C:5]([H:14])([H:15])[C@:6]12[H:16]>>[C:1]([C:2]([H:9])([H:10])[H:11])([C@@:6]1([H:16])[C:3][C:4]([H:12])([H:13])[C:5]1([H:14])[H:15])([H:7])[H:8]"
C       -0.88387718      -1.16120063       0.44855582
C       -1.50717209       0.22628624       0.63842160
C       -0.22767476       0.58338742      -0.94134346
C        1.08038055       1.25551055      -0.65078578
C        1.48199938      -0.05863068       0.06382092
C        0.23531199      -0.79492478      -0.51728862
H       -0.53425282      -1.63034968       1.37124085
H       -1.58645616      -1.85170423      -0.02237345
H       -2.58657563       0.17583791       0.79019186
H       -1.08832799       0.81298971       1.45623579
H       -1.56525680       0.87722237      -0.57515857
H        1.67887781       1.42497938      -1.54980678
H        1.04001984       2.16592509      -0.05349498
H        1.56666232      -0.00836363       1.14853852
H        2.40432662      -0.48083053      -0.33157558
H        0.49201492      -1.53613451      -1.27517812
16
Frame=10 idx=003092 GeodesicLength=0.7221025688433231 rxn_smarts="[C:1]1([H:7])([H:8])[C:2]([H:9])([H:10])[C@:3]2([H:11])[C:4]([H:12])([H:13])[C:5]([H:14])([H:15])[C@:6]12[H:16]>>[C:1]([C:2]([H:9])([H:10])[H:11])([C@@:6]1([H:16])[C:3][C:4]([H:12])([H:13])[C:5]1([H:14])[H:15])([H:7])[H:8]"
C       -0.88596152      -1.16263224       0.45057227
C       -1.51965158       0.22156015       0.63874064
C       -0.22065875       0.59563395      -0.91171323
C        1.09597770       1.25922437      -0.65849163
C        1.48392816      -0.05565470       0.06412285
C        0.23253962      -0.78904093      -0.51448639
H       -0.53045963      -1.62659920       1.37347953
H       -1.58132508      -1.86217372      -0.01776973
H       -2.59917619       0.15449077       0.78323060
H       -1.11949029       0.80165838       1.47112547
H       -1.58293807       0.89115157      -0.58020518
H        1.68978606       1.40943213      -1.56382636
H        1.07270106       2.17319382      -0.06590049
H        1.57629212      -0.00040458       1.14757727
H        2.39932222      -0.48787120      -0.33610940
H        0.48911419      -1.52196857      -1.28034622
16
Frame=11 idx=003092 GeodesicLength=0.7943294144995544 rxn_smarts="[C:1]1([H:7])([H:8])[C:2]([H:9])([H:10])[C@:3]2([H:11])[C:4]([H:12])([H:13])[C:5]([H:14])([H:15])[C@:6]12[H:16]>>[C:1]([C:2]([H:9])([H:10])[H:11])([C@@:6]1([H:16])[C:3][C:4]([H:12])([H:13])[C:5]1([H:14])[H:15])([H:7])[H:8]"
C       -0.88792874      -1.16400892       0.45276986
C       -1.53243011       0.21664906       0.63910433
C       -0.21336197       0.60845764      -0.88043434
C        1.11162110       1.26265369      -0.66643601
C        1.48611613      -0.05258979       0.06458652
C        0.22970735      -0.78265029      -0.51148500
H       -0.52655566      -1.62262986       1.37591497
H       -1.57571547      -1.87270228      -0.01304826
H       -2.61193108       0.13285697       0.77502325
H       -1.15194064       0.78941257       1.48630877
H       -1.60011011       0.90540025      -0.58517381
H        1.69960958       1.39309702      -1.57840285
H        1.10655058       2.18015085      -0.07903649
H        1.58637903       0.00760841       1.14668145
H        2.39427591      -0.49492454      -0.34061693
H        0.48571411      -1.50678078      -1.28575548
16
Frame=12 idx=003092 GeodesicLength=0.8665515801810877 rxn_smarts="[C:1]1([H:7])([H:8])[C:2]([H:9])([H:10])[C@:3]2([H:11])[C:4]([H:12])([H:13])[C:5]([H:14])([H:15])[C@:6]12[H:16]>>[C:1]([C:2]([H:9])([H:10])[H:11])([C@@:6]1([H:16])[C:3][C:4]([H:12])([H:13])[C:5]1([H:14])[H:15])([H:7])[H:8]"
C       -0.88976586      -1.16531017       0.45518809
C       -1.54550259       0.21156951       0.63947476
C       -0.20570588       0.62182153      -0.84739159
C        1.12721781       1.26577367      -0.67457132
C        1.48861295      -0.04946476       0.06519589
C        0.22681655      -0.77573859      -0.50824949
H       -0.52253848      -1.61837810       1.37860892
H       -1.56959318      -1.88328383      -0.00815514
H       -2.62481614       0.11097324       0.76542447
H       -1.18577055       0.77622582       1.50170429
H       -1.61665222       0.92000526      -0.59010201
H        1.70818519       1.37603328      -1.59348315
H        1.14150710       2.18670760      -0.09288112
H        1.59703854       0.01559458       1.14582779
H        2.38919888      -0.50198459      -0.34520717
H        0.48176788      -1.49054443      -1.29138323
16
Frame=13 idx=003092 GeodesicLength=0.9387651406108446 rxn_smarts="[C:1]1([H:7])([H:8])[C:2]([H:9])([H:10])[C@:3]2([H:11])[C:4]([H:12])([H:13])[C:5]([H:14])([H:15])[C@:6]12[H:16]>>[C:1]([C:2]([H:9])([H:10])[H:11])([C@@:6]1([H:16])[C:3][C:4]([H:12])([H:13])[C:5]1([H:14])[H:15])([H:7])[H:8]"
C       -0.89145695      -1.16651033       0.45787862
C       -1.55886565       0.20633927       0.63978848
C       -0.19761005       0.63568194      -0.81246546
C        1.14267653       1.26856301      -0.68283679
C        1.49147741      -0.04632310       0.06592268
C        0.22387291      -0.76830232      -0.50473659
H       -0.51840731      -1.61375518       1.38164570
H       -1.56291208      -1.89391932      -0.00301262
H       -2.63779545       0.08887094       0.75426534
H       -1.22106228       0.76209949       1.51720401
H       -1.63243053       0.93499849      -0.59506229
H        1.71530864       1.35832613      -1.60898946
H        1.17748206       2.19276849      -0.10736387
H        1.60841264       0.02344320       1.14497746
H        2.38409960      -0.50905608      -0.35002491
H        0.47721050      -1.47322463      -1.29719032
16
Frame=14 idx=003092 GeodesicLength=1.0109647848970276 rxn_smarts="[C:1]1([H:7])([H:8])[C:2]([H:9])([H:10])[C@:3]2([H:11])[C:4]([H:12])([H:13])[C:5]([H:14])([H:15])[C@:6]12[H:16]>>[C:1]([C:2]([H:9])([H:10])[H:11])([C@@:6]1([H:16])[C:3][C:4]([H:12])([H:13])[C:5]1([H:14])[H:15])([H:7])[H:8]"
C       -0.89298527      -1.16758259       0.46090755
C       -1.57250055       0.20099017       0.63997840
C       -0.18898249       0.64994985      -0.77555095
C        1.15786199       1.27100863      -0.69114370
C        1.49477235      -0.04322040       0.06672188
C        0.22087845      -0.76034735      -0.50090086
H       -0.51416012      -1.60865869       1.38512873
H       -1.55563349      -1.90460546       0.00248800
H       -2.65081062       0.06661505       0.74135834
H       -1.25792300       0.74703351       1.53265624
H       -1.64727471       0.95041963      -0.60012461
H        1.72078424       1.34013127      -1.62480285
H        1.21433833       2.19822403      -0.12240460
H        1.62067036       0.03100726       1.14407300
H        2.37898591      -0.51613274      -0.35525793
H        0.47197861      -1.45483218      -1.30312664
16
Frame=15 idx=003092 GeodesicLength=1.0831434258364483 rxn_smarts="[C:1]1([H:7])([H:8])[C:2]([H:9])([H:10])[C@:3]2([H:11])[C:4]([H:12])([H:13])[C:5]([H:14])([H:15])[C@:6]12[H:16]>>[C:1]([C:2]([H:9])([H:10])[H:11])([C@@:6]1([H:16])[C:3][C:4]([H:12])([H:13])[C:5]1([H:14])[H:15])([H:7])[H:8]"
C       -0.89433145      -1.16850039       0.46435486
C       -1.58637942       0.19556239       0.63995792
C       -0.17973099       0.66450916      -0.73655714
C        1.17262413       1.27310666      -0.69937877
C        1.49856704      -0.04022766       0.06753541
C        0.21784089      -0.75189784      -0.49668842
H       -0.50979873      -1.60296885       1.38918369
H       -1.54771753      -1.91534613       0.00848152
H       -2.66378816       0.04428451       0.72650644
H       -1.29644198       0.73106260       1.54787248
H       -1.66099681       0.96629937      -0.60539089
H        1.72439331       1.32164145      -1.64078248
H        1.25189020       2.20296698      -0.13786989
H        1.63400427       0.03810321       1.14304066
H        2.37386508      -0.52320891      -0.36112893
H        0.46600017      -1.43538654      -1.30913646
16
Frame=16 idx=003092 GeodesicLength=1.1552951595853616 rxn_smarts="[C:1]1([H:7])([H:8])[C:2]([H:9])([H:10])[C@:3]2([H:11])[C:4]([H:12])([H:13])[C:5]([H:14])([H:15])[C@:6]12[H:16]>>[C:1]([C:2]([H:9])([H:10])[H:11])([C@@:6]1([H:16])[C:3][C:4]([H:12])([H:13])[C:5]1([H:14])[H:15])([H:7])[H:8]"
C       -0.89547670      -1.16924113       0.46831466
C       -1.60046403       0.19010075       0.63962330
C       -0.16976335       0.67920882      -0.69541591
C        1.18679303       1.27486721      -0.70740738
C        1.50292764      -0.03742810       0.06828815
C        0.21476962      -0.74299967      -0.49204017
H       -0.50533032      -1.59655290       1.39395814
H       -1.53912550      -1.92615336       0.01513230
H       -2.67663088       0.02197493       0.70949716
H       -1.33669549       0.71424373       1.56263345
H       -1.67338019       0.98267901      -0.61097299
H        1.72591572       1.30309605      -1.65676847
H        1.28990007       2.20689676      -0.15358327
H        1.64862176       0.04451640       1.14178448
H        2.36873789      -0.53027368      -0.36789419
H        0.45920072      -1.41493482      -1.31514924
