11
Frame=0 idx=004439 GeodesicLength=0.0 rxn_smarts="[C:1]([C@@:2]([C:3]#[C:4][H:11])([C:5]#[N:6])[H:10])([H:7])([H:8])[H:9]>>[C:1]([C:2]([C:3]#[C:4][H:11])=[C:5]=[N:6][H:10])([H:7])([H:8])[H:9]"
C       -1.20056324      -0.66723484      -0.53787452
C       -0.07333158       0.20093011      -0.04293494
C        1.27192609      -0.23281586      -0.09566813
C        2.40353616      -0.63250726      -0.16344472
C       -0.33768780       1.45693487       0.48127185
N       -0.59340598       2.49161251       1.03630089
H       -1.16476194      -1.65743987      -0.08077874
H       -2.16765659      -0.21622651      -0.31649593
H       -1.12876007      -0.79510076      -1.62103170
H       -0.41699153       1.03081541       1.56579386
H        3.40769647      -0.97896779      -0.22513792
11
Frame=1 idx=004439 GeodesicLength=0.08337384677065296 rxn_smarts="[C:1]([C@@:2]([C:3]#[C:4][H:11])([C:5]#[N:6])[H:10])([H:7])([H:8])[H:9]>>[C:1]([C:2]([C:3]#[C:4][H:11])=[C:5]=[N:6][H:10])([H:7])([H:8])[H:9]"
C       -1.19867420      -0.66711863      -0.53500141
C       -0.07493639       0.19132003      -0.01451179
C        1.27166908      -0.24218880      -0.07216575
C        2.40490497      -0.63115154      -0.16498153
C       -0.33399682       1.46687089       0.46261483
N       -0.59924909       2.49058635       1.03061045
H       -1.17125336      -1.66027464      -0.08391218
H       -2.16707928      -0.21398755      -0.32413495
H       -1.11103768      -0.78734378      -1.61769170
H       -0.42702998       1.03294315       1.57177589
H        3.40668275      -0.97965548      -0.25260187
11
Frame=2 idx=004439 GeodesicLength=0.16674926560189438 rxn_smarts="[C:1]([C@@:2]([C:3]#[C:4][H:11])([C:5]#[N:6])[H:10])([H:7])([H:8])[H:9]>>[C:1]([C:2]([C:3]#[C:4][H:11])=[C:5]=[N:6][H:10])([H:7])([H:8])[H:9]"
C       -1.19604670      -0.66678091      -0.53211862
C       -0.07677174       0.18270774       0.01381642
C        1.27120821      -0.25113039      -0.04810246
C        2.40520841      -0.63071067      -0.16403065
C       -0.32980297       1.47633508       0.44347124
N       -0.60461641       2.48885465       1.02435585
H       -1.17679117      -1.66266323      -0.08680342
H       -2.16590047      -0.21185882      -0.33224973
H       -1.09232937      -0.77984978      -1.61398225
H       -0.43765843       1.03473662       1.57835215
H        3.40350065      -0.97964028      -0.28270854
11
Frame=3 idx=004439 GeodesicLength=0.2501212865902125 rxn_smarts="[C:1]([C@@:2]([C:3]#[C:4][H:11])([C:5]#[N:6])[H:10])([H:7])([H:8])[H:9]>>[C:1]([C:2]([C:3]#[C:4][H:11])=[C:5]=[N:6][H:10])([H:7])([H:8])[H:9]"
C       -1.19412048      -0.66613420      -0.52922622
C       -0.07912946       0.17464403       0.04059549
C        1.26992019      -0.26089177      -0.02633760
C        2.40355721      -0.63292979      -0.16535598
C       -0.32432135       1.48474650       0.42349275
N       -0.60737921       2.48564078       1.01817420
H       -1.18285757      -1.66449795      -0.08937225
H       -2.16506853      -0.20917484      -0.33979012
H       -1.07533486      -0.77270792      -1.61002395
H       -0.44686635       1.03501979       1.58513101
H        3.40160042      -0.97371464      -0.30728733
11
Frame=4 idx=004439 GeodesicLength=0.33350275653343864 rxn_smarts="[C:1]([C@@:2]([C:3]#[C:4][H:11])([C:5]#[N:6])[H:10])([H:7])([H:8])[H:9]>>[C:1]([C:2]([C:3]#[C:4][H:11])=[C:5]=[N:6][H:10])([H:7])([H:8])[H:9]"
C       -1.19139773      -0.66532137      -0.52623462
C       -0.08161797       0.16880799       0.06557857
C        1.26885326      -0.26762285      -0.00728231
C        2.40165957      -0.63285112      -0.16751716
C       -0.31942393       1.49332393       0.40299582
N       -0.61080989       2.48140382       1.01285312
H       -1.18614743      -1.66596942      -0.09164563
H       -2.16380555      -0.20773308      -0.34623113
H       -1.05881373      -0.76567352      -1.60584922
H       -0.45557738       1.03431747       1.59237842
H        3.39708079      -0.97268186      -0.32904587
11
Frame=5 idx=004439 GeodesicLength=0.41687517162014615 rxn_smarts="[C:1]([C@@:2]([C:3]#[C:4][H:11])([C:5]#[N:6])[H:10])([H:7])([H:8])[H:9]>>[C:1]([C:2]([C:3]#[C:4][H:11])=[C:5]=[N:6][H:10])([H:7])([H:8])[H:9]"
C       -1.18902484      -0.66421428      -0.52330418
C       -0.08438180       0.16389665       0.08893316
C        1.26720830      -0.27475484       0.01051999
C        2.39841567      -0.63552982      -0.16832061
C       -0.31368478       1.50132279       0.38164243
N       -0.61228517       2.47595333       1.00767390
H       -1.18967633      -1.66676072      -0.09324035
H       -2.16268151      -0.20578865      -0.35263909
H       -1.04332203      -0.75933179      -1.60152784
H       -0.46380920       1.03228300       1.59987237
H        3.39324169      -0.96707566      -0.34960977
11
Frame=6 idx=004439 GeodesicLength=0.5002447182462487 rxn_smarts="[C:1]([C@@:2]([C:3]#[C:4][H:11])([C:5]#[N:6])[H:10])([H:7])([H:8])[H:9]>>[C:1]([C:2]([C:3]#[C:4][H:11])=[C:5]=[N:6][H:10])([H:7])([H:8])[H:9]"
C       -1.18662194      -0.66287871      -0.52039559
C       -0.08729277       0.16047094       0.11044843
C        1.26535265      -0.28087391       0.02650222
C        2.39458291      -0.63873168      -0.16850499
C       -0.30782744       1.50920385       0.35952047
N       -0.61284356       2.46933891       1.00304941
H       -1.19233851      -1.66699440      -0.09421129
H       -2.16155185      -0.20401504      -0.35860563
H       -1.02875394      -0.75352571      -1.59711914
H       -0.47163831       1.02896799       1.60773875
H        3.38893277      -0.96096225      -0.36842265
11
Frame=7 idx=004439 GeodesicLength=0.5836032091778116 rxn_smarts="[C:1]([C@@:2]([C:3]#[C:4][H:11])([C:5]#[N:6])[H:10])([H:7])([H:8])[H:9]>>[C:1]([C:2]([C:3]#[C:4][H:11])=[C:5]=[N:6][H:10])([H:7])([H:8])[H:9]"
C       -1.18433905      -0.66132338      -0.51750813
C       -0.09032896       0.15843689       0.13008455
C        1.26326516      -0.28611835       0.04056589
C        2.39024733      -0.64238782      -0.16852442
C       -0.30187809       1.51699808       0.33656347
N       -0.61230823       2.46151796       0.99899237
H       -1.19434635      -1.66669272      -0.09453749
H       -2.16053196      -0.20234607      -0.36406282
H       -1.01532572      -0.74824907      -1.59267476
H       -0.47899284       1.02428570       1.61601104
H        3.38453871      -0.95412123      -0.38490970
11
Frame=8 idx=004439 GeodesicLength=0.6669448357780472 rxn_smarts="[C:1]([C@@:2]([C:3]#[C:4][H:11])([C:5]#[N:6])[H:10])([H:7])([H:8])[H:9]>>[C:1]([C:2]([C:3]#[C:4][H:11])=[C:5]=[N:6][H:10])([H:7])([H:8])[H:9]"
C       -1.18199073      -0.65958064      -0.51460101
C       -0.09340388       0.15812134       0.14773030
C        1.26119909      -0.28949644       0.05211095
C        2.38586824      -0.64475826      -0.16953177
C       -0.29643569       1.52503596       0.31281256
N       -0.61138893       2.45249159       0.99577700
H       -1.19496358      -1.66597458      -0.09432665
H       -2.15960454      -0.20126364      -0.36859100
H       -1.00313092      -0.74325310      -1.58826134
H       -0.48579521       1.01821123       1.62482862
H        3.37964615      -0.94953346      -0.39794763
11
Frame=9 idx=004439 GeodesicLength=0.750273484216665 rxn_smarts="[C:1]([C@@:2]([C:3]#[C:4][H:11])([C:5]#[N:6])[H:10])([H:7])([H:8])[H:9]>>[C:1]([C:2]([C:3]#[C:4][H:11])=[C:5]=[N:6][H:10])([H:7])([H:8])[H:9]"
C       -1.17961420      -0.65764842      -0.51168793
C       -0.09651473       0.15929639       0.16370540
C        1.25907872      -0.29151832       0.06191802
C        2.38140001      -0.64621558      -0.17103657
C       -0.29138040       1.53328245       0.28823383
N       -0.60979428       2.44229386       0.99316138
H       -1.19463346      -1.66480320      -0.09349015
H       -2.15875484      -0.20050764      -0.37257960
H       -0.99185348      -0.73865484      -1.58386140
H       -0.49239499       1.01080356       1.63427307
H        3.37446166      -0.94632826      -0.40863605
11
Frame=10 idx=004439 GeodesicLength=0.8335983780833678 rxn_smarts="[C:1]([C@@:2]([C:3]#[C:4][H:11])([C:5]#[N:6])[H:10])([H:7])([H:8])[H:9]>>[C:1]([C:2]([C:3]#[C:4][H:11])=[C:5]=[N:6][H:10])([H:7])([H:8])[H:9]"
C       -1.17727503      -0.65552337      -0.50878532
C       -0.09968169       0.16173131       0.17828822
C        1.25681294      -0.29271684       0.07064440
C        2.37677784      -0.64731406      -0.17243491
C       -0.28652040       1.54166954       0.26277445
N       -0.60716765       2.43091837       0.99088763
H       -1.19381979      -1.66314557      -0.09195493
H       -2.15798113      -0.19980542      -0.37637624
H       -0.98124482      -0.73457043      -1.57945349
H       -0.49905570       1.00210569       1.64440260
H        3.36915543      -0.94334923      -0.41799240
11
Frame=11 idx=004439 GeodesicLength=0.9169430449986826 rxn_smarts="[C:1]([C@@:2]([C:3]#[C:4][H:11])([C:5]#[N:6])[H:10])([H:7])([H:8])[H:9]>>[C:1]([C:2]([C:3]#[C:4][H:11])=[C:5]=[N:6][H:10])([H:7])([H:8])[H:9]"
C       -1.17522140      -0.65320070      -0.50592670
C       -0.10297692       0.16497249       0.19180435
C        1.25415528      -0.29423986       0.07918075
C        2.37172039      -0.64953928      -0.17275075
C       -0.28128934       1.54993510       0.23631890
N       -0.60257272       2.41828629       0.98852386
H       -1.19349236      -1.66093029      -0.08959625
H       -2.15735630      -0.19860256      -0.38050407
H       -0.97113314      -0.73127184      -1.57499150
H       -0.50604169       0.99216633       1.65521625
H        3.36420820      -0.93757569      -0.42727484
11
Frame=12 idx=004439 GeodesicLength=1.0002917999544614 rxn_smarts="[C:1]([C@@:2]([C:3]#[C:4][H:11])([C:5]#[N:6])[H:10])([H:7])([H:8])[H:9]>>[C:1]([C:2]([C:3]#[C:4][H:11])=[C:5]=[N:6][H:10])([H:7])([H:8])[H:9]"
C       -1.17300420      -0.65066588      -0.50305808
C       -0.10628764       0.16941745       0.20432677
C        1.25138875      -0.29499213       0.08735868
C        2.36661547      -0.65112530      -0.17254608
C       -0.27620742       1.55837020       0.20899291
N       -0.59712566       2.40445222       0.98621235
H       -1.19270433      -1.65818916      -0.08649224
H       -2.15659353      -0.19737658      -0.38473915
H       -0.96113975      -0.72846862      -1.57045771
H       -0.51355009       0.98098809       1.66687270
H        3.35860840      -0.93241029      -0.43647015
11
Frame=13 idx=004439 GeodesicLength=1.0836729248761983 rxn_smarts="[C:1]([C@@:2]([C:3]#[C:4][H:11])([C:5]#[N:6])[H:10])([H:7])([H:8])[H:9]>>[C:1]([C:2]([C:3]#[C:4][H:11])=[C:5]=[N:6][H:10])([H:7])([H:8])[H:9]"
C       -1.17094083      -0.64792188      -0.50016063
C       -0.10966731       0.17499935       0.21563266
C        1.24846014      -0.29496255       0.09434239
C        2.36144397      -0.65197916      -0.17284157
C       -0.27139715       1.56699595       0.18070680
N       -0.59043835       2.38916446       0.98397658
H       -1.19163087      -1.65498522      -0.08274139
H       -2.15600319      -0.19614758      -0.38867137
H       -0.95192714      -0.72603189      -1.56592132
H       -0.52109311       0.96841403       1.67938281
H        3.35319384      -0.92754551      -0.44370498
11
Frame=14 idx=004439 GeodesicLength=1.1670716458239752 rxn_smarts="[C:1]([C@@:2]([C:3]#[C:4][H:11])([C:5]#[N:6])[H:10])([H:7])([H:8])[H:9]>>[C:1]([C:2]([C:3]#[C:4][H:11])=[C:5]=[N:6][H:10])([H:7])([H:8])[H:9]"
C       -1.16876965      -0.64495255      -0.49721492
C       -0.11304137       0.18188896       0.22588650
C        1.24554840      -0.29365856       0.10027644
C        2.35643270      -0.65130207      -0.17369601
C       -0.26711262       1.57599407       0.15159649
N       -0.58326537       2.37252255       0.98176111
H       -1.18981482      -1.65134779      -0.07840989
H       -2.15541791      -0.19511352      -0.39226747
H       -0.94318581      -0.72377768      -1.56137923
H       -0.52882916       0.95448385       1.69286821
H        3.34745562      -0.92473727      -0.44942123
11
Frame=15 idx=004439 GeodesicLength=1.2505154071859945 rxn_smarts="[C:1]([C@@:2]([C:3]#[C:4][H:11])([C:5]#[N:6])[H:10])([H:7])([H:8])[H:9]>>[C:1]([C:2]([C:3]#[C:4][H:11])=[C:5]=[N:6][H:10])([H:7])([H:8])[H:9]"
C       -1.16662366      -0.64173656      -0.49422134
C       -0.11643924       0.18982895       0.23525997
C        1.24252535      -0.29166658       0.10551558
C        2.35142164      -0.64986504      -0.17471040
C       -0.26303702       1.58519512       0.12166850
N       -0.57527521       2.35444516       0.97923171
H       -1.18774121      -1.64723133      -0.07347107
H       -2.15486867      -0.19397968      -0.39570707
H       -0.93487824      -0.72176299      -1.55679763
H       -0.53676040       0.93922900       1.70731512
H        3.34167666      -0.92245606      -0.45408336
11
Frame=16 idx=004439 GeodesicLength=1.3340215004640055 rxn_smarts="[C:1]([C@@:2]([C:3]#[C:4][H:11])([C:5]#[N:6])[H:10])([H:7])([H:8])[H:9]>>[C:1]([C:2]([C:3]#[C:4][H:11])=[C:5]=[N:6][H:10])([H:7])([H:8])[H:9]"
C       -1.16445688      -0.63825951      -0.49117856
C       -0.11984539       0.19871713       0.24393453
C        1.23939242      -0.28915039       0.11036748
C        2.34642484      -0.64783854      -0.17555413
C       -0.25904416       1.59454115       0.09104409
N       -0.56665199       2.33496533       0.97614380
H       -1.18549777      -1.64263033      -0.06796304
H       -2.15428468      -0.19265701      -0.39908932
H       -0.92682478      -0.71993705      -1.55215322
H       -0.54494100       0.92274169       1.72273441
H        3.33572938      -0.92049247      -0.45828603
