14
Frame=0 idx=000271 GeodesicLength=0.0 rxn_smarts="[C:1]([C@:2]12[C:3]([H:10])([H:11])[C@@:4]1([H:12])[O:5][C:6]2([H:13])[H:14])([H:7])([H:8])[H:9]>>[C:1](=[C:2]1[C:3]([H:10])([H:11])[C@@:4]2([H:12])[O:5][C@@:6]12[H:14])([H:7])[H:8].[H:9][H:13]"
C        1.42869909      -0.51279674      -0.45312257
C        0.13884760      -0.22667743      -0.01296894
C       -0.91624578      -1.03456458       0.67989147
C       -1.52315688      -0.07037497      -0.25691679
O       -1.62321195       1.17742474       0.32176564
C       -0.20843299       1.19188094       0.03490817
H        1.82205094      -0.02483123      -1.33618452
H        1.87297209      -1.47132228      -0.21444725
H        1.81108076       0.85072826       0.48450653
H       -0.91339827      -2.07359576       0.37134208
H       -1.12561907      -0.86306224       1.73235659
H       -1.96612527      -0.24846081      -1.22727350
H        1.20871172       1.51366627       0.73016448
H       -0.00617204       1.79198583      -0.85402138
14
Frame=1 idx=000271 GeodesicLength=0.07213036358790591 rxn_smarts="[C:1]([C@:2]12[C:3]([H:10])([H:11])[C@@:4]1([H:12])[O:5][C:6]2([H:13])[H:14])([H:7])([H:8])[H:9]>>[C:1](=[C:2]1[C:3]([H:10])([H:11])[C@@:4]2([H:12])[O:5][C@@:6]12[H:14])([H:7])[H:8].[H:9][H:13]"
C        1.43830479      -0.51498160      -0.44553618
C        0.14004029      -0.22868120      -0.02846888
C       -0.91328588      -1.03553982       0.66970004
C       -1.52624401      -0.06374840      -0.25814983
O       -1.62095171       1.17898013       0.33734236
C       -0.21404397       1.19083910       0.02345080
H        1.82645363      -0.05482840      -1.34589983
H        1.88458542      -1.46695728      -0.18411555
H        1.81984082       0.85365062       0.48878315
H       -0.91647003      -2.07279792       0.35444510
H       -1.11039662      -0.87270609       1.72591566
H       -1.99420347      -0.23853085      -1.21725655
H        1.20381542       1.52716424       0.74148639
H       -0.01744469       1.79813745      -0.86169670
14
Frame=2 idx=000271 GeodesicLength=0.14413135380627695 rxn_smarts="[C:1]([C@:2]12[C:3]([H:10])([H:11])[C@@:4]1([H:12])[O:5][C:6]2([H:13])[H:14])([H:7])([H:8])[H:9]>>[C:1](=[C:2]1[C:3]([H:10])([H:11])[C@@:4]2([H:12])[O:5][C@@:6]12[H:14])([H:7])[H:8].[H:9][H:13]"
C        1.44773295      -0.51688169      -0.43816674
C        0.14130973      -0.23059538      -0.04446205
C       -0.91010395      -1.03642814       0.65928055
C       -1.52924062      -0.05715414      -0.25948283
O       -1.61820287       1.18035766       0.35270021
C       -0.21968002       1.18986023       0.01179655
H        1.83104511      -0.08604829      -1.35520896
H        1.89554133      -1.46193162      -0.15390528
H        1.82871959       0.85639742       0.49339808
H       -0.91932633      -2.07187293       0.33744505
H       -1.09485620      -0.88232677       1.71905015
H       -2.02249449      -0.22874211      -1.20637068
H        1.19843218       1.54086309       0.75331738
H       -0.02887643       1.80450266      -0.86939143
14
Frame=3 idx=000271 GeodesicLength=0.2160548426651977 rxn_smarts="[C:1]([C@:2]12[C:3]([H:10])([H:11])[C@@:4]1([H:12])[O:5][C:6]2([H:13])[H:14])([H:7])([H:8])[H:9]>>[C:1](=[C:2]1[C:3]([H:10])([H:11])[C@@:4]2([H:12])[O:5][C@@:6]12[H:14])([H:7])[H:8].[H:9][H:13]"
C        1.45696345      -0.51849257      -0.43105551
C        0.14267204      -0.23240573      -0.06089528
C       -0.90670074      -1.03721959       0.64864768
C       -1.53212189      -0.05060358      -0.26093835
O       -1.61497662       1.18155321       0.36779190
C       -0.22534042       1.18895292      -0.00002831
H        1.83577033      -0.11850855      -1.36408589
H        1.90580489      -1.45624514      -0.12391122
H        1.83775263       0.85895045       0.49833423
H       -0.92195328      -2.07081761       0.32037437
H       -1.07904418      -0.89190046       1.71176024
H       -2.05090420      -0.21913076      -1.19461206
H        1.19253463       1.55478306       0.76569099
H       -0.04045663       1.81108435      -0.87707280
14
Frame=4 idx=000271 GeodesicLength=0.2879331809374106 rxn_smarts="[C:1]([C@:2]12[C:3]([H:10])([H:11])[C@@:4]1([H:12])[O:5][C:6]2([H:13])[H:14])([H:7])([H:8])[H:9]>>[C:1](=[C:2]1[C:3]([H:10])([H:11])[C@@:4]2([H:12])[O:5][C@@:6]12[H:14])([H:7])[H:8].[H:9][H:13]"
C        1.46597888      -0.51981084      -0.42424801
C        0.14414124      -0.23409744      -0.07771513
C       -0.90307976      -1.03790629       0.63781323
C       -1.53486570      -0.04410644      -0.26253622
O       -1.61128440       1.18256308       0.38257812
C       -0.23102603       1.18812646      -0.01199670
H        1.84057272      -0.15224068      -1.37249092
H        1.91535294      -1.44988465      -0.09421738
H        1.84697671       0.86129307       0.50356743
H       -0.92433973      -2.06962911       0.30325485
H       -1.06300569      -0.90141068       1.70404588
H       -2.07934460      -0.20972703      -1.18197833
H        1.18609916       1.56894598       0.77863274
H       -0.05217572       1.81788456      -0.88470957
14
Frame=5 idx=000271 GeodesicLength=0.3598069193107478 rxn_smarts="[C:1]([C@:2]12[C:3]([H:10])([H:11])[C@@:4]1([H:12])[O:5][C:6]2([H:13])[H:14])([H:7])([H:8])[H:9]>>[C:1](=[C:2]1[C:3]([H:10])([H:11])[C@@:4]2([H:12])[O:5][C@@:6]12[H:14])([H:7])[H:8].[H:9][H:13]"
C        1.47476650      -0.52083329      -0.41779388
C        0.14573050      -0.23565343      -0.09486576
C       -0.89924524      -1.03848003       0.62679039
C       -1.53745447      -0.03767008      -0.26429971
O       -1.60714911       1.18338728       0.39701979
C       -0.23673803       1.18739147      -0.02408038
H        1.84538672      -0.18726760      -1.38038791
H        1.92417963      -1.44285957      -0.06490532
H        1.85643623       0.86340940       0.50906329
H       -0.92647259      -2.06830678       0.28610925
H       -1.04678951      -0.91083605       1.69591692
H       -2.10772144      -0.20056049      -1.16847610
H        1.17909426       1.58337329       0.79217653
H       -0.06402345       1.82490586      -0.89226711
14
Frame=6 idx=000271 GeodesicLength=0.43169338544358105 rxn_smarts="[C:1]([C@:2]12[C:3]([H:10])([H:11])[C@@:4]1([H:12])[O:5][C:6]2([H:13])[H:14])([H:7])([H:8])[H:9]>>[C:1](=[C:2]1[C:3]([H:10])([H:11])[C@@:4]2([H:12])[O:5][C@@:6]12[H:14])([H:7])[H:8].[H:9][H:13]"
C        1.48331821      -0.52156276      -0.41174181
C        0.14745177      -0.23705826      -0.11229159
C       -0.89520339      -1.03893324       0.61559124
C       -1.53987334      -0.03130081      -0.26625057
O       -1.60259610       1.18402676       0.41108018
C       -0.24247760       1.18675731      -0.03625082
H        1.85014403      -0.22362255      -1.38771953
H        1.93228388      -1.43515611      -0.03605887
H        1.86617679       0.86528361       0.51477913
H       -0.92834171      -2.06684694       0.26895450
H       -1.03043998      -0.92016048       1.68737837
H       -2.13594760      -0.19165949      -1.15411171
H        1.17149398       1.59808313       0.80635565
H       -0.07598894       1.83214983      -0.89971419
14
Frame=7 idx=000271 GeodesicLength=0.5036203789600232 rxn_smarts="[C:1]([C@:2]12[C:3]([H:10])([H:11])[C@@:4]1([H:12])[O:5][C:6]2([H:13])[H:14])([H:7])([H:8])[H:9]>>[C:1](=[C:2]1[C:3]([H:10])([H:11])[C@@:4]2([H:12])[O:5][C@@:6]12[H:14])([H:7])[H:8].[H:9][H:13]"
C        1.49163056      -0.52199980      -0.40614685
C        0.14931530      -0.23829408      -0.12994003
C       -0.89095977      -1.03925635       0.60422760
C       -1.54211263      -0.02500258      -0.26841157
O       -1.59765805       1.18448576       0.42472517
C       -0.24824732       1.18623491      -0.04848173
H        1.85477471      -0.26132494      -1.39443678
H        1.93967982      -1.42679100      -0.00774756
H        1.87625175       0.86689948       0.52066384
H       -0.92993484      -2.06524610       0.25180794
H       -1.01399917      -0.92936248       1.67844161
H       -2.16393566      -0.18305097      -1.13889670
H        1.16325749       1.61309020       0.82121426
H       -0.08806220       1.83961796      -0.90701920
14
Frame=8 idx=000271 GeodesicLength=0.575600581966514 rxn_smarts="[C:1]([C@:2]12[C:3]([H:10])([H:11])[C@@:4]1([H:12])[O:5][C:6]2([H:13])[H:14])([H:7])([H:8])[H:9]>>[C:1](=[C:2]1[C:3]([H:10])([H:11])[C@@:4]2([H:12])[O:5][C@@:6]12[H:14])([H:7])[H:8].[H:9][H:13]"
C        1.49970339      -0.52215344      -0.40106446
C        0.15132772      -0.23934434      -0.14776339
C       -0.88652179      -1.03944273       0.59270776
C       -1.54416670      -0.01877805      -0.27080220
O       -1.59236457       1.18476796       0.43792940
C       -0.25405047       1.18583367      -0.06074560
H        1.85921423      -0.30041114      -1.40045451
H        1.94637825      -1.41775303       0.01995475
H        1.88672111       0.86824654       0.52664934
H       -0.93124433      -2.06350253       0.23467696
H       -0.99750254      -0.93842812       1.66911730
H       -2.19160261      -0.17475595      -1.12284425
H        1.15434214       1.62840896       0.83679086
H       -0.10023382       1.84731220      -0.91415195
14
Frame=9 idx=000271 GeodesicLength=0.6478550301158971 rxn_smarts="[C:1]([C@:2]12[C:3]([H:10])([H:11])[C@@:4]1([H:12])[O:5][C:6]2([H:13])[H:14])([H:7])([H:8])[H:9]>>[C:1](=[C:2]1[C:3]([H:10])([H:11])[C@@:4]2([H:12])[O:5][C@@:6]12[H:14])([H:7])[H:8].[H:9][H:13]"
C        1.50753476      -0.52207291      -0.39655839
C        0.15350496      -0.24019757      -0.16572165
C       -0.88189299      -1.03948299       0.58105618
C       -1.54602405      -0.01262197      -0.27345034
O       -1.58675933       1.18489079       0.45065209
C       -0.25987198       1.18555819      -0.07303111
H        1.86335418      -0.34076529      -1.40576387
H        1.95244559      -1.40807461       0.04706862
H        1.89770548       0.86922934       0.53260917
H       -0.93226735      -2.06162664       0.21760089
H       -0.98098115      -0.94732262       1.65944292
H       -2.21889282      -0.16678570      -1.10599966
H        1.14461886       1.64404376       0.85319222
H       -0.11247416       1.85522823      -0.92109708
14
Frame=10 idx=000271 GeodesicLength=0.7201639595886156 rxn_smarts="[C:1]([C@:2]12[C:3]([H:10])([H:11])[C@@:4]1([H:12])[O:5][C:6]2([H:13])[H:14])([H:7])([H:8])[H:9]>>[C:1](=[C:2]1[C:3]([H:10])([H:11])[C@@:4]2([H:12])[O:5][C@@:6]12[H:14])([H:7])[H:8].[H:9][H:13]"
C        1.51513621      -0.52173913      -0.39266543
C        0.15584372      -0.24083588      -0.18376867
C       -0.87708469      -1.03937277       0.56927087
C       -1.54769259      -0.00654085      -0.27636412
O       -1.58086782       1.18485055       0.46288594
C       -0.26573035       1.18542020      -0.08530332
H        1.86715394      -0.38251569      -1.41021937
H        1.95785619      -1.39773473       0.07345090
H        1.90921919       0.86990939       0.53851212
H       -0.93299444      -2.05960503       0.20056324
H       -0.96446336      -0.95604894       1.64941001
H       -2.24570320      -0.15917094      -1.08836820
H        1.13411242       1.66001422       0.87041501
H       -0.12478523       1.86336959      -0.92781897
14
Frame=11 idx=000271 GeodesicLength=0.792524069009204 rxn_smarts="[C:1]([C@:2]12[C:3]([H:10])([H:11])[C@@:4]1([H:12])[O:5][C:6]2([H:13])[H:14])([H:7])([H:8])[H:9]>>[C:1](=[C:2]1[C:3]([H:10])([H:11])[C@@:4]2([H:12])[O:5][C@@:6]12[H:14])([H:7])[H:8].[H:9][H:13]"
C        1.52251707      -0.52118047      -0.38942987
C        0.15834779      -0.24124826      -0.20187218
C       -0.87210419      -1.03910405       0.55736323
C       -1.54917576      -0.00053454      -0.27955751
O       -1.57472507       1.18465720       0.47461162
C       -0.27162423       1.18542497      -0.09754636
H        1.87053768      -0.42562273      -1.41374504
H        1.96263687      -1.38675062       0.09906205
H        1.92133813       0.87025982       0.54426544
H       -0.93342349      -2.05743647       0.18357799
H       -0.94796922      -0.96458832       1.63903739
H       -2.27196204      -0.15192782      -1.06998238
H        1.12275639       1.67632138       0.88851385
H       -0.13714993       1.87172993      -0.93429824
14
Frame=12 idx=000271 GeodesicLength=0.8649098659319819 rxn_smarts="[C:1]([C@:2]12[C:3]([H:10])([H:11])[C@@:4]1([H:12])[O:5][C:6]2([H:13])[H:14])([H:7])([H:8])[H:9]>>[C:1](=[C:2]1[C:3]([H:10])([H:11])[C@@:4]2([H:12])[O:5][C@@:6]12[H:14])([H:7])[H:8].[H:9][H:13]"
C        1.52968962      -0.52042379      -0.38689037
C        0.16101763      -0.24142415      -0.22000300
C       -0.86696045      -1.03867119       0.54534403
C       -1.55048009       0.00539711      -0.28303932
O       -1.56836425       1.18431688       0.48581818
C       -0.27755565       1.18557699      -0.10974109
H        1.87342675      -0.47005475      -1.41624980
H        1.96681331      -1.37513876       0.12386158
H        1.93414140       0.87026384       0.54976568
H       -0.93355641      -2.05511912       0.16665416
H       -0.93151532      -0.97292752       1.62834132
H       -2.29759387      -0.14507065      -1.05088627
H        1.11049207       1.69297028       0.90754014
H       -0.14955473       1.88030485      -0.94051524
14
Frame=13 idx=000271 GeodesicLength=0.9372827328312743 rxn_smarts="[C:1]([C@:2]12[C:3]([H:10])([H:11])[C@@:4]1([H:12])[O:5][C:6]2([H:13])[H:14])([H:7])([H:8])[H:9]>>[C:1](=[C:2]1[C:3]([H:10])([H:11])[C@@:4]2([H:12])[O:5][C@@:6]12[H:14])([H:7])[H:8].[H:9][H:13]"
C        1.53666540      -0.51950885      -0.38508099
C        0.16385105      -0.24135857      -0.23814080
C       -0.86166015      -1.03806603       0.53322615
C       -1.55161694       0.01125627      -0.28681827
O       -1.56182162       1.18384315       0.49649140
C       -0.28352390       1.18587650      -0.12187751
H        1.87575499      -0.51573518      -1.41764857
H        1.97041420      -1.36293788       0.14781468
H        1.94771293       0.86990430       0.55490534
H       -0.93339598      -2.05265067       0.14981037
H       -0.91510945      -0.98104365       1.61734405
H       -2.32252980      -0.13861074      -1.03112294
H        1.09724466       1.70994721       0.92755450
H       -0.16198540       1.88908416      -0.94645742
14
Frame=14 idx=000271 GeodesicLength=1.0096182644393017 rxn_smarts="[C:1]([C@:2]12[C:3]([H:10])([H:11])[C@@:4]1([H:12])[O:5][C:6]2([H:13])[H:14])([H:7])([H:8])[H:9]>>[C:1](=[C:2]1[C:3]([H:10])([H:11])[C@@:4]2([H:12])[O:5][C@@:6]12[H:14])([H:7])[H:8].[H:9][H:13]"
C        1.54345332      -0.51848369      -0.38404289
C        0.16684293      -0.24104772      -0.25626794
C       -0.85621463      -1.03728573       0.52101949
C       -1.55259785       0.01704550      -0.29089758
O       -1.55512721       1.18324430       0.50662956
C       -0.28952806       1.18632315      -0.13393893
H        1.87746500      -0.56260007      -1.41780937
H        1.97346537      -1.35015191       0.17088869
H        1.96215134       0.86915799       0.55954054
H       -0.93295467      -2.05003268       0.13305333
H       -0.89875843      -0.98892817       1.60606248
H       -2.34670762      -0.13255338      -1.01074105
H        1.08293696       1.72725145       0.94861226
H       -0.17442645       1.89806095      -0.95210858
14
Frame=15 idx=000271 GeodesicLength=1.0818703824328637 rxn_smarts="[C:1]([C@:2]12[C:3]([H:10])([H:11])[C@@:4]1([H:12])[O:5][C:6]2([H:13])[H:14])([H:7])([H:8])[H:9]>>[C:1](=[C:2]1[C:3]([H:10])([H:11])[C@@:4]2([H:12])[O:5][C@@:6]12[H:14])([H:7])[H:8].[H:9][H:13]"
C        1.55006316      -0.51739917      -0.38380437
C        0.16998663      -0.24049099      -0.27437040
C       -0.85063407      -1.03632438       0.50873752
C       -1.55343728       0.02276740      -0.29527931
O       -1.54831322       1.18253193       0.51622820
C       -0.29556696       1.18691409      -0.14591511
H        1.87850411      -0.61054628      -1.41662175
H        1.97599640      -1.33682277       0.19305455
H        1.97755847       0.86800949       0.56353199
H       -0.93224515      -2.04726403       0.11639885
H       -0.88246670      -0.99656416       1.59451787
H       -2.37006798      -0.12690483      -0.98979404
H        1.06748466       1.74487063       0.97077362
H       -0.18686208       1.90722309      -0.95745763
14
Frame=16 idx=000271 GeodesicLength=1.1539993207569423 rxn_smarts="[C:1]([C@:2]12[C:3]([H:10])([H:11])[C@@:4]1([H:12])[O:5][C:6]2([H:13])[H:14])([H:7])([H:8])[H:9]>>[C:1](=[C:2]1[C:3]([H:10])([H:11])[C@@:4]2([H:12])[O:5][C@@:6]12[H:14])([H:7])[H:8].[H:9][H:13]"
C        1.55650118      -0.51631693      -0.38439443
C        0.17327292      -0.23969164      -0.29243230
C       -0.84493165      -1.03517948       0.49639871
C       -1.55415113       0.02842646      -0.29996279
O       -1.54141260       1.18171961       0.52528648
C       -0.30163803       1.18764370      -0.15779089
H        1.87881660      -0.65945331      -1.41396571
H        1.97803571      -1.32298531       0.21428227
H        1.99405132       0.86644400       0.56671261
H       -0.93128567      -2.04435130       0.09986819
H       -0.86624049      -1.00393696       1.58273865
H       -2.39253879      -0.12166744      -0.96835627
H        1.05079397       1.76279102       0.99410503
H       -0.19927336       1.91655759      -0.96248953
