14
Frame=0 idx=004972 GeodesicLength=0.0 rxn_smarts="[O:1]([C:2]([C@@:3]1([H:10])[C:4]([H:11])([H:12])[C:5]([H:13])([H:14])[O:6]1)([H:8])[H:9])[H:7]>>[O:1]([C:2]([C:4]([C:5]([O+:6]=[C-:3][H:10])([H:13])[H:14])([H:11])[H:12])([H:8])[H:9])[H:7]"
O       -2.24428557       0.39621621      -0.35867229
C       -1.25011303      -0.54182218      -0.19542306
C       -0.23839991       0.18782116       1.14970072
C        0.59697359      -0.22363414      -0.69424488
C        1.56847418       0.63342130       0.10464532
O        0.62555614       1.24803997       0.95055998
H       -2.27065328       0.87128003       0.48307485
H       -1.44118046      -1.36135659       0.50439492
H       -1.20619417      -1.02917715      -1.18122647
H        0.31498312      -0.67984214       1.56402273
H        0.91678715      -1.22837538      -0.96347085
H        0.23741123       0.32443515      -1.56201939
H        2.11384466       1.37522272      -0.48640944
H        2.27679631       0.02777105       0.68506785
14
Frame=1 idx=004972 GeodesicLength=0.08253990281670147 rxn_smarts="[O:1]([C:2]([C@@:3]1([H:10])[C:4]([H:11])([H:12])[C:5]([H:13])([H:14])[O:6]1)([H:8])[H:9])[H:7]>>[O:1]([C:2]([C:4]([C:5]([O+:6]=[C-:3][H:10])([H:13])[H:14])([H:11])[H:12])([H:8])[H:9])[H:7]"
O       -2.22078093       0.42606406      -0.37991093
C       -1.25448651      -0.54089611      -0.19856222
C       -0.21833122       0.14237805       1.17592068
C        0.59599485      -0.23157838      -0.68829506
C        1.55676497       0.64664167       0.10027291
O        0.61251425       1.22486854       0.97391168
H       -2.24616000       0.90815022       0.45731175
H       -1.49259405      -1.34695921       0.50272544
H       -1.22260895      -1.04745756      -1.17488499
H        0.35046351      -0.71959630       1.57913341
H        0.93117165      -1.23461942      -0.94568395
H        0.25030703       0.29855927      -1.57293522
H        2.06323991       1.41549943      -0.49063323
H        2.29450550       0.05894574       0.66162974
14
Frame=2 idx=004972 GeodesicLength=0.16523921203823178 rxn_smarts="[O:1]([C:2]([C@@:3]1([H:10])[C:4]([H:11])([H:12])[C:5]([H:13])([H:14])[O:6]1)([H:8])[H:9])[H:7]>>[O:1]([C:2]([C:4]([C:5]([O+:6]=[C-:3][H:10])([H:13])[H:14])([H:11])[H:12])([H:8])[H:9])[H:7]"
O       -2.19568020       0.45563274      -0.40121969
C       -1.25869742      -0.53971885      -0.20179698
C       -0.19762835       0.09591138       1.20067684
C        0.59524692      -0.23996037      -0.68280864
C        1.54367079       0.65975441       0.09620114
O        0.59927791       1.20028337       0.99748883
H       -2.22010208       0.94436686       0.43167982
H       -1.54332962      -1.32910587       0.50144630
H       -1.24002006      -1.06510530      -1.16827097
H        0.38725677      -0.75896608       1.59394861
H        0.94604585      -1.24091496      -0.92804544
H        0.26397219       0.27156930      -1.58403071
H        2.00981466       1.45483569      -0.49333436
H        2.31017264       0.09141767       0.63806525
14
Frame=3 idx=004972 GeodesicLength=0.24809188890298006 rxn_smarts="[O:1]([C:2]([C@@:3]1([H:10])[C:4]([H:11])([H:12])[C:5]([H:13])([H:14])[O:6]1)([H:8])[H:9])[H:7]>>[O:1]([C:2]([C:4]([C:5]([O+:6]=[C-:3][H:10])([H:13])[H:14])([H:11])[H:12])([H:8])[H:9])[H:7]"
O       -2.16906000       0.48477308      -0.42272579
C       -1.26274673      -0.53824608      -0.20510017
C       -0.17625550       0.04843602       1.22392106
C        0.59471673      -0.24877924      -0.67782071
C        1.52915985       0.67266916       0.09245898
O        0.58597780       1.17419268       1.02126316
H       -2.19253889       0.98005179       0.40593246
H       -1.59304630      -1.30769074       0.50072290
H       -1.25846411      -1.08215740      -1.16128209
H        0.42538002      -0.79788604       1.60848722
H        0.96143268      -1.24718973      -0.91071341
H        0.27833880       0.24364422      -1.59517357
H        1.95342332       1.49305621      -0.49441579
H        2.32368231       0.12512607       0.61444575
14
Frame=4 idx=004972 GeodesicLength=0.33110701179536894 rxn_smarts="[O:1]([C:2]([C@@:3]1([H:10])[C:4]([H:11])([H:12])[C:5]([H:13])([H:14])[O:6]1)([H:8])[H:9])[H:7]>>[O:1]([C:2]([C:4]([C:5]([O+:6]=[C-:3][H:10])([H:13])[H:14])([H:11])[H:12])([H:8])[H:9])[H:7]"
O       -2.14105290       0.51329320      -0.44454403
C       -1.26662931      -0.53644084      -0.20844201
C       -0.15417882      -0.00000736       1.24560674
C        0.59439380      -0.25800602      -0.67336801
C        1.51320056       0.68532695       0.08907550
O        0.57271636       1.14653216       1.04517813
H       -2.16346362       1.01533504       0.37979081
H       -1.64138225      -1.28265645       0.50072612
H       -1.27798242      -1.09863168      -1.15379905
H        0.46483802      -0.83628050       1.62275068
H        0.97735943      -1.25334262      -0.89386397
H        0.29332103       0.21503169      -1.60622904
H        1.89395111       1.52982264      -0.49375102
H        2.33490899       0.16002378       0.59086916
14
Frame=5 idx=004972 GeodesicLength=0.4143194369793108 rxn_smarts="[O:1]([C:2]([C@@:3]1([H:10])[C:4]([H:11])([H:12])[C:5]([H:13])([H:14])[O:6]1)([H:8])[H:9])[H:7]>>[O:1]([C:2]([C:4]([C:5]([O+:6]=[C-:3][H:10])([H:13])[H:14])([H:11])[H:12])([H:8])[H:9])[H:7]"
O       -2.11199467       0.54088626      -0.46663884
C       -1.27036679      -0.53431895      -0.21173350
C       -0.13141650      -0.04922378       1.26578874
C        0.59423318      -0.26750229      -0.66935679
C        1.49583828       0.69764416       0.08616691
O        0.55950835       1.11746312       1.06911897
H       -2.13319008       1.05006729       0.35305866
H       -1.68812575      -1.25414501       0.50116041
H       -1.29855205      -1.11446529      -1.14560410
H        0.50556781      -0.87397170       1.63678965
H        0.99385383      -1.25914800      -0.87761474
H        0.30874135       0.18616988      -1.61691913
H        1.83206567       1.56458407      -0.49158744
H        2.34383738       0.19596025       0.56737121
14
Frame=6 idx=004972 GeodesicLength=0.49775885907092937 rxn_smarts="[O:1]([C:2]([C@@:3]1([H:10])[C:4]([H:11])([H:12])[C:5]([H:13])([H:14])[O:6]1)([H:8])[H:9])[H:7]>>[O:1]([C:2]([C:4]([C:5]([O+:6]=[C-:3][H:10])([H:13])[H:14])([H:11])[H:12])([H:8])[H:9])[H:7]"
O       -2.08199391       0.56744668      -0.48919099
C       -1.27396506      -0.53183537      -0.21495708
C       -0.10789177      -0.09925398       1.28438176
C        0.59421943      -0.27729648      -0.66589580
C        1.47700309       0.70952703       0.08374848
O        0.54647039       1.08682994       1.09299711
H       -2.10137585       1.08456717       0.32530667
H       -1.73280019      -1.22208433       0.50247246
H       -1.32025051      -1.12976582      -1.13657764
H        0.54755812      -0.91095077       1.65057139
H        1.01091270      -1.26457083      -0.86219528
H        0.32452725       0.15727058      -1.62724739
H        1.76732968       1.59723847      -0.48755123
H        2.35025664       0.23287771       0.54413755
14
Frame=7 idx=004972 GeodesicLength=0.5815145228094002 rxn_smarts="[O:1]([C:2]([C@@:3]1([H:10])[C:4]([H:11])([H:12])[C:5]([H:13])([H:14])[O:6]1)([H:8])[H:9])[H:7]>>[O:1]([C:2]([C:4]([C:5]([O+:6]=[C-:3][H:10])([H:13])[H:14])([H:11])[H:12])([H:8])[H:9])[H:7]"
O       -2.05130368       0.59279574      -0.51228440
C       -1.27743595      -0.52896391      -0.21807156
C       -0.08356380      -0.15000954       1.30136238
C        0.59431891      -0.28732786      -0.66301002
C        1.45670914       0.72088593       0.08186429
O        0.53364660       1.05465712       1.11667130
H       -2.06792035       1.11890594       0.29621026
H       -1.77503303      -1.18655569       0.50480012
H       -1.34311623      -1.14456032      -1.12653791
H        0.59073260      -0.94712848       1.66408806
H        1.02853216      -1.26948544      -0.84778769
H        0.34055299       0.12867760      -1.63713774
H        1.69984675       1.62745579      -0.48150816
H        2.35403388       0.27065311       0.52134107
14
Frame=8 idx=004972 GeodesicLength=0.6656704847638266 rxn_smarts="[O:1]([C:2]([C@@:3]1([H:10])[C:4]([H:11])([H:12])[C:5]([H:13])([H:14])[O:6]1)([H:8])[H:9])[H:7]>>[O:1]([C:2]([C:4]([C:5]([O+:6]=[C-:3][H:10])([H:13])[H:14])([H:11])[H:12])([H:8])[H:9])[H:7]"
O       -2.02023774       0.61674814      -0.53598657
C       -1.28081514      -0.52570686      -0.22104737
C       -0.05842425      -0.20136049       1.31671643
C        0.59448150      -0.29750656      -0.66071107
C        1.43500893       0.73162019       0.08058154
O        0.52103467       1.02102046       1.13999594
H       -2.03284924       1.15305923       0.26553603
H       -1.81446739      -1.14772760       0.50824438
H       -1.36718959      -1.15886704      -1.11533129
H        0.63495964      -0.98235687       1.67735311
H        1.04667739      -1.27374488      -0.83456335
H        0.35668684       0.10076414      -1.64653017
H        1.63003749       1.65496538      -0.47343910
H        2.35509690       0.30909276       0.49918148
14
Frame=9 idx=004972 GeodesicLength=0.7502429769346272 rxn_smarts="[O:1]([C:2]([C@@:3]1([H:10])[C:4]([H:11])([H:12])[C:5]([H:13])([H:14])[O:6]1)([H:8])[H:9])[H:7]>>[O:1]([C:2]([C:4]([C:5]([O+:6]=[C-:3][H:10])([H:13])[H:14])([H:11])[H:12])([H:8])[H:9])[H:7]"
O       -1.98926811       0.63899154      -0.56019425
C       -1.28416290      -0.52213326      -0.22380999
C       -0.03251487      -0.25307610       1.33051317
C        0.59462243      -0.30763228      -0.65889989
C        1.41210807       0.74161438       0.08001211
O        0.50847522       0.98623367       1.16288896
H       -1.99652975       1.18668679       0.23314056
H       -1.85102524      -1.10582120       0.51243708
H       -1.39244950      -1.17266484      -1.10265785
H        0.68012885      -1.01649532       1.69039819
H        1.06528625      -1.27708933      -0.82262804
H        0.37274064       0.07402898      -1.65527203
H        1.55904850       1.67954653      -0.46371826
H        2.35354039       0.34781044       0.47779024
14
Frame=10 idx=004972 GeodesicLength=0.8353454401956615 rxn_smarts="[O:1]([C:2]([C@@:3]1([H:10])[C:4]([H:11])([H:12])[C:5]([H:13])([H:14])[O:6]1)([H:8])[H:9])[H:7]>>[O:1]([C:2]([C:4]([C:5]([O+:6]=[C-:3][H:10])([H:13])[H:14])([H:11])[H:12])([H:8])[H:9])[H:7]"
O       -1.95851676       0.65957531      -0.58505300
C       -1.28748944      -0.51819109      -0.22639894
C       -0.00578077      -0.30505658       1.34264999
C        0.59473268      -0.31772298      -0.65769526
C        1.38799399       0.75080732       0.08013600
O        0.49604786       0.95021957       1.18512983
H       -1.95870203       1.21988661       0.19881522
H       -1.88421271      -1.06100108       0.51781858
H       -1.41899788      -1.18596207      -1.08850047
H        0.72605236      -1.04942365       1.70321505
H        1.08431256      -1.27952341      -0.81210540
H        0.38869636       0.04861316      -1.66350704
H        1.48665865       1.70104568      -0.45198046
H        2.34920513       0.38673322       0.45747590
14
Frame=11 idx=004972 GeodesicLength=0.9210457478863194 rxn_smarts="[O:1]([C:2]([C@@:3]1([H:10])[C:4]([H:11])([H:12])[C:5]([H:13])([H:14])[O:6]1)([H:8])[H:9])[H:7]>>[O:1]([C:2]([C:4]([C:5]([O+:6]=[C-:3][H:10])([H:13])[H:14])([H:11])[H:12])([H:8])[H:9])[H:7]"
O       -1.92827296       0.67841772      -0.61054816
C       -1.29084031      -0.51389516      -0.22882080
C        0.02177724      -0.35709219       1.35312940
C        0.59476085      -0.32769161      -0.65709465
C        1.36282507       0.75911181       0.08097378
O        0.48370286       0.91315148       1.20656475
H       -1.91952196       1.25241268       0.16250658
H       -1.91381226      -1.01356122       0.52433068
H       -1.44687725      -1.19869526      -1.07274247
H        0.77253148      -1.08096827       1.71584957
H        1.10366472      -1.28095000      -0.80305260
H        0.40447044       0.02478048      -1.67125875
H        1.41345801       1.71939817      -0.43828596
H        2.34213407       0.42558137       0.43844862
14
Frame=12 idx=004972 GeodesicLength=1.007334262742309 rxn_smarts="[O:1]([C:2]([C@@:3]1([H:10])[C:4]([H:11])([H:12])[C:5]([H:13])([H:14])[O:6]1)([H:8])[H:9])[H:7]>>[O:1]([C:2]([C:4]([C:5]([O+:6]=[C-:3][H:10])([H:13])[H:14])([H:11])[H:12])([H:8])[H:9])[H:7]"
O       -1.89880016       0.69545852      -0.63662879
C       -1.29425467      -0.50929034      -0.23110575
C        0.05011734      -0.40895384       1.36196237
C        0.59466307      -0.33744216      -0.65708481
C        1.33678659       0.76646202       0.08253412
O        0.47134183       0.87521156       1.22707274
H       -1.87929587       1.28400894       0.12433306
H       -1.93966394      -0.96385487       0.53187275
H       -1.47610563      -1.21077334      -1.05534148
H        0.81932339      -1.11096280       1.72837294
H        1.12325074      -1.28127949      -0.79548288
H        0.42002031       0.00274462      -1.67855921
H        1.34016848       1.73461270      -0.42285672
H        2.33244851       0.46405848       0.42091166
14
Frame=13 idx=004972 GeodesicLength=1.0941677949073425 rxn_smarts="[O:1]([C:2]([C@@:3]1([H:10])[C:4]([H:11])([H:12])[C:5]([H:13])([H:14])[O:6]1)([H:8])[H:9])[H:7]>>[O:1]([C:2]([C:4]([C:5]([O+:6]=[C-:3][H:10])([H:13])[H:14])([H:11])[H:12])([H:8])[H:9])[H:7]"
O       -1.87038070       0.71058797      -0.66316629
C       -1.29776009      -0.50444638      -0.23326029
C        0.07916881      -0.46040822       1.36921616
C        0.59439554      -0.34685065      -0.65759226
C        1.31014693       0.77281001       0.08481413
O        0.45881653       0.83662315       1.24665546
H       -1.83837120       1.31428973       0.08444765
H       -1.96189392      -0.91219713       0.54007209
H       -1.50668617      -1.22211299      -1.03617044
H        0.86622933      -1.13934077       1.74085289
H        1.14298153      -1.28039671      -0.78933878
H        0.43529304      -0.01728835      -1.68538362
H        1.26764927       1.74690400      -0.40610104
H        2.32041111       0.50182634       0.40495433
14
Frame=14 idx=004972 GeodesicLength=1.181537783968614 rxn_smarts="[O:1]([C:2]([C@@:3]1([H:10])[C:4]([H:11])([H:12])[C:5]([H:13])([H:14])[O:6]1)([H:8])[H:9])[H:7]>>[O:1]([C:2]([C:4]([C:5]([O+:6]=[C-:3][H:10])([H:13])[H:14])([H:11])[H:12])([H:8])[H:9])[H:7]"
O       -1.84307708       0.72395269      -0.69015189
C       -1.30137960      -0.49937281      -0.23537590
C        0.10895038      -0.51118882       1.37487318
C        0.59395000      -0.35592298      -0.65867461
C        1.28302037       0.77813105       0.08775046
O        0.44619702       0.79748508       1.26508491
H       -1.79700238       1.34306656       0.04307902
H       -1.98025649      -0.85900648       0.54899972
H       -1.53864976      -1.23254348      -1.01536825
H        0.91296278      -1.16588034       1.75340090
H        1.16274228      -1.27835979      -0.78457383
H        0.45032860      -0.03530877      -1.69187614
H        1.19613287       1.75622690      -0.38794492
H        2.30608100       0.53872119       0.39077734
14
Frame=15 idx=004972 GeodesicLength=1.2693710556601059 rxn_smarts="[O:1]([C:2]([C@@:3]1([H:10])[C:4]([H:11])([H:12])[C:5]([H:13])([H:14])[O:6]1)([H:8])[H:9])[H:7]>>[O:1]([C:2]([C:4]([C:5]([O+:6]=[C-:3][H:10])([H:13])[H:14])([H:11])[H:12])([H:8])[H:9])[H:7]"
O       -1.81698870       0.73560457      -0.71749619
C       -1.30512805      -0.49412587      -0.23751497
C        0.13942830      -0.56106187       1.37900081
C        0.59331798      -0.36461169      -0.66030314
C        1.25561184       0.78241957       0.09128810
O        0.43344924       0.75795753       1.28229375
H       -1.75558474       1.37006832       0.00055977
H       -1.99484120      -0.80468255       0.55842733
H       -1.57197020      -1.24191372      -0.99299079
H        0.95926011      -1.19048803       1.76612770
H        1.18244149      -1.27517131      -0.78107926
H        0.46515897      -0.05128837      -1.69808421
H        1.12613475       1.76279105      -0.36865359
H        2.28971021       0.57450237       0.37842469
14
Frame=16 idx=004972 GeodesicLength=1.357585719525461 rxn_smarts="[O:1]([C:2]([C@@:3]1([H:10])[C:4]([H:11])([H:12])[C:5]([H:13])([H:14])[O:6]1)([H:8])[H:9])[H:7]>>[O:1]([C:2]([C:4]([C:5]([O+:6]=[C-:3][H:10])([H:13])[H:14])([H:11])[H:12])([H:8])[H:9])[H:7]"
O       -1.79217217       0.74561669      -0.74508588
C       -1.30901583      -0.48876988      -0.23973106
C        0.17057630      -0.60982690       1.38168252
C        0.59249670      -0.37289036      -0.66243929
C        1.22811905       0.78568773       0.09535128
O        0.42054901       0.71817316       1.29824880
H       -1.71449133       1.39506944      -0.04277564
H       -2.00583059      -0.74961273       0.56809197
H       -1.60660846      -1.25005664      -0.96912090
H        1.00491462      -1.21311963       1.77914743
H        1.20199262      -1.27085900      -0.77872692
H        0.47982294      -0.06525288      -1.70403958
H        1.05808681       1.76684656      -0.34850526
H        2.27156033       0.60899444       0.36790254
