12
Frame=0 idx=000608 GeodesicLength=0.0 rxn_smarts="[C:1]1([H:7])([H:8])[C@@:2]2([H:9])[C@:3]3([H:10])[O:4][C@@:5]2([H:11])[C@:6]13[H:12]>>[C:1]1([H:7])([H:8])[C@@:2]2([H:9])[C:3]([H:10])([H:12])[O:4][C@@:5]2([H:11])[C:6]1"
C        1.16275324      -0.64373425      -0.04289648
C       -0.16902116      -0.46595677       0.66021303
C       -0.45979156       1.03766266       0.48763892
O       -1.61175859       0.87769650      -0.28779621
C       -0.86416602      -0.29715215      -0.69938152
C        0.54376070       0.27031455      -1.13891272
H        1.30292505      -1.64978561      -0.44539527
H        2.08563701      -0.31135437       0.43162755
H       -0.55795835      -1.00050358       1.53275706
H       -0.42613511       1.85067462       1.21465684
H       -1.39145238      -1.04074449      -1.29180409
H        0.38520720       1.37288292      -0.42070709
12
Frame=1 idx=000608 GeodesicLength=0.06465939634344771 rxn_smarts="[C:1]1([H:7])([H:8])[C@@:2]2([H:9])[C@:3]3([H:10])[O:4][C@@:5]2([H:11])[C@:6]13[H:12]>>[C:1]1([H:7])([H:8])[C@@:2]2([H:9])[C:3]([H:10])([H:12])[O:4][C@@:5]2([H:11])[C:6]1"
C        1.16120654      -0.64419083      -0.04373923
C       -0.17025165      -0.46500267       0.66195372
C       -0.45407654       1.03874874       0.48526844
O       -1.60284622       0.88101226      -0.30014193
C       -0.86528888      -0.30332554      -0.69945168
C        0.53828463       0.26660416      -1.13740739
H        1.30294109      -1.65015507      -0.44628964
H        2.08449163      -0.31099061       0.42966760
H       -0.55519533      -0.99999695       1.53530065
H       -0.43856848       1.84005613       1.22531854
H       -1.39992049      -1.04618636      -1.28618173
H        0.39922369       1.39342674      -0.42429735
12
Frame=2 idx=000608 GeodesicLength=0.12931544379450033 rxn_smarts="[C:1]1([H:7])([H:8])[C@@:2]2([H:9])[C@:3]3([H:10])[O:4][C@@:5]2([H:11])[C@:6]13[H:12]>>[C:1]1([H:7])([H:8])[C@@:2]2([H:9])[C:3]([H:10])([H:12])[O:4][C@@:5]2([H:11])[C:6]1"
C        1.15962750      -0.64466898      -0.04457576
C       -0.17150076      -0.46406912       0.66374501
C       -0.44828423       1.03985124       0.48295358
O       -1.59385477       0.88411865      -0.31231775
C       -0.86644337      -0.30950967      -0.69943924
C        0.53281596       0.26307705      -1.13574462
H        1.30289655      -1.65048922      -0.44732107
H        2.08333105      -0.31072329       0.42772986
H       -0.55236699      -0.99952066       1.53790739
H       -0.45121745       1.82932772       1.23535280
H       -1.40842814      -1.05146270      -1.28053773
H        0.41342466       1.41406897      -0.42775248
12
Frame=3 idx=000608 GeodesicLength=0.1939738957193679 rxn_smarts="[C:1]1([H:7])([H:8])[C@@:2]2([H:9])[C@:3]3([H:10])[O:4][C@@:5]2([H:11])[C@:6]13[H:12]>>[C:1]1([H:7])([H:8])[C@@:2]2([H:9])[C:3]([H:10])([H:12])[O:4][C@@:5]2([H:11])[C:6]1"
C        1.15801799      -0.64516697      -0.04540359
C       -0.17276976      -0.46315837       0.66558199
C       -0.44242406       1.04096414       0.48070209
O       -1.58479629       0.88701325      -0.32431847
C       -0.86762655      -0.31569795      -0.69935071
C        0.52735768       0.25971494      -1.13393624
H        1.30279756      -1.65078977      -0.44847730
H        2.08215383      -0.31054128       0.42581696
H       -0.54947667      -0.99908493       1.54056570
H       -0.46405304       1.81849914       1.24476039
H       -1.41697808      -1.05657237      -1.27486889
H        0.42779739       1.43482018      -0.43107194
12
Frame=4 idx=000608 GeodesicLength=0.2586309657351612 rxn_smarts="[C:1]1([H:7])([H:8])[C@@:2]2([H:9])[C@:3]3([H:10])[O:4][C@@:5]2([H:11])[C@:6]13[H:12]>>[C:1]1([H:7])([H:8])[C@@:2]2([H:9])[C:3]([H:10])([H:12])[O:4][C@@:5]2([H:11])[C:6]1"
C        1.15637968      -0.64568319      -0.04621944
C       -0.17406086      -0.46227428       0.66746023
C       -0.43650698       1.04207957       0.47852291
O       -1.57568288       0.88969168      -0.33613707
C       -0.86883619      -0.32188468      -0.69919258
C        0.52191248       0.25650261      -1.13199182
H        1.30265075      -1.65105743      -0.44974741
H        2.08095812      -0.31043367       0.42393289
H       -0.54652848      -0.99870174       1.54326460
H       -0.47704180       1.80758525       1.25353912
H       -1.42557207      -1.06151334      -1.26917445
H        0.44232823       1.45568919      -0.43425698
12
Frame=5 idx=000608 GeodesicLength=0.32329955283119277 rxn_smarts="[C:1]1([H:7])([H:8])[C@@:2]2([H:9])[C@:3]3([H:10])[O:4][C@@:5]2([H:11])[C@:6]13[H:12]>>[C:1]1([H:7])([H:8])[C@@:2]2([H:9])[C:3]([H:10])([H:12])[O:4][C@@:5]2([H:11])[C:6]1"
C        1.15471429      -0.64621668      -0.04702161
C       -0.17537507      -0.46141979       0.66937521
C       -0.43054056       1.04319118       0.47642184
O       -1.56652561       0.89215516      -0.34777166
C       -0.87007045      -0.32806578      -0.69897056
C        0.51648221       0.25342066      -1.12992275
H        1.30246185      -1.65129489      -0.45111898
H        2.07974275      -0.31038990       0.42207824
H       -0.54352533      -0.99837972       1.54599423
H       -0.49015908       1.79659402       1.26169318
H       -1.43421274      -1.06628601      -1.26345104
H        0.45700773       1.47669178      -0.43730610
12
Frame=6 idx=000608 GeodesicLength=0.3879654871122602 rxn_smarts="[C:1]1([H:7])([H:8])[C@@:2]2([H:9])[C@:3]3([H:10])[O:4][C@@:5]2([H:11])[C@:6]13[H:12]>>[C:1]1([H:7])([H:8])[C@@:2]2([H:9])[C:3]([H:10])([H:12])[O:4][C@@:5]2([H:11])[C:6]1"
C        1.15302322      -0.64676632      -0.04780633
C       -0.17671544      -0.46059931       0.67132232
C       -0.42453648       1.04429125       0.47440417
O       -1.55733706       0.89439741      -0.35921535
C       -0.87132700      -0.33423754      -0.69869251
C        0.51106950       0.25045584      -1.12773729
H        1.30223775      -1.65150313      -0.45258156
H        2.07850526      -0.31040000       0.42025832
H       -0.54047264      -0.99812902       1.54874457
H       -0.50336553       1.78554159       1.26922458
H       -1.44290096      -1.07088922      -1.25769951
H        0.47181938       1.49783844      -0.44022142
12
Frame=7 idx=000608 GeodesicLength=0.4526396987528839 rxn_smarts="[C:1]1([H:7])([H:8])[C@@:2]2([H:9])[C@:3]3([H:10])[O:4][C@@:5]2([H:11])[C@:6]13[H:12]>>[C:1]1([H:7])([H:8])[C@@:2]2([H:9])[C:3]([H:10])([H:12])[O:4][C@@:5]2([H:11])[C:6]1"
C        1.15130770      -0.64733191      -0.04857197
C       -0.17808337      -0.45981658       0.67329764
C       -0.41850235       1.04537280       0.47247366
O       -1.54812893       0.89641964      -0.37046737
C       -0.87260526      -0.34039849      -0.69836341
C        0.50567530       0.24759031      -1.12544589
H        1.30198339      -1.65168471      -0.45412451
H        2.07724430      -0.31045491       0.41847362
H       -0.53737357      -0.99795676       1.55150781
H       -0.51663402       1.77443714       1.27613585
H       -1.45163777      -1.07532540      -1.25191826
H        0.48675456       1.51914889      -0.44299716
12
Frame=8 idx=000608 GeodesicLength=0.5173168650244201 rxn_smarts="[C:1]1([H:7])([H:8])[C@@:2]2([H:9])[C@:3]3([H:10])[O:4][C@@:5]2([H:11])[C@:6]13[H:12]>>[C:1]1([H:7])([H:8])[C@@:2]2([H:9])[C:3]([H:10])([H:12])[O:4][C@@:5]2([H:11])[C:6]1"
C        1.14956896      -0.64791321      -0.04931598
C       -0.17948126      -0.45907604       0.67529669
C       -0.41244737       1.04642839       0.47063241
O       -1.53891203       0.89821936      -0.38152504
C       -0.87390387      -0.34654760      -0.69799045
C        0.50030119       0.24480834      -1.12305714
H        1.30170469      -1.65184171      -0.45573738
H        2.07595812      -0.31054561       0.41672673
H       -0.53423281      -0.99787032       1.55427577
H       -0.52993171       1.76329444       1.28243403
H       -1.46042447      -1.07959559      -1.24610731
H        0.50180055       1.54063954      -0.44563233
12
Frame=9 idx=000608 GeodesicLength=0.5820085407955022 rxn_smarts="[C:1]1([H:7])([H:8])[C@@:2]2([H:9])[C@:3]3([H:10])[O:4][C@@:5]2([H:11])[C@:6]13[H:12]>>[C:1]1([H:7])([H:8])[C@@:2]2([H:9])[C:3]([H:10])([H:12])[O:4][C@@:5]2([H:11])[C:6]1"
C        1.14780784      -0.64851064      -0.05003637
C       -0.18091137      -0.45838103       0.67731561
C       -0.40637897       1.04745154       0.46888232
O       -1.52969663       0.89979756      -0.39239134
C       -0.87522203      -0.35268482      -0.69757929
C        0.49494650       0.24209229      -1.12058123
H        1.30140648      -1.65197784      -0.45740793
H        2.07464503      -0.31066268       0.41501738
H       -0.53105582      -0.99787510       1.55704134
H       -0.54322773       1.75212075       1.28813099
H       -1.46926092      -1.08370414      -1.24026590
H        0.51694764       1.56233410      -0.44812558
12
Frame=10 idx=000608 GeodesicLength=0.6467055217269543 rxn_smarts="[C:1]1([H:7])([H:8])[C@@:2]2([H:9])[C@:3]3([H:10])[O:4][C@@:5]2([H:11])[C@:6]13[H:12]>>[C:1]1([H:7])([H:8])[C@@:2]2([H:9])[C:3]([H:10])([H:12])[O:4][C@@:5]2([H:11])[C:6]1"
C        1.14602528      -0.64912491      -0.05073135
C       -0.18237615      -0.45773629       0.67935062
C       -0.40030486       1.04843457       0.46722245
O       -1.52049270       0.90115187      -0.40306430
C       -0.87655978      -0.35881229      -0.69713625
C        0.48961226       0.23942866      -1.11802575
H        1.30109367      -1.65209520      -0.45912870
H        2.07330339      -0.31079931       0.41334730
H       -0.52784633      -0.99797645       1.55979868
H       -0.55649291       1.74093138       1.29323069
H       -1.47814875      -1.08765385      -1.23439418
H        0.53218689       1.58425181      -0.45046920
12
Frame=11 idx=000608 GeodesicLength=0.711403229412879 rxn_smarts="[C:1]1([H:7])([H:8])[C@@:2]2([H:9])[C@:3]3([H:10])[O:4][C@@:5]2([H:11])[C@:6]13[H:12]>>[C:1]1([H:7])([H:8])[C@@:2]2([H:9])[C:3]([H:10])([H:12])[O:4][C@@:5]2([H:11])[C:6]1"
C        1.14422210      -0.64975746      -0.05139907
C       -0.18387735      -0.45714554       0.68139862
C       -0.39423134       1.04937137       0.46565139
O       -1.51130992       0.90228218      -0.41354503
C       -0.87791684      -0.36493191      -0.69666614
C        0.48429867       0.23680407      -1.11539916
H        1.30077025      -1.65219767      -0.46089083
H        2.07193177      -0.31094954       0.41171714
H       -0.52460870      -0.99817761       1.56254271
H       -0.56970093       1.72973564       1.29774387
H       -1.48708777      -1.09144855      -1.22849230
H        0.54751006       1.60641503      -0.45266121
12
Frame=12 idx=000608 GeodesicLength=0.7761045891006783 rxn_smarts="[C:1]1([H:7])([H:8])[C@@:2]2([H:9])[C@:3]3([H:10])[O:4][C@@:5]2([H:11])[C@:6]13[H:12]>>[C:1]1([H:7])([H:8])[C@@:2]2([H:9])[C:3]([H:10])([H:12])[O:4][C@@:5]2([H:11])[C:6]1"
C        1.14239880      -0.65040964      -0.05203822
C       -0.18541752      -0.45661334       0.68345598
C       -0.38816526       1.05025452       0.46416749
O       -1.50215709       0.90318820      -0.42383657
C       -0.87929357      -0.37104760      -0.69617477
C        0.47900408       0.23420280      -1.11270978
H        1.30044090      -1.65228909      -0.46268477
H        2.07052864      -0.31110610       0.41012636
H       -0.52134797      -0.99848254       1.56526857
H       -0.58282139       1.71854574       1.30167909
H       -1.49607883      -1.09509325      -1.22256063
H        0.56290919       1.62885031      -0.45469276
12
Frame=13 idx=000608 GeodesicLength=0.8408143540368832 rxn_smarts="[C:1]1([H:7])([H:8])[C@@:2]2([H:9])[C@:3]3([H:10])[O:4][C@@:5]2([H:11])[C@:6]13[H:12]>>[C:1]1([H:7])([H:8])[C@@:2]2([H:9])[C:3]([H:10])([H:12])[O:4][C@@:5]2([H:11])[C:6]1"
C        1.14055567      -0.65108353      -0.05264879
C       -0.18699820      -0.45614267       0.68551938
C       -0.38211111       1.05107819       0.46276512
O       -1.49304249       0.90387169      -0.43394558
C       -0.88069190      -0.37716512      -0.69566637
C        0.47372671       0.23160948      -1.10996706
H        1.30010833      -1.65237404      -0.46450248
H        2.06909295      -0.31126365       0.40857215
H       -0.51806752      -0.99889125       1.56797342
H       -0.59583223       1.70737093       1.30505002
H       -1.50512261      -1.09859654      -1.21659829
H        0.57838238       1.65158652      -0.45655152
12
Frame=14 idx=000608 GeodesicLength=0.9055236110775855 rxn_smarts="[C:1]1([H:7])([H:8])[C@@:2]2([H:9])[C@:3]3([H:10])[O:4][C@@:5]2([H:11])[C@:6]13[H:12]>>[C:1]1([H:7])([H:8])[C@@:2]2([H:9])[C:3]([H:10])([H:12])[O:4][C@@:5]2([H:11])[C:6]1"
C        1.13869314      -0.65178190      -0.05322947
C       -0.18862116      -0.45573726       0.68758606
C       -0.37607417       1.05183631       0.46144095
O       -1.48397406       0.90433088      -0.44387406
C       -0.88211168      -0.38328767      -0.69514547
C        0.46846615       0.22901057      -1.10717848
H        1.29977531      -1.65245762      -0.46633601
H        2.06762363      -0.31141817       0.40705392
H       -0.51477189      -0.99940573       1.57065344
H       -0.60870746       1.69622212       1.30786502
H       -1.51421830      -1.10196220      -1.21060560
H        0.59392049       1.67465067      -0.45823029
12
Frame=15 idx=000608 GeodesicLength=0.9702322727306895 rxn_smarts="[C:1]1([H:7])([H:8])[C@@:2]2([H:9])[C@:3]3([H:10])[O:4][C@@:5]2([H:11])[C@:6]13[H:12]>>[C:1]1([H:7])([H:8])[C@@:2]2([H:9])[C:3]([H:10])([H:12])[O:4][C@@:5]2([H:11])[C:6]1"
C        1.13681139      -0.65250746      -0.05378036
C       -0.19028807      -0.45540014       0.68965310
C       -0.37005863       1.05252315       0.46018854
O       -1.47495898       0.90456629      -0.45362889
C       -0.88355472      -0.38942192      -0.69461602
C        0.46321981       0.22639159      -1.10435274
H        1.29944428      -1.65254511      -0.46817756
H        2.06611967      -0.31156533       0.40556865
H       -0.51146477      -1.00002538       1.57330641
H       -0.62142443       1.68510896       1.31013614
H       -1.52336656      -1.10519817      -1.20458201
H        0.60952102       1.69807353      -0.45971525
12
Frame=16 idx=000608 GeodesicLength=1.0349400617011586 rxn_smarts="[C:1]1([H:7])([H:8])[C@@:2]2([H:9])[C@:3]3([H:10])[O:4][C@@:5]2([H:11])[C@:6]13[H:12]>>[C:1]1([H:7])([H:8])[C@@:2]2([H:9])[C:3]([H:10])([H:12])[O:4][C@@:5]2([H:11])[C:6]1"
C        1.13491042      -0.65326377      -0.05430212
C       -0.19199985      -0.45513386       0.69171789
C       -0.36406664       1.05313346       0.45900101
O       -1.46600315       0.90457912      -0.46321770
C       -0.88502280      -0.39557445      -0.69408112
C        0.45798491       0.22373757      -1.10149845
H        1.29911658      -1.65264292      -0.47001998
H        2.06458071      -0.31170212       0.40411161
H       -0.50814931      -1.00074888       1.57593094
H       -0.63396591       1.67404144       1.31187588
H       -1.53256762      -1.10831306      -1.19852652
H        0.62518264       1.72188747      -0.46099144
