13
Frame=0 idx=003289 GeodesicLength=0.0 rxn_smarts="[C:1]([C@@:2]1([C:5](=[O:6])[H:13])[C:3]([H:10])([H:11])[N:4]1[H:12])([H:7])([H:8])[H:9]>>[C:1]([O:6]/[C:5](=[C:2]1/[C:3]([H:10])([H:11])[N:4]1[H:12])[H:13])([H:7])([H:8])[H:9]"
C        1.37853782      -1.26307773      -0.42066382
C       -0.14112467       0.35072693       0.32704800
C       -0.51724911       1.76894228       0.34005615
N       -0.18835501       1.09126115      -0.91854202
C       -0.83123891      -0.79994396       0.71882987
O       -0.38075244      -1.91561914       0.40489476
H        1.28186327      -2.21772027      -0.91863253
H        1.51228009      -0.41758371      -1.08436875
H        1.98361529      -1.27294676       0.47472645
H       -1.55398160       2.04605269       0.51624123
H        0.20995896       2.50724744       0.65926790
H       -1.02833479       0.89253821      -1.45352976
H       -1.72521891      -0.76987716       1.35467250
13
Frame=1 idx=003289 GeodesicLength=0.04741392447087892 rxn_smarts="[C:1]([C@@:2]1([C:5](=[O:6])[H:13])[C:3]([H:10])([H:11])[N:4]1[H:12])([H:7])([H:8])[H:9]>>[C:1]([O:6]/[C:5](=[C:2]1/[C:3]([H:10])([H:11])[N:4]1[H:12])[H:13])([H:7])([H:8])[H:9]"
C        1.36632098      -1.25244070      -0.40972750
C       -0.14295676       0.34451026       0.31463630
C       -0.51395190       1.76364486       0.33638141
N       -0.19192495       1.09106716      -0.92627392
C       -0.84314894      -0.80013195       0.70692840
O       -0.42268621      -1.91717899       0.35169136
H        1.30775851      -2.21048630      -0.90850712
H        1.52643906      -0.42017158      -1.08511166
H        1.96206273      -1.25743764       0.49276666
H       -1.54974932       2.04229266       0.51496536
H        0.21802562       2.49567241       0.65906962
H       -1.03334526       0.89312385      -1.45915738
H       -1.68284358      -0.77246406       1.41233848
13
Frame=2 idx=003289 GeodesicLength=0.09487624667553038 rxn_smarts="[C:1]([C@@:2]1([C:5](=[O:6])[H:13])[C:3]([H:10])([H:11])[N:4]1[H:12])([H:7])([H:8])[H:9]>>[C:1]([O:6]/[C:5](=[C:2]1/[C:3]([H:10])([H:11])[N:4]1[H:12])[H:13])([H:7])([H:8])[H:9]"
C        1.35313081      -1.24256342      -0.39933442
C       -0.14461900       0.33899092       0.30270346
C       -0.51120436       1.75881512       0.33308793
N       -0.19471124       1.09169052      -0.93343114
C       -0.85496596      -0.79964478       0.69538822
O       -0.46322022      -1.91617417       0.30114990
H        1.33013778      -2.20415201      -0.89563659
H        1.53941689      -0.42437695      -1.08605890
H        1.94096783      -1.24159161       0.50918975
H       -1.54634743       2.03837102       0.51341575
H        0.22490238       2.48484643       0.65986086
H       -1.03709086       0.89424359      -1.46486408
H       -1.63639660      -0.77845465       1.46452927
13
Frame=3 idx=003289 GeodesicLength=0.1424131942280274 rxn_smarts="[C:1]([C@@:2]1([C:5](=[O:6])[H:13])[C:3]([H:10])([H:11])[N:4]1[H:12])([H:7])([H:8])[H:9]>>[C:1]([O:6]/[C:5](=[C:2]1/[C:3]([H:10])([H:11])[N:4]1[H:12])[H:13])([H:7])([H:8])[H:9]"
C        1.33929514      -1.23325097      -0.38954750
C       -0.14593672       0.33404943       0.29136309
C       -0.50872487       1.75435733       0.33027989
N       -0.19707549       1.09284836      -0.93997048
C       -0.86620287      -0.79858960       0.68482579
O       -0.50199251      -1.91305449       0.25387738
H        1.34947169      -2.19874269      -0.88013172
H        1.55107973      -0.43020683      -1.08762271
H        1.92089101      -1.22487399       0.52382167
H       -1.54338840       2.03431878       0.51211660
H        0.23107198       2.47460854       0.66144200
H       -1.04019869       0.89554375      -1.47017116
H       -1.58828999      -0.78700763       1.50971714
13
Frame=4 idx=003289 GeodesicLength=0.19016186956667408 rxn_smarts="[C:1]([C@@:2]1([C:5](=[O:6])[H:13])[C:3]([H:10])([H:11])[N:4]1[H:12])([H:7])([H:8])[H:9]>>[C:1]([O:6]/[C:5](=[C:2]1/[C:3]([H:10])([H:11])[N:4]1[H:12])[H:13])([H:7])([H:8])[H:9]"
C        1.32502486      -1.22437162      -0.38013185
C       -0.14695063       0.32969556       0.28070146
C       -0.50639022       1.75029836       0.32778143
N       -0.19929059       1.09425444      -0.94597177
C       -0.87664226      -0.79697185       0.67553866
O       -0.53951959      -1.90780127       0.20884073
H        1.36609190      -2.19381364      -0.86267918
H        1.56184002      -0.43720166      -1.08909871
H        1.90167663      -1.20777972       0.53713467
H       -1.54067126       2.03035699       0.51098827
H        0.23684428       2.46508342       0.66296675
H       -1.04307158       0.89675263      -1.47493466
H       -1.53894156      -0.79850164       1.54886419
13
Frame=5 idx=003289 GeodesicLength=0.2380460263253502 rxn_smarts="[C:1]([C@@:2]1([C:5](=[O:6])[H:13])[C:3]([H:10])([H:11])[N:4]1[H:12])([H:7])([H:8])[H:9]>>[C:1]([O:6]/[C:5](=[C:2]1/[C:3]([H:10])([H:11])[N:4]1[H:12])[H:13])([H:7])([H:8])[H:9]"
C        1.31055777      -1.21583627      -0.37125608
C       -0.14760696       0.32576394       0.27061937
C       -0.50415046       1.74652153       0.32572091
N       -0.20130874       1.09593661      -0.95144618
C       -0.88627511      -0.79502009       0.66737595
O       -0.57545361      -1.90103460       0.16671787
H        1.38040042      -2.18957417      -0.84324705
H        1.57153411      -0.44558429      -1.09121527
H        1.88373752      -1.18970710       0.54887451
H       -1.53815380       2.02634697       0.51024091
H        0.24225629       2.45604208       0.66496260
H       -1.04567640       0.89789693      -1.47917103
H       -1.48986104      -0.81175155       1.58182348
13
Frame=6 idx=003289 GeodesicLength=0.2861467193035738 rxn_smarts="[C:1]([C@@:2]1([C:5](=[O:6])[H:13])[C:3]([H:10])([H:11])[N:4]1[H:12])([H:7])([H:8])[H:9]>>[C:1]([O:6]/[C:5](=[C:2]1/[C:3]([H:10])([H:11])[N:4]1[H:12])[H:13])([H:7])([H:8])[H:9]"
C        1.29600058      -1.20755077      -0.36277022
C       -0.14801896       0.32221428       0.26108055
C       -0.50192470       1.74301645       0.32397518
N       -0.20329317       1.09775605      -0.95648737
C       -0.89516795      -0.79278652       0.66023426
O       -0.61010421      -1.89281385       0.12686604
H        1.39270876      -2.18576415      -0.82215203
H        1.58038852      -0.45506086      -1.09354894
H        1.86687854      -1.17086771       0.55936236
H       -1.53569226       2.02243063       0.50982069
H        0.24754502       2.44745262       0.66698133
H       -1.04824631       0.89893917      -1.48288235
H       -1.44107387      -0.82696535       1.60952050
13
Frame=7 idx=003289 GeodesicLength=0.33448602899698465 rxn_smarts="[C:1]([C@@:2]1([C:5](=[O:6])[H:13])[C:3]([H:10])([H:11])[N:4]1[H:12])([H:7])([H:8])[H:9]>>[C:1]([O:6]/[C:5](=[C:2]1/[C:3]([H:10])([H:11])[N:4]1[H:12])[H:13])([H:7])([H:8])[H:9]"
C        1.28147137      -1.19944370      -0.35470635
C       -0.14823148       0.31892536       0.25194508
C       -0.49970408       1.73967655       0.32257695
N       -0.20520995       1.09974419      -0.96112845
C       -0.90341309      -0.79040233       0.65388468
O       -0.64343658      -1.88349429       0.08933930
H        1.40336667      -2.18241892      -0.79930721
H        1.58830083      -0.46578798      -1.09646784
H        1.85120943      -1.15092728       0.56853923
H       -1.53327573       2.01850854       0.50978142
H        0.25272648       2.43905947       0.66936663
H       -1.05074041       0.89998278      -1.48614358
H       -1.39306345      -0.84342238       1.63232013
13
Frame=8 idx=003289 GeodesicLength=0.38309186116977334 rxn_smarts="[C:1]([C@@:2]1([C:5](=[O:6])[H:13])[C:3]([H:10])([H:11])[N:4]1[H:12])([H:7])([H:8])[H:9]>>[C:1]([O:6]/[C:5](=[C:2]1/[C:3]([H:10])([H:11])[N:4]1[H:12])[H:13])([H:7])([H:8])[H:9]"
C        1.26700916      -1.19151452      -0.34697760
C       -0.14820616       0.31595163       0.24329228
C       -0.49756603       1.73653963       0.32141062
N       -0.20703060       1.10180965      -0.96539951
C       -0.91093958      -0.78782837       0.64844320
O       -0.67580493      -1.87297311       0.05364715
H        1.41223583      -2.17927599      -0.77534358
H        1.59567921      -0.47742871      -1.09940379
H        1.83653796      -1.13048647       0.57663040
H       -1.53101535       2.01459150       0.50985747
H        0.25765683       2.43109042       0.67177665
H       -1.05307764       0.90083922      -1.48902881
H       -1.34547869      -0.86131488       1.65109552
13
Frame=9 idx=003289 GeodesicLength=0.4319595249550808 rxn_smarts="[C:1]([C@@:2]1([C:5](=[O:6])[H:13])[C:3]([H:10])([H:11])[N:4]1[H:12])([H:7])([H:8])[H:9]>>[C:1]([O:6]/[C:5](=[C:2]1/[C:3]([H:10])([H:11])[N:4]1[H:12])[H:13])([H:7])([H:8])[H:9]"
C        1.25271437      -1.18369588      -0.33961191
C       -0.14799317       0.31318364       0.23500537
C       -0.49545229       1.73352127       0.32052721
N       -0.20877521       1.10398022      -0.96932386
C       -0.91781175      -0.78519144       0.64371323
O       -0.70710560      -1.86156545       0.01987643
H        1.41970685      -2.17638769      -0.75002717
H        1.60231956      -0.49017483      -1.10276437
H        1.82298557      -1.10913615       0.58354179
H       -1.52882390       2.01063826       0.51018909
H        0.26244838       2.42330005       0.67447386
H       -1.05530631       0.90163220      -1.49155139
H       -1.29890650      -0.88010421       1.66595171
13
Frame=10 idx=003289 GeodesicLength=0.4810727534219843 rxn_smarts="[C:1]([C@@:2]1([C:5](=[O:6])[H:13])[C:3]([H:10])([H:11])[N:4]1[H:12])([H:7])([H:8])[H:9]>>[C:1]([O:6]/[C:5](=[C:2]1/[C:3]([H:10])([H:11])[N:4]1[H:12])[H:13])([H:7])([H:8])[H:9]"
C        1.23865654      -1.17593864      -0.33255340
C       -0.14762815       0.31059571       0.22709155
C       -0.49327412       1.73062443       0.31986746
N       -0.21058599       1.10614069      -0.97296271
C       -0.92403544      -0.78254810       0.63967842
O       -0.73740960      -1.84934323      -0.01217708
H        1.42598136      -2.17356669      -0.72361655
H        1.60840100      -0.50378012      -1.10626896
H        1.81045062      -1.08703820       0.58941172
H       -1.52656698       2.00673863       0.51083767
H        0.26731455       2.41571517       0.67710690
H       -1.05765358       0.90228450      -1.49365102
H       -1.25365020      -0.89988414       1.67723601
13
Frame=11 idx=003289 GeodesicLength=0.5305329583627558 rxn_smarts="[C:1]([C@@:2]1([C:5](=[O:6])[H:13])[C:3]([H:10])([H:11])[N:4]1[H:12])([H:7])([H:8])[H:9]>>[C:1]([O:6]/[C:5](=[C:2]1/[C:3]([H:10])([H:11])[N:4]1[H:12])[H:13])([H:7])([H:8])[H:9]"
C        1.22483223      -1.16823529      -0.32579611
C       -0.14716418       0.30813908       0.21942024
C       -0.49112762       1.72778130       0.31945427
N       -0.21231190       1.10841367      -0.97630918
C       -0.92972292      -0.77992086       0.63613421
O       -0.76684147      -1.83641644      -0.04266995
H        1.43117346      -2.17088266      -0.69581326
H        1.61374117      -0.51855093      -1.11023217
H        1.79893312      -1.06393785       0.59415303
H       -1.52437671       2.00276845       0.51169927
H        0.27206492       2.40813359       0.68012086
H       -1.05987070       0.90297827      -1.49548550
H       -1.20932938      -0.92027032       1.68532429
13
Frame=12 idx=003289 GeodesicLength=0.5802588983394874 rxn_smarts="[C:1]([C@@:2]1([C:5](=[O:6])[H:13])[C:3]([H:10])([H:11])[N:4]1[H:12])([H:7])([H:8])[H:9]>>[C:1]([O:6]/[C:5](=[C:2]1/[C:3]([H:10])([H:11])[N:4]1[H:12])[H:13])([H:7])([H:8])[H:9]"
C        1.21131145      -1.16055954      -0.31931705
C       -0.14655812       0.30582144       0.21206967
C       -0.48895423       1.72501655       0.31923699
N       -0.21405148       1.11067478      -0.97940041
C       -0.93480108      -0.77734258       0.63317335
O       -0.79543793      -1.82282850      -0.07167646
H        1.43534500      -2.16811607      -0.66709889
H        1.61860274      -0.53417120      -1.11430213
H        1.78836226      -1.04019072       0.59788029
H       -1.52217733       1.99878478       0.51278614
H        0.27681730       2.40071370       0.68313379
H       -1.06211592       0.90353803      -1.49699148
H       -1.16634265      -0.94134068       1.69050619
13
Frame=13 idx=003289 GeodesicLength=0.6301887975124587 rxn_smarts="[C:1]([C@@:2]1([C:5](=[O:6])[H:13])[C:3]([H:10])([H:11])[N:4]1[H:12])([H:7])([H:8])[H:9]>>[C:1]([O:6]/[C:5](=[C:2]1/[C:3]([H:10])([H:11])[N:4]1[H:12])[H:13])([H:7])([H:8])[H:9]"
C        1.19814099      -1.15288851      -0.31313650
C       -0.14580530       0.30360575       0.20501310
C       -0.48673911       1.72229602       0.31920378
N       -0.21582838       1.11289500      -0.98225349
C       -0.93926528      -0.77485498       0.63073571
O       -0.82317263      -1.80872246      -0.09917997
H        1.43864122      -2.16515989      -0.63764916
H        1.62305933      -0.55057050      -1.11843035
H        1.77870805      -1.01589227       0.60058570
H       -1.51994406       1.99476250       0.51411809
H        0.28159545       2.39340840       0.68613699
H       -1.06442375       0.90394254      -1.49816409
H       -1.12496651      -0.96282159       1.69302018
13
Frame=14 idx=003289 GeodesicLength=0.6803559618315315 rxn_smarts="[C:1]([C@@:2]1([C:5](=[O:6])[H:13])[C:3]([H:10])([H:11])[N:4]1[H:12])([H:7])([H:8])[H:9]>>[C:1]([O:6]/[C:5](=[C:2]1/[C:3]([H:10])([H:11])[N:4]1[H:12])[H:13])([H:7])([H:8])[H:9]"
C        1.18531559      -1.14522412      -0.30725484
C       -0.14492179       0.30147778       0.19820192
C       -0.48454103       1.71959549       0.31936846
N       -0.21754131       1.11514040      -0.98485875
C       -0.94317328      -0.77246231       0.62872744
O       -0.85013697      -1.79415831      -0.12528323
H        1.44112964      -2.16201848      -0.60735924
H        1.62702003      -0.56790649      -1.12275455
H        1.76996059      -0.99096474       0.60220671
H       -1.51776234       1.99064473       0.51560897
H        0.28627320       2.38615678       0.68934862
H       -1.06662786       0.90426937      -1.49909940
H       -1.08499447      -0.98455010       1.69314788
13
Frame=15 idx=003289 GeodesicLength=0.7306559044547711 rxn_smarts="[C:1]([C@@:2]1([C:5](=[O:6])[H:13])[C:3]([H:10])([H:11])[N:4]1[H:12])([H:7])([H:8])[H:9]>>[C:1]([O:6]/[C:5](=[C:2]1/[C:3]([H:10])([H:11])[N:4]1[H:12])[H:13])([H:7])([H:8])[H:9]"
C        1.17287764      -1.13754573      -0.30167939
C       -0.14389403       0.29941939       0.19165138
C       -0.48230248       1.71691077       0.31967617
N       -0.21931125       1.11730655      -0.98726358
C       -0.94649940      -0.77019248       0.62715684
O       -0.87631171      -1.77922471      -0.14998455
H        1.44293967      -2.15850186      -0.57668118
H        1.63074457      -0.58585844      -1.12693654
H        1.76198205      -0.96576544       0.60287279
H       -1.51554320       1.98646763       0.51731097
H        0.29097653       2.37901475       0.69247197
H       -1.06891519       0.90440564      -1.49973203
H       -1.04674321      -1.00643608       1.69113714
13
Frame=16 idx=003289 GeodesicLength=0.781120769061354 rxn_smarts="[C:1]([C@@:2]1([C:5](=[O:6])[H:13])[C:3]([H:10])([H:11])[N:4]1[H:12])([H:7])([H:8])[H:9]>>[C:1]([O:6]/[C:5](=[C:2]1/[C:3]([H:10])([H:11])[N:4]1[H:12])[H:13])([H:7])([H:8])[H:9]"
C        1.16081352      -1.12986115      -0.29641178
C       -0.14273412       0.29742471       0.18532125
C       -0.48007988       1.71422737       0.32014118
N       -0.22104215       1.11945894      -0.98946006
C       -0.94929373      -0.76804440       0.62595081
O       -0.90179453      -1.76395846      -0.17338525
H        1.44411884      -2.15462518      -0.54550984
H        1.63414514      -0.60457400      -1.13109866
H        1.75476129      -0.94022681       0.60253083
H       -1.51337034       1.98218216       0.51914381
H        0.29558522       2.37194196       0.69570732
H       -1.07112940       0.90442185      -1.50015450
H       -1.00997988      -1.02836701       1.68722488
