9
Frame=0 idx=000207 GeodesicLength=0.0 rxn_smarts="[O:1]=[C:2]([C@@:3]1([H:7])[C:4]([H:8])([H:9])[O:5]1)[H:6]>>[O+:1](=[C-:2][H:6])[C@@:3]1([H:7])[C:4]([H:8])([H:9])[O:5]1"
O        1.40109455       0.26313157      -0.46932089
C        1.52413981      -0.19859277       0.73161237
C       -0.02771544       0.47368396       0.29584326
C       -1.07101945      -0.04018680      -0.60434339
O       -0.91516771      -0.52229301       0.73124610
H        1.91444765      -1.24550179       0.72653847
H       -0.04688083       1.45347768       0.74217623
H       -1.95776003       0.56508465      -0.76778442
H       -0.82113853      -0.74880345      -1.38596772
9
Frame=1 idx=000207 GeodesicLength=0.03340785860027271 rxn_smarts="[O:1]=[C:2]([C@@:3]1([H:7])[C:4]([H:8])([H:9])[O:5]1)[H:6]>>[O+:1](=[C-:2][H:6])[C@@:3]1([H:7])[C:4]([H:8])([H:9])[O:5]1"
O        1.41237747       0.26474044      -0.46693285
C        1.53011228      -0.19627617       0.73124151
C       -0.02936292       0.46870972       0.29473478
C       -1.07500898      -0.03975863      -0.60472445
O       -0.92313956      -0.52091011       0.73094034
H        1.91964812      -1.24298168       0.72675120
H       -0.04816953       1.44828012       0.74305977
H       -1.95815704       0.56999416      -0.77066401
H       -0.82829983      -0.75179784      -1.38440628
9
Frame=2 idx=000207 GeodesicLength=0.06681292638056256 rxn_smarts="[O:1]=[C:2]([C@@:3]1([H:7])[C:4]([H:8])([H:9])[O:5]1)[H:6]>>[O+:1](=[C-:2][H:6])[C@@:3]1([H:7])[C:4]([H:8])([H:9])[O:5]1"
O        1.42376678       0.26649367      -0.46446888
C        1.53611349      -0.19394410       0.73089724
C       -0.03100781       0.46360763       0.29361896
C       -1.07903535      -0.03934491      -0.60510634
O       -0.93121808      -0.51947303       0.73065158
H        1.92489604      -1.24043897       0.72691512
H       -0.04943916       1.44298388       0.74388268
H       -1.95849031       0.57495854      -0.77358267
H       -0.83558561      -0.75484270      -1.38280769
9
Frame=3 idx=000207 GeodesicLength=0.10021229281065047 rxn_smarts="[O:1]=[C:2]([C@@:3]1([H:7])[C:4]([H:8])([H:9])[O:5]1)[H:6]>>[O+:1](=[C-:2][H:6])[C@@:3]1([H:7])[C:4]([H:8])([H:9])[O:5]1"
O        1.43526346       0.26839623      -0.46192476
C        1.54214252      -0.19159777       0.73058032
C       -0.03265021       0.45837621       0.29249657
C       -1.08309735      -0.03894635      -0.60548835
O       -0.93940288      -0.51797813       0.73038138
H        1.93018573      -1.23787689       0.72702594
H       -0.05068712       1.43759087       0.74463954
H       -1.95876062       0.57997090      -0.77653814
H       -0.84299353      -0.75793507      -1.38117250
9
Frame=4 idx=000207 GeodesicLength=0.13360329669832316 rxn_smarts="[O:1]=[C:2]([C@@:3]1([H:7])[C:4]([H:8])([H:9])[O:5]1)[H:6]>>[O+:1](=[C-:2][H:6])[C@@:3]1([H:7])[C:4]([H:8])([H:9])[O:5]1"
O        1.44686827       0.27045238      -0.45929650
C        1.54819848      -0.18923822       0.73029148
C       -0.03429040       0.45301406       0.29136830
C       -1.08719386      -0.03856359      -0.60586981
O       -0.94769322      -0.51642220       0.73013104
H        1.93551167      -1.23529856       0.72708006
H       -0.05191079       1.43210322       0.74532487
H       -1.95896906       0.58502449      -0.77952763
H       -0.85052109      -0.76107157      -1.37950180
9
Frame=5 idx=000207 GeodesicLength=0.16698310773523542 rxn_smarts="[O:1]=[C:2]([C@@:3]1([H:7])[C:4]([H:8])([H:9])[O:5]1)[H:6]>>[O+:1](=[C-:2][H:6])[C@@:3]1([H:7])[C:4]([H:8])([H:9])[O:5]1"
O        1.45858201       0.27266688      -0.45658023
C        1.55428044      -0.18686654       0.73003142
C       -0.03592859       0.44751959       0.29023521
C       -1.09132376      -0.03819731      -0.60624996
O       -0.95608822      -0.51480174       0.72990200
H        1.94086810      -1.23270719       0.72707314
H       -0.05310771       1.42652274       0.74593347
H       -1.95911651       0.59011283      -0.78254942
H       -0.85816575      -0.76424927      -1.37779562
9
Frame=6 idx=000207 GeodesicLength=0.20035066714541774 rxn_smarts="[O:1]=[C:2]([C@@:3]1([H:7])[C:4]([H:8])([H:9])[O:5]1)[H:6]>>[O+:1](=[C-:2][H:6])[C@@:3]1([H:7])[C:4]([H:8])([H:9])[O:5]1"
O        1.47040587       0.27504380      -0.45377187
C        1.56038737      -0.18448367       0.72980102
C       -0.03756560       0.44189191       0.28909792
C       -1.09548609      -0.03784781      -0.60662829
O       -0.96458667      -0.51311289       0.72969490
H        1.94624990      -1.23010635       0.72700195
H       -0.05427434       1.42085171       0.74646050
H       -1.95920501       0.59522799      -0.78560075
H       -0.86592541      -0.76746469      -1.37605538
9
Frame=7 idx=000207 GeodesicLength=0.23369229772190778 rxn_smarts="[O:1]=[C:2]([C@@:3]1([H:7])[C:4]([H:8])([H:9])[O:5]1)[H:6]>>[O+:1](=[C-:2][H:6])[C@@:3]1([H:7])[C:4]([H:8])([H:9])[O:5]1"
O        1.48233644       0.27759157      -0.45085895
C        1.56651832      -0.18209301       0.72960094
C       -0.03919735       0.43612630       0.28795310
C       -1.09967820      -0.03751567      -0.60700497
O       -0.97318826      -0.51134689       0.72951187
H        1.95165382      -1.22749565       0.72685777
H       -0.05541008       1.41508635       0.74690092
H       -1.95923136       0.60036662      -0.78868240
H       -0.87380333      -0.77071963      -1.37427828
9
Frame=8 idx=000207 GeodesicLength=0.2670169009172448 rxn_smarts="[O:1]=[C:2]([C@@:3]1([H:7])[C:4]([H:8])([H:9])[O:5]1)[H:6]>>[O+:1](=[C-:2][H:6])[C@@:3]1([H:7])[C:4]([H:8])([H:9])[O:5]1"
O        1.49437516       0.28031105      -0.44784257
C        1.57267285      -0.17969305       0.72943235
C       -0.04082793       0.43021889       0.28680536
C       -1.10390251      -0.03720154      -0.60737998
O       -0.98189532      -0.50950526       0.72935120
H        1.95708657      -1.22487438       0.72664083
H       -0.05651300       1.40922668       0.74725348
H       -1.95919107       0.60553335      -0.79179716
H       -0.88180473      -0.77401574      -1.37246351
9
Frame=9 idx=000207 GeodesicLength=0.3003333472512364 rxn_smarts="[O:1]=[C:2]([C@@:3]1([H:7])[C:4]([H:8])([H:9])[O:5]1)[H:6]>>[O+:1](=[C-:2][H:6])[C@@:3]1([H:7])[C:4]([H:8])([H:9])[O:5]1"
O        1.50652600       0.28321097      -0.44471511
C        1.57884851      -0.17728619       0.72929569
C       -0.04246026       0.42416700       0.28565333
C       -1.10815719      -0.03690608      -0.60775317
O       -0.99071187      -0.50758122       0.72921647
H        1.96254960      -1.22224401       0.72633925
H       -0.05758443       1.40327051       0.74751844
H       -1.95907697       0.61072980      -0.79495083
H       -0.88993340      -0.77736076      -1.37060407
9
Frame=10 idx=000207 GeodesicLength=0.3336353853050682 rxn_smarts="[O:1]=[C:2]([C@@:3]1([H:7])[C:4]([H:8])([H:9])[O:5]1)[H:6]>>[O+:1](=[C-:2][H:6])[C@@:3]1([H:7])[C:4]([H:8])([H:9])[O:5]1"
O        1.51878624       0.28630555      -0.44146908
C        1.58504229      -0.17487603       0.72919252
C       -0.04409432       0.41796388       0.28450251
C       -1.11244225      -0.03663101      -0.60812563
O       -0.99964632      -0.50556758       0.72910863
H        1.96805287      -1.21960270       0.72593853
H       -0.05862408       1.39721197       0.74769799
H       -1.95887457       0.61596691      -0.79815789
H       -0.89819986      -0.78077099      -1.36868757
9
Frame=11 idx=000207 GeodesicLength=0.36693091398224786 rxn_smarts="[O:1]=[C:2]([C@@:3]1([H:7])[C:4]([H:8])([H:9])[O:5]1)[H:6]>>[O+:1](=[C-:2][H:6])[C@@:3]1([H:7])[C:4]([H:8])([H:9])[O:5]1"
O        1.53115789       0.28960245      -0.43809256
C        1.59125264      -0.17246591       0.72912551
C       -0.04573254       0.41160368       0.28335184
C       -1.11675727      -0.03637605      -0.60849864
O       -1.00870291      -0.50345787       0.72902854
H        1.97360609      -1.21694974       0.72542881
H       -0.05963275       1.39104839       0.74778855
H       -1.95857610       0.62124805      -0.80142315
H       -0.90661505      -0.78425300      -1.36670890
9
Frame=12 idx=000207 GeodesicLength=0.40022148586074524 rxn_smarts="[O:1]=[C:2]([C@@:3]1([H:7])[C:4]([H:8])([H:9])[O:5]1)[H:6]>>[O+:1](=[C-:2][H:6])[C@@:3]1([H:7])[C:4]([H:8])([H:9])[O:5]1"
O        1.54364161       0.29310832      -0.43457714
C        1.59747887      -0.17005678       0.72909725
C       -0.04737485       0.40507888       0.28220075
C       -1.12110303      -0.03614123      -0.60887354
O       -1.01788501      -0.50124770       0.72897498
H        1.97921775      -1.21428243       0.72480611
H       -0.06060883       1.38477466       0.74778657
H       -1.95817524       0.62657745      -0.80474959
H       -0.91519128      -0.78781117      -1.36466538
9
Frame=13 idx=000207 GeodesicLength=0.4335058954390813 rxn_smarts="[O:1]=[C:2]([C@@:3]1([H:7])[C:4]([H:8])([H:9])[O:5]1)[H:6]>>[O+:1](=[C-:2][H:6])[C@@:3]1([H:7])[C:4]([H:8])([H:9])[O:5]1"
O        1.55623273       0.29681800      -0.43092421
C        1.60372113      -0.16764576       0.72910455
C       -0.04902244       0.39838202       0.28105038
C       -1.12548083      -0.03592712      -0.60924776
O       -1.02719049      -0.49893536       0.72894535
H        1.98489088      -1.21159474       0.72407869
H       -0.06155123       1.37838309       0.74768778
H       -1.95766711       0.63195457      -0.80813568
H       -0.92393264      -0.79143471      -1.36255910
9
Frame=14 idx=000207 GeodesicLength=0.466786000610492 rxn_smarts="[O:1]=[C:2]([C@@:3]1([H:7])[C:4]([H:8])([H:9])[O:5]1)[H:6]>>[O+:1](=[C-:2][H:6])[C@@:3]1([H:7])[C:4]([H:8])([H:9])[O:5]1"
O        1.56893144       0.30074423      -0.42712416
C        1.60997865      -0.16523569       0.72914991
C       -0.05067687       0.39150835       0.27990183
C       -1.12989098      -0.03573531      -0.60962234
O       -1.03662318      -0.49651557       0.72894503
H        1.99063266      -1.20888876       0.72323409
H       -0.06245932       1.37187343       0.74749413
H       -1.95704145       0.63738490      -0.81159356
H       -0.93285096      -0.79513559      -1.36038495
9
Frame=15 idx=000207 GeodesicLength=0.5000654011039015 rxn_smarts="[O:1]=[C:2]([C@@:3]1([H:7])[C:4]([H:8])([H:9])[O:5]1)[H:6]>>[O+:1](=[C-:2][H:6])[C@@:3]1([H:7])[C:4]([H:8])([H:9])[O:5]1"
O        1.58173718       0.30490045      -0.42316332
C        1.61624782      -0.16283089       0.72923444
C       -0.05234000       0.38445000       0.27875760
C       -1.13433281      -0.03556742      -0.60999676
O       -1.04618992      -0.49397679       0.72897458
H        1.99645028      -1.20616257       0.72225638
H       -0.06333088       1.36523875       0.74720280
H       -1.95628499       0.64287019      -0.81513403
H       -0.94195669      -0.79892173      -1.35813168
9
Frame=16 idx=000207 GeodesicLength=0.5333465729298974 rxn_smarts="[O:1]=[C:2]([C@@:3]1([H:7])[C:4]([H:8])([H:9])[O:5]1)[H:6]>>[O+:1](=[C-:2][H:6])[C@@:3]1([H:7])[C:4]([H:8])([H:9])[O:5]1"
O        1.59464912       0.30929481      -0.41903314
C        1.62252755      -0.16043277       0.72935915
C       -0.05401332       0.37719960       0.27761802
C       -1.13880586      -0.03542335      -0.61037233
O       -1.05589358      -0.49131341       0.72903389
H        2.00235095      -1.20341477       0.72113905
H       -0.06416535       1.35847427       0.74681149
H       -1.95538865       0.64841435      -0.81876222
H       -0.95126086      -0.80279874      -1.35579393
