10
Frame=0 idx=004307 GeodesicLength=0.0 rxn_smarts="[O:1]([c:2]1[n:3][c:4]([H:8])[c:5]([H:9])[n:6]1[H:10])[H:7]>>[O:1]([C+:2]([N:3]=[C:4]=[C:5]([H:8])[H:9])[N-:6][H:10])[H:7]"
O        2.28679135      -0.34174852      -0.10439817
C        1.01397095       0.08321534      -0.05897476
N        0.09821043      -0.98219128      -0.04591508
C       -1.08338490      -0.54758329       0.08556576
C       -1.98996963       0.34930134       0.41901440
N        0.66186416       1.29596979      -0.03238527
H        2.26910851      -1.30448577      -0.10505977
H       -2.03068037      -1.23786685       0.17267160
H       -2.68313452       0.76224010      -0.31109159
H        1.45722402       1.92314914      -0.01942713
10
Frame=1 idx=004307 GeodesicLength=0.07476827849525873 rxn_smarts="[O:1]([c:2]1[n:3][c:4]([H:8])[c:5]([H:9])[n:6]1[H:10])[H:7]>>[O:1]([C+:2]([N:3]=[C:4]=[C:5]([H:8])[H:9])[N-:6][H:10])[H:7]"
O        2.29049328      -0.33455048      -0.09676053
C        1.01144099       0.07286772      -0.08392060
N        0.10509964      -0.99692234      -0.05175282
C       -1.08329607      -0.56444933       0.03881597
C       -1.95373751       0.35688975       0.40286563
N        0.64078368       1.28144853      -0.01863943
H        2.28573086      -1.29748875      -0.09328201
H       -2.05361378      -1.22602110       0.21320108
H       -2.66661897       0.78428665      -0.29855432
H        1.42371787       1.92393934      -0.01197297
10
Frame=2 idx=004307 GeodesicLength=0.14971315113687866 rxn_smarts="[O:1]([c:2]1[n:3][c:4]([H:8])[c:5]([H:9])[n:6]1[H:10])[H:7]>>[O:1]([C+:2]([N:3]=[C:4]=[C:5]([H:8])[H:9])[N-:6][H:10])[H:7]"
O        2.29298151      -0.32758638      -0.08671222
C        1.00887921       0.06302981      -0.10359925
N        0.11068030      -1.01017862      -0.06587322
C       -1.08301483      -0.58172226       0.00022157
C       -1.91859284       0.36248525       0.38880388
N        0.61971774       1.26638840      -0.00553527
H        2.30027805      -1.29057285      -0.08109627
H       -2.07328256      -1.21145673       0.24861875
H       -2.64704471       0.80524235      -0.28547149
H        1.38939814       1.92437103      -0.00935648
10
Frame=3 idx=004307 GeodesicLength=0.2248921467683645 rxn_smarts="[O:1]([c:2]1[n:3][c:4]([H:8])[c:5]([H:9])[n:6]1[H:10])[H:7]>>[O:1]([C+:2]([N:3]=[C:4]=[C:5]([H:8])[H:9])[N-:6][H:10])[H:7]"
O        2.29460232      -0.32081218      -0.07829831
C        1.00633832       0.05345090      -0.12043121
N        0.11587917      -1.02282111      -0.08055566
C       -1.08264323      -0.59913570      -0.03004705
C       -1.88524728       0.36769762       0.37419738
N        0.59883324       1.25144287       0.00186865
H        2.31383341      -1.28361750      -0.07240655
H       -2.09116041      -1.19436652       0.28364154
H       -2.62568005       0.82389241      -0.27671537
H        1.35524452       1.92426921      -0.00125342
10
Frame=4 idx=004307 GeodesicLength=0.3000285750955675 rxn_smarts="[O:1]([c:2]1[n:3][c:4]([H:8])[c:5]([H:9])[n:6]1[H:10])[H:7]>>[O:1]([C+:2]([N:3]=[C:4]=[C:5]([H:8])[H:9])[N-:6][H:10])[H:7]"
O        2.29535043      -0.31431452      -0.06660345
C        1.00398068       0.04419818      -0.13558582
N        0.12065581      -1.03471924      -0.09945515
C       -1.08233980      -0.61628859      -0.05620477
C       -1.85299136       0.37166530       0.36087971
N        0.57822858       1.23672364       0.00456961
H        2.32640964      -1.27673612      -0.06436999
H       -2.10700490      -1.17569864       0.31664591
H       -2.60376320       0.84145982      -0.26714464
H        1.32147413       1.92371015       0.00726858
10
Frame=5 idx=004307 GeodesicLength=0.3752509572060919 rxn_smarts="[O:1]([c:2]1[n:3][c:4]([H:8])[c:5]([H:9])[n:6]1[H:10])[H:7]>>[O:1]([C+:2]([N:3]=[C:4]=[C:5]([H:8])[H:9])[N-:6][H:10])[H:7]"
O        2.29569471      -0.30796336      -0.05563609
C        1.00176365       0.03530650      -0.14936511
N        0.12501946      -1.04596173      -0.12141197
C       -1.08212480      -0.63298404      -0.07970240
C       -1.82180612       0.37425559       0.34885497
N        0.55786943       1.22215032       0.00615111
H        2.33789431      -1.27001039      -0.05388521
H       -2.12111230      -1.15606071       0.34674102
H       -2.58124278       0.85841639      -0.25625833
H        1.28804445       1.92285141       0.01451200
10
Frame=6 idx=004307 GeodesicLength=0.450580342162627 rxn_smarts="[O:1]([c:2]1[n:3][c:4]([H:8])[c:5]([H:9])[n:6]1[H:10])[H:7]>>[O:1]([C+:2]([N:3]=[C:4]=[C:5]([H:8])[H:9])[N-:6][H:10])[H:7]"
O        2.29553084      -0.30170088      -0.04614782
C        0.99961838       0.02660700      -0.16128512
N        0.12957168      -1.05681659      -0.14124995
C       -1.08182467      -0.64951515      -0.09936129
C       -1.79229919       0.37614336       0.33658556
N        0.53808900       1.20785134       0.00690689
H        2.34895588      -1.26319329      -0.04607952
H       -2.13458972      -1.13512354       0.37533556
H       -2.55812907       0.87420280      -0.24780668
H        1.25507688       1.92154495       0.02310237
10
Frame=7 idx=004307 GeodesicLength=0.5260147235839396 rxn_smarts="[O:1]([c:2]1[n:3][c:4]([H:8])[c:5]([H:9])[n:6]1[H:10])[H:7]>>[O:1]([C+:2]([N:3]=[C:4]=[C:5]([H:8])[H:9])[N-:6][H:10])[H:7]"
O        2.29500686      -0.29569190      -0.03691483
C        0.99766321       0.01822631      -0.17260591
N        0.13406433      -1.06693726      -0.16193892
C       -1.08161854      -0.66569678      -0.11680105
C       -1.76403317       0.37703770       0.32482566
N        0.51893621       1.19402773       0.00608030
H        2.35935240      -1.25645558      -0.03806937
H       -2.14719619      -1.11344492       0.40264444
H       -2.53502267       0.88902035      -0.23947307
H        1.22284756       1.91991436       0.03225275
10
Frame=8 idx=004307 GeodesicLength=0.6014973258547951 rxn_smarts="[O:1]([c:2]1[n:3][c:4]([H:8])[c:5]([H:9])[n:6]1[H:10])[H:7]>>[O:1]([C+:2]([N:3]=[C:4]=[C:5]([H:8])[H:9])[N-:6][H:10])[H:7]"
O        2.29412881      -0.28981142      -0.02803503
C        0.99569872       0.01012294      -0.18298315
N        0.13826437      -1.07654256      -0.18370518
C       -1.08132485      -0.68147935      -0.13260851
C       -1.73670596       0.37721002       0.31330679
N        0.49996593       1.18019165       0.00549929
H        2.36892192      -1.24982884      -0.02976424
H       -2.15819377      -1.09090634       0.42877588
H       -2.51155895       0.90312371      -0.23117059
H        1.19080379       1.91792020       0.04068475
10
Frame=9 idx=004307 GeodesicLength=0.6769764248920898 rxn_smarts="[O:1]([c:2]1[n:3][c:4]([H:8])[c:5]([H:9])[n:6]1[H:10])[H:7]>>[O:1]([C+:2]([N:3]=[C:4]=[C:5]([H:8])[H:9])[N-:6][H:10])[H:7]"
O        2.29299540      -0.28411642      -0.01950992
C        0.99391013       0.00230560      -0.19273402
N        0.14250018      -1.08555731      -0.20559566
C       -1.08106430      -0.69703095      -0.14656642
C       -1.71061810       0.37665971       0.30192800
N        0.48167403       1.16674097       0.00420582
H        2.37800478      -1.24329427      -0.02199478
H       -2.16856236      -1.06771029       0.45418006
H       -2.48827966       0.91633022      -0.22358153
H        1.15943990       1.91567273       0.04966845
10
Frame=10 idx=004307 GeodesicLength=0.7526237932637726 rxn_smarts="[O:1]([c:2]1[n:3][c:4]([H:8])[c:5]([H:9])[n:6]1[H:10])[H:7]>>[O:1]([C+:2]([N:3]=[C:4]=[C:5]([H:8])[H:9])[N-:6][H:10])[H:7]"
O        2.29136757      -0.27870383      -0.01071894
C        0.99222804      -0.00522626      -0.20243396
N        0.14671963      -1.09382568      -0.22902756
C       -1.08069434      -0.71225980      -0.15928621
C       -1.68538366       0.37539017       0.29091588
N        0.46384502       1.15367029       0.00156543
H        2.38623508      -1.23691163      -0.01349676
H       -2.17769075      -1.04391307       0.47911117
H       -2.46515268       0.92871760      -0.21570462
H        1.12852609       1.91306222       0.05907556
10
Frame=11 idx=004307 GeodesicLength=0.8282602652795767 rxn_smarts="[O:1]([c:2]1[n:3][c:4]([H:8])[c:5]([H:9])[n:6]1[H:10])[H:7]>>[O:1]([C+:2]([N:3]=[C:4]=[C:5]([H:8])[H:9])[N-:6][H:10])[H:7]"
O        2.28950966      -0.27350894      -0.00214057
C        0.99068464      -0.01241529      -0.21183724
N        0.15085936      -1.10139309      -0.25364925
C       -1.08027409      -0.72727237      -0.17078234
C       -1.66113808       0.37345515       0.28007189
N        0.44653333       1.14089675      -0.00123338
H        2.39372075      -1.23073724      -0.00453641
H       -2.18581175      -1.01961282       0.50367122
H       -2.44222705       0.94033853      -0.20800792
H        1.09814322       1.91024933       0.06844399
10
Frame=12 idx=004307 GeodesicLength=0.9040450620478577 rxn_smarts="[O:1]([c:2]1[n:3][c:4]([H:8])[c:5]([H:9])[n:6]1[H:10])[H:7]>>[O:1]([C+:2]([N:3]=[C:4]=[C:5]([H:8])[H:9])[N-:6][H:10])[H:7]"
O        2.28729241      -0.26861690       0.00635951
C        0.98922402      -0.01926436      -0.22106289
N        0.15489713      -1.10814375      -0.27965547
C       -1.07970082      -0.74208909      -0.18116540
C       -1.63777831       0.37102684       0.26903801
N        0.42961328       1.12837011      -0.00411610
H        2.40030272      -1.22484965       0.00471272
H       -2.19241486      -0.99463180       0.52856742
H       -2.41954881       0.95104857      -0.20086350
H        1.06811323       1.90715002       0.07818571
10
Frame=13 idx=004307 GeodesicLength=0.9798869709492188 rxn_smarts="[O:1]([c:2]1[n:3][c:4]([H:8])[c:5]([H:9])[n:6]1[H:10])[H:7]>>[O:1]([C+:2]([N:3]=[C:4]=[C:5]([H:8])[H:9])[N-:6][H:10])[H:7]"
O        2.28486999      -0.26392282       0.01430827
C        0.98780048      -0.02586922      -0.22976113
N        0.15893481      -1.11428502      -0.30544501
C       -1.07893319      -0.75695937      -0.18973216
C       -1.61552458       0.36824465       0.25744830
N        0.41313320       1.11608602      -0.00684902
H        2.40653122      -1.21907798       0.01260888
H       -2.19818370      -0.96863836       0.55384969
H       -2.39706816       0.96077034      -0.19561962
H        1.03843995       1.90365176       0.08919179
10
Frame=14 idx=004307 GeodesicLength=1.0557774643508968 rxn_smarts="[O:1]([c:2]1[n:3][c:4]([H:8])[c:5]([H:9])[n:6]1[H:10])[H:7]>>[O:1]([C+:2]([N:3]=[C:4]=[C:5]([H:8])[H:9])[N-:6][H:10])[H:7]"
O        2.28233998      -0.25943809       0.02160105
C        0.98641054      -0.03221279      -0.23789003
N        0.16292530      -1.11977518      -0.33119079
C       -1.07793854      -0.77193468      -0.19649810
C       -1.59439910       0.36514557       0.24516698
N        0.39704558       1.10395979      -0.00889682
H        2.41243224      -1.21346836       0.01915316
H       -2.20300275      -0.94150644       0.57971829
H       -2.37490444       0.96946984      -0.19250636
H        1.00909119       1.89976033       0.10134262
10
Frame=15 idx=004307 GeodesicLength=1.1317020066413654 rxn_smarts="[O:1]([c:2]1[n:3][c:4]([H:8])[c:5]([H:9])[n:6]1[H:10])[H:7]>>[O:1]([C+:2]([N:3]=[C:4]=[C:5]([H:8])[H:9])[N-:6][H:10])[H:7]"
O        2.27979473      -0.25512903       0.02811322
C        0.98501176      -0.03834145      -0.24524053
N        0.16686592      -1.12469741      -0.35636776
C       -1.07666379      -0.78714440      -0.20113273
C       -1.57447786       0.36179066       0.23200461
N        0.38131102       1.09191175      -0.00979535
H        2.41830770      -1.20795500       0.02356224
H       -2.20709233      -0.91295507       0.60620048
H       -2.35307430       0.97709585      -0.19219963
H        0.98001715       1.89542411       0.11485546
10
Frame=16 idx=004307 GeodesicLength=1.2076835193348479 rxn_smarts="[O:1]([c:2]1[n:3][c:4]([H:8])[c:5]([H:9])[n:6]1[H:10])[H:7]>>[O:1]([C+:2]([N:3]=[C:4]=[C:5]([H:8])[H:9])[N-:6][H:10])[H:7]"
O        2.27733150      -0.25096920       0.03346405
C        0.98357446      -0.04424544      -0.25182883
N        0.17073326      -1.12901084      -0.38107689
C       -1.07503848      -0.80263299      -0.20356323
C       -1.55575683       0.35813824       0.21795275
N        0.36590011       1.07983028      -0.00904594
H        2.42415729      -1.20252077       0.02607424
H       -2.21048620      -0.88283697       0.63321684
H       -2.33160525       0.98362398      -0.19482393
H        0.95119015       1.89062371       0.12963094
