12
Frame=0 idx=004460 GeodesicLength=0.0 rxn_smarts="[C:1]([C:2]([C:3](=[O:4])[C:5]#[C:6][H:12])([H:10])[H:11])([H:7])([H:8])[H:9]>>[C:1]([C:2]([O+:4]=[C-:3][C:5]#[C:6][H:12])([H:10])[H:11])([H:7])([H:8])[H:9]"
C       -1.74183792       0.10402032      -0.54718054
C       -0.80616321      -0.35576111       0.54935021
C        0.97320490      -0.86509145       0.44893123
O        0.27374522      -1.26598348      -0.55237924
C        2.04284737       0.06904608       0.14505829
C        2.99897462       0.79624432       0.06665681
H       -2.57741376       0.61546855      -0.06046624
H       -2.12932172      -0.73050976      -1.12710044
H       -1.25470381       0.81085801      -1.21752237
H       -1.18318043      -1.12829808       1.20424242
H       -0.44172970       0.51297280       1.10600096
H        3.84557841       1.43703378      -0.01559108
12
Frame=1 idx=004460 GeodesicLength=0.07270158779198743 rxn_smarts="[C:1]([C:2]([C:3](=[O:4])[C:5]#[C:6][H:12])([H:10])[H:11])([H:7])([H:8])[H:9]>>[C:1]([C:2]([O+:4]=[C-:3][C:5]#[C:6][H:12])([H:10])[H:11])([H:7])([H:8])[H:9]"
C       -1.79549413       0.07353269      -0.53985875
C       -0.79668094      -0.32543386       0.52431640
C        0.97953235      -0.83013112       0.40572019
O        0.29105157      -1.18122295      -0.61726828
C        2.07111244       0.09221536       0.15152574
C        3.06093465       0.77578416       0.10735726
H       -2.63745099       0.55251340      -0.03186859
H       -2.16376176      -0.78873878      -1.09138852
H       -1.37077403       0.79260278      -1.23908287
H       -1.13631688      -1.08615934       1.21430807
H       -0.45384506       0.56724738       1.05617447
H        3.95169279       1.35779027       0.06006488
12
Frame=2 idx=004460 GeodesicLength=0.14105069442479276 rxn_smarts="[C:1]([C:2]([C:3](=[O:4])[C:5]#[C:6][H:12])([H:10])[H:11])([H:7])([H:8])[H:9]>>[C:1]([C:2]([O+:4]=[C-:3][C:5]#[C:6][H:12])([H:10])[H:11])([H:7])([H:8])[H:9]"
C       -1.84614879       0.04056817      -0.53127047
C       -0.78853886      -0.29292633       0.49812788
C        0.98517501      -0.79056440       0.36034751
O        0.30892957      -1.08389065      -0.68457333
C        2.09687541       0.12047057       0.16306646
C        3.11641398       0.76034324       0.15836965
H       -2.69488036       0.48209822      -0.00138942
H       -2.18763791      -0.84836464      -1.05751349
H       -1.48776363       0.77165544      -1.25481878
H       -1.08853601      -1.04123815       1.22097889
H       -0.47086759       0.62271063       1.00600186
H        4.05697917       1.25913790       0.12267324
12
Frame=3 idx=004460 GeodesicLength=0.20403019654451848 rxn_smarts="[C:1]([C:2]([C:3](=[O:4])[C:5]#[C:6][H:12])([H:10])[H:11])([H:7])([H:8])[H:9]>>[C:1]([C:2]([O+:4]=[C-:3][C:5]#[C:6][H:12])([H:10])[H:11])([H:7])([H:8])[H:9]"
C       -1.89159696       0.00712558      -0.52005680
C       -0.77947856      -0.25702064       0.47147772
C        0.98965649      -0.75337086       0.30939495
O        0.32161062      -0.98410378      -0.75240024
C        2.12265868       0.14015493       0.16552074
C        3.17011828       0.73250426       0.19135139
H       -2.74389122       0.41240449       0.03229427
H       -2.20429985      -0.90744690      -1.02001053
H       -1.60093114       0.74484575      -1.26693448
H       -1.03935051      -0.98761343       1.22878460
H       -0.48505127       0.68112447       0.95149532
H        4.14055543       1.17139612       0.20908306
12
Frame=4 idx=004460 GeodesicLength=0.2619577523731308 rxn_smarts="[C:1]([C:2]([C:3](=[O:4])[C:5]#[C:6][H:12])([H:10])[H:11])([H:7])([H:8])[H:9]>>[C:1]([C:2]([O+:4]=[C-:3][C:5]#[C:6][H:12])([H:10])[H:11])([H:7])([H:8])[H:9]"
C       -1.92954162      -0.02554824      -0.50900995
C       -0.77222994      -0.22091303       0.44623891
C        0.99170917      -0.71804947       0.26070316
O        0.33367996      -0.87750364      -0.81658836
C        2.14587902       0.15465921       0.17667418
C        3.21662132       0.70144377       0.23230234
H       -2.78540530       0.34130017       0.06398977
H       -2.20825589      -0.96219849      -0.98818833
H       -1.70450542       0.71752159      -1.27311243
H       -0.99421636      -0.93314054       1.23399863
H       -0.50321986       0.73704526       0.90139327
H        4.20948492       1.08538340       0.27159881
12
Frame=5 idx=004460 GeodesicLength=0.3157837909985778 rxn_smarts="[C:1]([C:2]([C:3](=[O:4])[C:5]#[C:6][H:12])([H:10])[H:11])([H:7])([H:8])[H:9]>>[C:1]([C:2]([O+:4]=[C-:3][C:5]#[C:6][H:12])([H:10])[H:11])([H:7])([H:8])[H:9]"
C       -1.96132402      -0.05824539      -0.49717080
C       -0.76577176      -0.18359591       0.42219314
C        0.99189014      -0.68356971       0.21026208
O        0.34311645      -0.76614897      -0.87769512
C        2.16627313       0.16444637       0.18613023
C        3.25612430       0.66746813       0.27315874
H       -2.81942817       0.26955834       0.09549497
H       -2.20278106      -1.01433713      -0.95827398
H       -1.80085755       0.68713114      -1.27526001
H       -0.95034623      -0.87570710       1.23844730
H       -0.52334169       0.79247937       0.85314920
H        4.26644647       1.00052084       0.32956424
12
Frame=6 idx=004460 GeodesicLength=0.36557522989651414 rxn_smarts="[C:1]([C:2]([C:3](=[O:4])[C:5]#[C:6][H:12])([H:10])[H:11])([H:7])([H:8])[H:9]>>[C:1]([C:2]([O+:4]=[C-:3][C:5]#[C:6][H:12])([H:10])[H:11])([H:7])([H:8])[H:9]"
C       -1.98641637      -0.08995762      -0.48484010
C       -0.76013070      -0.14604859       0.40031852
C        0.99005377      -0.65090788       0.15929650
O        0.34958976      -0.65406975      -0.93337646
C        2.18344629       0.16872228       0.19218733
C        3.28846573       0.63127001       0.30665069
H       -2.84540848       0.19988519       0.12572810
H       -2.18915974      -1.06246798      -0.93043757
H       -1.88718944       0.65435258      -1.27417081
H       -0.90867000      -0.81712197       1.24241111
H       -0.54523082       0.84601111       0.80880251
H        4.31065001       0.92033262       0.38743018
12
Frame=7 idx=004460 GeodesicLength=0.41242134193905 rxn_smarts="[C:1]([C:2]([C:3](=[O:4])[C:5]#[C:6][H:12])([H:10])[H:11])([H:7])([H:8])[H:9]>>[C:1]([C:2]([O+:4]=[C-:3][C:5]#[C:6][H:12])([H:10])[H:11])([H:7])([H:8])[H:9]"
C       -2.00512891      -0.12056038      -0.47295863
C       -0.75588757      -0.10868411       0.38129111
C        0.98610524      -0.61893753       0.10995384
O        0.35418222      -0.54151047      -0.98179847
C        2.19703953       0.16928019       0.19741438
C        3.31416353       0.59410227       0.33659702
H       -2.86460107       0.13196852       0.15298247
H       -2.16760784      -1.10640116      -0.90603365
H       -1.96271414       0.62010947      -1.27085527
H       -0.87029500      -0.75926268       1.24573463
H       -0.57043597       0.89703415       0.77034428
H        4.34517997       0.84286173       0.43732831
12
Frame=8 idx=004460 GeodesicLength=0.45726192648124825 rxn_smarts="[C:1]([C:2]([C:3](=[O:4])[C:5]#[C:6][H:12])([H:10])[H:11])([H:7])([H:8])[H:9]>>[C:1]([C:2]([O+:4]=[C-:3][C:5]#[C:6][H:12])([H:10])[H:11])([H:7])([H:8])[H:9]"
C       -2.01812579      -0.15001629      -0.46190555
C       -0.75323270      -0.07159920       0.36538095
C        0.98015144      -0.58685984       0.06317272
O        0.35729193      -0.42935558      -1.02214200
C        2.20719647       0.16725132       0.20204732
C        3.33461264       0.55572247       0.36171665
H       -2.87805671       0.06600876       0.17660041
H       -2.13925102      -1.14632008      -0.88490558
H       -2.02761151       0.58465847      -1.26648536
H       -0.83554216      -0.70298105       1.24865862
H       -0.59941876       0.94547367       0.73836831
H        4.37198616       0.76801735       0.47949351
12
Frame=9 idx=004460 GeodesicLength=0.5009203348467379 rxn_smarts="[C:1]([C:2]([C:3](=[O:4])[C:5]#[C:6][H:12])([H:10])[H:11])([H:7])([H:8])[H:9]>>[C:1]([C:2]([O+:4]=[C-:3][C:5]#[C:6][H:12])([H:10])[H:11])([H:7])([H:8])[H:9]"
C       -2.02601340      -0.17828363      -0.45199064
C       -0.75219506      -0.03476420       0.35255134
C        0.97232157      -0.55451139       0.01958042
O        0.35936920      -0.31824494      -1.05413045
C        2.21425328       0.16282790       0.20663853
C        3.35047044       0.51604702       0.38370090
H       -2.88664372       0.00195222       0.19625505
H       -2.10505203      -1.18236992      -0.86691351
H       -2.08253037       0.54833633      -1.26203894
H       -0.80451354      -0.64849175       1.25149961
H       -0.63215511       0.99144742       0.71266052
H        4.39268875       0.69605494       0.51218718
12
Frame=10 idx=004460 GeodesicLength=0.5436685110600372 rxn_smarts="[C:1]([C:2]([C:3](=[O:4])[C:5]#[C:6][H:12])([H:10])[H:11])([H:7])([H:8])[H:9]>>[C:1]([C:2]([O+:4]=[C-:3][C:5]#[C:6][H:12])([H:10])[H:11])([H:7])([H:8])[H:9]"
C       -2.02938835      -0.20493457      -0.44316964
C       -0.75246421       0.00137726       0.34257806
C        0.96287963      -0.52275918      -0.02085235
O        0.36056599      -0.21019277      -1.07815587
C        2.21871971       0.15531589       0.21021368
C        3.36195496       0.47576584       0.40260608
H       -2.89085693      -0.05878320       0.21214907
H       -2.06686829      -1.21443393      -0.85117330
H       -2.12767857       0.51163436      -1.25826978
H       -0.77700179      -0.59635386       1.25441627
H       -0.66760790       1.03453243       0.69268349
H        4.40774574       0.62883174       0.53697430
12
Frame=11 idx=004460 GeodesicLength=0.5858969040648596 rxn_smarts="[C:1]([C:2]([C:3](=[O:4])[C:5]#[C:6][H:12])([H:10])[H:11])([H:7])([H:8])[H:9]>>[C:1]([C:2]([O+:4]=[C-:3][C:5]#[C:6][H:12])([H:10])[H:11])([H:7])([H:8])[H:9]"
C       -2.02879818      -0.22991150      -0.43598822
C       -0.75436999       0.03663509       0.33561047
C        0.95196282      -0.49132217      -0.05660936
O        0.36177351      -0.10544381      -1.09360291
C        2.22070693       0.14521954       0.21499986
C        3.36984033       0.43400375       0.42080494
H       -2.89184683      -0.11609902       0.22329016
H       -2.02528235      -1.24274330      -0.83782516
H       -2.16306913       0.47503577      -1.25618293
H       -0.75383762      -0.54701836       1.25779860
H       -0.70620232       1.07455835       0.67850479
H        4.41912285       0.56708566       0.54919976
12
Frame=12 idx=004460 GeodesicLength=0.6279131604453978 rxn_smarts="[C:1]([C:2]([C:3](=[O:4])[C:5]#[C:6][H:12])([H:10])[H:11])([H:7])([H:8])[H:9]>>[C:1]([C:2]([O+:4]=[C-:3][C:5]#[C:6][H:12])([H:10])[H:11])([H:7])([H:8])[H:9]"
C       -2.02499679      -0.25360382      -0.42982332
C       -0.75756560       0.07125184       0.33100155
C        0.93998369      -0.45943854      -0.08909352
O        0.36261441      -0.00397528      -1.10210088
C        2.22068947       0.13399565       0.21856643
C        3.37499188       0.39146669       0.43564631
H       -2.89005759      -0.17039544       0.23101721
H       -1.98123339      -1.26812625      -0.82540626
H       -2.19042841       0.43809827      -1.25569460
H       -0.73371679      -0.49979069       1.26164732
H       -0.74747051       1.11197843       0.66862166
H        4.42718962       0.50853914       0.55561808
12
Frame=13 idx=004460 GeodesicLength=0.6699337478217101 rxn_smarts="[C:1]([C:2]([C:3](=[O:4])[C:5]#[C:6][H:12])([H:10])[H:11])([H:7])([H:8])[H:9]>>[C:1]([C:2]([O+:4]=[C-:3][C:5]#[C:6][H:12])([H:10])[H:11])([H:7])([H:8])[H:9]"
C       -2.01843491      -0.27630032      -0.42447891
C       -0.76201612       0.10533650       0.32841976
C        0.92719810      -0.42648780      -0.11858153
O        0.36307770       0.09451291      -1.10442200
C        2.21893356       0.12287098       0.22054270
C        3.37796293       0.34873973       0.44647719
H       -2.88595673      -0.22209111       0.23577024
H       -1.93509339      -1.29115279      -0.81322124
H       -2.21063387       0.40060587      -1.25690220
H       -0.71621136      -0.45425123       1.26604170
H       -0.79143102       1.14696568       0.66218175
H        4.43260512       0.45125156       0.55817255
12
Frame=14 idx=004460 GeodesicLength=0.7120172041282793 rxn_smarts="[C:1]([C:2]([C:3](=[O:4])[C:5]#[C:6][H:12])([H:10])[H:11])([H:7])([H:8])[H:9]>>[C:1]([C:2]([O+:4]=[C-:3][C:5]#[C:6][H:12])([H:10])[H:11])([H:7])([H:8])[H:9]"
C       -2.00943375      -0.29795211      -0.41997195
C       -0.76771076       0.13871564       0.32770672
C        0.91377957      -0.39271021      -0.14475829
O        0.36340755       0.18970064      -1.10087387
C        2.21566954       0.11191490       0.22151480
C        3.37900875       0.30642415       0.45350783
H       -2.88002126      -0.27102509       0.23752308
H       -1.88734327      -1.31197900      -0.80097513
H       -2.22389565       0.36284924      -1.25997872
H       -0.70143675      -0.41036698       1.27112573
H       -0.83783258       1.17934443       0.65865007
H        4.43580862       0.39508439       0.55652975
12
Frame=15 idx=004460 GeodesicLength=0.7540300813363804 rxn_smarts="[C:1]([C:2]([C:3](=[O:4])[C:5]#[C:6][H:12])([H:10])[H:11])([H:7])([H:8])[H:9]>>[C:1]([C:2]([O+:4]=[C-:3][C:5]#[C:6][H:12])([H:10])[H:11])([H:7])([H:8])[H:9]"
C       -1.99859624      -0.31747830      -0.41611630
C       -0.77399314       0.17049343       0.32850080
C        0.89970874      -0.36113629      -0.16827943
O        0.36405798       0.27935346      -1.09238130
C        2.21141826       0.09701841       0.22093740
C        3.37807524       0.26195675       0.45816391
H       -2.87277317      -0.31480149       0.23674753
H       -1.84030054      -1.32991924      -0.78833448
H       -2.23014219       0.32651929      -1.26471276
H       -0.68918418      -0.36911668       1.27668284
H       -0.88423202       1.20832609       0.65751306
H        4.43596126       0.34878457       0.55127875
12
Frame=16 idx=004460 GeodesicLength=0.7962274395442519 rxn_smarts="[C:1]([C:2]([C:3](=[O:4])[C:5]#[C:6][H:12])([H:10])[H:11])([H:7])([H:8])[H:9]>>[C:1]([C:2]([O+:4]=[C-:3][C:5]#[C:6][H:12])([H:10])[H:11])([H:7])([H:8])[H:9]"
C       -1.98626986      -0.33537771      -0.41262810
C       -0.78082966       0.20100835       0.33049827
C        0.88516372      -0.33074213      -0.18977249
O        0.36492498       0.36455411      -1.07970787
C        2.20625856       0.07969261       0.21817525
C        3.37568955       0.21581284       0.45903512
H       -2.86456345      -0.35443765       0.23399914
H       -1.79382962      -1.34570450      -0.77479275
H       -2.23043862       0.29114625      -1.27083260
H       -0.67880775      -0.32984387       1.28268313
H       -0.93088565       1.23438686       0.65809008
H        4.43358781       0.30950484       0.54525282
