14
Frame=0 idx=006193 GeodesicLength=0.0 rxn_smarts="[C:1]1([H:7])([H:8])[C:2]([H:9])([H:10])[C:3]1([C@@:4]1([H:12])[C:5]([H:13])([H:14])[O:6]1)[H:11]>>[C:1]1([H:7])([H:8])[C:2]([H:9])([H:10])[C:3]([H:11])=[C:4]([H:12])[C:5]([H:13])([H:14])[O:6]1"
C       -1.17207367      -0.45602853      -0.24719072
C       -1.30869955       1.02644865      -0.38432530
C        0.00878116       1.04255389       0.33112017
C        1.01879598       0.35937931      -0.26875287
C        1.59326718      -0.79635563       0.47460742
O        0.60839922      -1.69343684       0.10212952
H       -1.11271384      -1.07444548      -1.12916066
H       -1.55821319      -0.93455079       0.63922890
H       -2.13227266       1.47750998       0.16349209
H       -1.27568149       1.37539051      -1.41471626
H       -0.01971244       1.05279489       1.41649788
H        1.10255568       0.31885261      -1.35181722
H        2.58347892      -1.10729012       0.11324258
H        1.66408867      -0.59082242       1.55564448
14
Frame=1 idx=006193 GeodesicLength=0.059111128725850344 rxn_smarts="[C:1]1([H:7])([H:8])[C:2]([H:9])([H:10])[C:3]1([C@@:4]1([H:12])[C:5]([H:13])([H:14])[O:6]1)[H:11]>>[C:1]1([H:7])([H:8])[C:2]([H:9])([H:10])[C:3]([H:11])=[C:4]([H:12])[C:5]([H:13])([H:14])[O:6]1"
C       -1.17489971      -0.45914509      -0.23853514
C       -1.30725377       1.02565198      -0.38889059
C        0.00325449       1.02861674       0.33568275
C        1.02308707       0.35670294      -0.26756891
C        1.60828388      -0.79055853       0.47664568
O        0.61291194      -1.67267124       0.08517684
H       -1.14407983      -1.07682386      -1.12299295
H       -1.57335641      -0.92699796       0.64876740
H       -2.13295520       1.48218373       0.15104120
H       -1.26329351       1.36863711      -1.42071112
H       -0.02692342       1.03886949       1.42086590
H        1.10874164       0.32533967      -1.35073340
H        2.59533730      -1.10504709       0.11222814
H        1.67114553      -0.59475791       1.55902422
14
Frame=2 idx=006193 GeodesicLength=0.117992030529812 rxn_smarts="[C:1]1([H:7])([H:8])[C:2]([H:9])([H:10])[C:3]1([C@@:4]1([H:12])[C:5]([H:13])([H:14])[O:6]1)[H:11]>>[C:1]1([H:7])([H:8])[C:2]([H:9])([H:10])[C:3]([H:11])=[C:4]([H:12])[C:5]([H:13])([H:14])[O:6]1"
C       -1.17757528      -0.46241382      -0.22989140
C       -1.30569231       1.02462263      -0.39347148
C       -0.00222505       1.01483637       0.34001899
C        1.02758009       0.35442645      -0.26631328
C        1.62280999      -0.78483280       0.47845991
O        0.61740456      -1.65191823       0.06815675
H       -1.17517383      -1.07918438      -1.11604545
H       -1.58833612      -0.91917429       0.65824617
H       -2.13343398       1.48652848       0.13861473
H       -1.25105259       1.36147262      -1.42664374
H       -0.03401279       1.02516739       1.42501489
H        1.11526820       0.33252990      -1.34949775
H        2.60676852      -1.10291700       0.11123036
H        1.67767059      -0.59914333       1.56212128
14
Frame=3 idx=006193 GeodesicLength=0.1766506847150876 rxn_smarts="[C:1]1([H:7])([H:8])[C:2]([H:9])([H:10])[C:3]1([C@@:4]1([H:12])[C:5]([H:13])([H:14])[O:6]1)[H:11]>>[C:1]1([H:7])([H:8])[C:2]([H:9])([H:10])[C:3]([H:11])=[C:4]([H:12])[C:5]([H:13])([H:14])[O:6]1"
C       -1.18009487      -0.46583534      -0.22125754
C       -1.30402653       1.02335990      -0.39806574
C       -0.00765061       1.00122061       0.34412268
C        1.03227113       0.35254753      -0.26498691
C        1.63685285      -0.77918307       0.48006808
O        0.62186968      -1.63117096       0.05107600
H       -1.20595961      -1.08151396      -1.10834561
H       -1.60314794      -0.91108141       0.66765425
H       -2.13372090       1.49053335       0.12622675
H       -1.23898080       1.35390379      -1.43251549
H       -0.04096833       1.01170900       1.42893939
H        1.12212413       0.34040931      -1.34810280
H        2.61776747      -1.10091686       0.11024912
H        1.68366433      -0.60398189       1.56493785
14
Frame=4 idx=006193 GeodesicLength=0.2351146638725311 rxn_smarts="[C:1]1([H:7])([H:8])[C:2]([H:9])([H:10])[C:3]1([C@@:4]1([H:12])[C:5]([H:13])([H:14])[O:6]1)[H:11]>>[C:1]1([H:7])([H:8])[C:2]([H:9])([H:10])[C:3]([H:11])=[C:4]([H:12])[C:5]([H:13])([H:14])[O:6]1"
C       -1.18245914      -0.46941570      -0.21262837
C       -1.30226598       1.02185848      -0.40266620
C       -0.01301744       0.98776330       0.34799016
C        1.03714943       0.35105465      -0.26358768
C        1.65043303      -0.77360752       0.48149059
O        0.62628627      -1.61041904       0.03397768
H       -1.23641129      -1.08376268      -1.09995176
H       -1.61781176      -0.90273280       0.67695687
H       -2.13383130       1.49418766       0.11388979
H       -1.22708436       1.34593799      -1.43831772
H       -0.04778682       0.99850202       1.43263277
H        1.12928652       0.34894221      -1.34653693
H        2.62833444      -1.09907075       0.10927137
H        1.68917840      -0.60923782       1.56747941
14
Frame=5 idx=006193 GeodesicLength=0.29339012942926257 rxn_smarts="[C:1]1([H:7])([H:8])[C:2]([H:9])([H:10])[C:3]1([C@@:4]1([H:12])[C:5]([H:13])([H:14])[O:6]1)[H:11]>>[C:1]1([H:7])([H:8])[C:2]([H:9])([H:10])[C:3]([H:11])=[C:4]([H:12])[C:5]([H:13])([H:14])[O:6]1"
C       -1.18466238      -0.47315227      -0.20398797
C       -1.30041809       1.02011807      -0.40728743
C       -0.01832466       0.97448066       0.35163007
C        1.04221327       0.34996223      -0.26210528
C        1.66355917      -0.76812062       0.48273000
O        0.63066142      -1.58965102       0.01680077
H       -1.26653007      -1.08595055      -1.09082603
H       -1.63230033      -0.89410462       0.68618804
H       -2.13377916       1.49749933       0.10157421
H       -1.21536724       1.33755031      -1.44408155
H       -0.05447175       0.98555410       1.43610841
H        1.13675726       0.35816268      -1.34478242
H        2.63848813      -1.09737919       0.10829631
H        1.69417444      -0.61496911       1.56974287
14
Frame=6 idx=006193 GeodesicLength=0.351503078649953 rxn_smarts="[C:1]1([H:7])([H:8])[C:2]([H:9])([H:10])[C:3]1([C@@:4]1([H:12])[C:5]([H:13])([H:14])[O:6]1)[H:11]>>[C:1]1([H:7])([H:8])[C:2]([H:9])([H:10])[C:3]([H:11])=[C:4]([H:12])[C:5]([H:13])([H:14])[O:6]1"
C       -1.18670808      -0.47704718      -0.19533095
C       -1.29849302       1.01813974      -0.41191993
C       -0.02356700       0.96136596       0.35503719
C        1.04745211       0.34924920      -0.26054216
C        1.67624697      -0.76271956       0.48380877
O        0.63498920      -1.56885647      -0.00040463
H       -1.29628298      -1.08804379      -1.08104178
H       -1.64662649      -0.88521310       0.69531593
H       -2.13357649       1.50046370       0.08930086
H       -1.20383622       1.32876011      -1.44979213
H       -0.06101722       0.97287299       1.43935789
H        1.14451004       0.36802175      -1.34283497
H        2.64821364      -1.09585140       0.10731497
H        1.69869554      -0.62114194       1.57173095
14
Frame=7 idx=006193 GeodesicLength=0.40947889845646335 rxn_smarts="[C:1]1([H:7])([H:8])[C:2]([H:9])([H:10])[C:3]1([C@@:4]1([H:12])[C:5]([H:13])([H:14])[O:6]1)[H:11]>>[C:1]1([H:7])([H:8])[C:2]([H:9])([H:10])[C:3]([H:11])=[C:4]([H:12])[C:5]([H:13])([H:14])[O:6]1"
C       -1.18859369      -0.48110394      -0.18663988
C       -1.29649439       1.01591818      -0.41657515
C       -0.02874360       0.94842651       0.35822156
C        1.05286066       0.34892655      -0.25888402
C        1.68850839      -0.75741187       0.48472865
O        0.63926112      -1.54800914      -0.01767554
H       -1.32567835      -1.09004281      -1.07057361
H       -1.66077620      -0.87604631       0.70435876
H       -2.13323826       1.50308499       0.07703682
H       -1.19247965       1.31954161      -1.45547393
H       -0.06743095       0.96045792       1.44239281
H        1.15254292       0.37854419      -1.34066840
H        2.65752861      -1.09449572       0.10631728
H        1.70273340      -0.62779015       1.57343464
14
Frame=8 idx=006193 GeodesicLength=0.4673292839215463 rxn_smarts="[C:1]1([H:7])([H:8])[C:2]([H:9])([H:10])[C:3]1([C@@:4]1([H:12])[C:5]([H:13])([H:14])[O:6]1)[H:11]>>[C:1]1([H:7])([H:8])[C:2]([H:9])([H:10])[C:3]([H:11])=[C:4]([H:12])[C:5]([H:13])([H:14])[O:6]1"
C       -1.19032165      -0.48531789      -0.17789224
C       -1.29442905       1.01344945      -0.42126389
C       -0.03385593       0.93566982       0.36119377
C        1.05843573       0.34899762      -0.25711476
C        1.70035589      -0.75220756       0.48549365
O        0.64348440      -1.52709917      -0.03504534
H       -1.35472850      -1.09194729      -1.05941318
H       -1.67472717      -0.86658829       0.71333553
H       -2.13278188       1.50537131       0.06474558
H       -1.18128989       1.30986584      -1.46114160
H       -0.07371868       0.94831242       1.44522299
H        1.16085865       0.38975140      -1.33825849
H        2.66644069      -1.09330918       0.10528884
H        1.70627740      -0.63494848       1.57484915
14
Frame=9 idx=006193 GeodesicLength=0.5250655915720595 rxn_smarts="[C:1]1([H:7])([H:8])[C:2]([H:9])([H:10])[C:3]1([C@@:4]1([H:12])[C:5]([H:13])([H:14])[O:6]1)[H:11]>>[C:1]1([H:7])([H:8])[C:2]([H:9])([H:10])[C:3]([H:11])=[C:4]([H:12])[C:5]([H:13])([H:14])[O:6]1"
C       -1.19188075      -0.48969158      -0.16909145
C       -1.29229836       1.01073130      -0.42598325
C       -0.03890190       0.92309116       0.36394968
C        1.06415592       0.34944859      -0.25523568
C        1.71179231      -0.74710612       0.48611832
O        0.64763449      -1.50610528      -0.05246873
H       -1.38338640      -1.09371882      -1.04759599
H       -1.68846580      -0.85685657       0.72222221
H       -2.13220481       1.50730532       0.05244185
H       -1.17026705       1.29975114      -1.46679221
H       -0.07988085       0.93643752       1.44784379
H        1.16941878       0.40160906      -1.33559630
H        2.67493423      -1.09230799       0.10421765
H        1.70935018      -0.64258774       1.57597010
14
Frame=10 idx=006193 GeodesicLength=0.5826939988549975 rxn_smarts="[C:1]1([H:7])([H:8])[C:2]([H:9])([H:10])[C:3]1([C@@:4]1([H:12])[C:5]([H:13])([H:14])[O:6]1)[H:11]>>[C:1]1([H:7])([H:8])[C:2]([H:9])([H:10])[C:3]([H:11])=[C:4]([H:12])[C:5]([H:13])([H:14])[O:6]1"
C       -1.19328510      -0.49422383      -0.16023402
C       -1.29012252       1.00777150      -0.43073504
C       -0.04387949       0.91070430       0.36649707
C        1.07002464       0.35027292      -0.25323688
C        1.72284242      -0.74211689       0.48661314
O        0.65171509      -1.48502173      -0.06994318
H       -1.41164636      -1.09536752      -1.03515167
H       -1.70199425      -0.84685426       0.73101029
H       -2.13154344       1.50889917       0.04012130
H       -1.15941705       1.28920130      -1.47242860
H       -0.08591875       0.92485761       1.45026537
H        1.17822305       0.41410222      -1.33266579
H        2.68302783      -1.09151207       0.10309447
H        1.71197392      -0.65071273       1.57679354
14
Frame=11 idx=006193 GeodesicLength=0.6402329954766538 rxn_smarts="[C:1]1([H:7])([H:8])[C:2]([H:9])([H:10])[C:3]1([C@@:4]1([H:12])[C:5]([H:13])([H:14])[O:6]1)[H:11]>>[C:1]1([H:7])([H:8])[C:2]([H:9])([H:10])[C:3]([H:11])=[C:4]([H:12])[C:5]([H:13])([H:14])[O:6]1"
C       -1.19451998      -0.49890688      -0.15130883
C       -1.28789442       1.00456428      -0.43552286
C       -0.04878567       0.89850267       0.36883360
C        1.07601831       0.35146095      -0.25111549
C        1.73349170      -0.73723677       0.48698631
O        0.65571718      -1.46381537      -0.08744859
H       -1.43946988      -1.09687671      -1.02209035
H       -1.71527072      -0.83658808       0.73969940
H       -2.13078662       1.51013481       0.02777487
H       -1.14872504       1.27821932      -1.47805038
H       -0.09182870       0.91356237       1.45248120
H        1.18723821       0.42722203      -1.32945313
H        2.69067670      -1.09091726       0.10190715
H        1.71413892      -0.65932535       1.57730710
14
Frame=12 idx=006193 GeodesicLength=0.6976982849502226 rxn_smarts="[C:1]1([H:7])([H:8])[C:2]([H:9])([H:10])[C:3]1([C@@:4]1([H:12])[C:5]([H:13])([H:14])[O:6]1)[H:11]>>[C:1]1([H:7])([H:8])[C:2]([H:9])([H:10])[C:3]([H:11])=[C:4]([H:12])[C:5]([H:13])([H:14])[O:6]1"
C       -1.19559623      -0.50374701      -0.14230067
C       -1.28562515       1.00111120      -0.44035740
C       -0.05362466       0.88650240       0.37097707
C        1.08213980       0.35301757      -0.24885055
C        1.74376832      -0.73247993       0.48723827
O        0.65963761      -1.44247585      -0.10500746
H       -1.46688319      -1.09824958      -1.00841207
H       -1.72829710      -0.82605383       0.74830317
H       -2.12996371       1.51102937       0.01536839
H       -1.13817741       1.26677719      -1.48367931
H       -0.09762598       0.90256715       1.45451465
H        1.19647230       0.44098518      -1.32592735
H        2.69792008      -1.09053515       0.10063420
H        1.71585531      -0.66844870       1.57749907
14
Frame=13 idx=006193 GeodesicLength=0.7551110094210379 rxn_smarts="[C:1]1([H:7])([H:8])[C:2]([H:9])([H:10])[C:3]1([C@@:4]1([H:12])[C:5]([H:13])([H:14])[O:6]1)[H:11]>>[C:1]1([H:7])([H:8])[C:2]([H:9])([H:10])[C:3]([H:11])=[C:4]([H:12])[C:5]([H:13])([H:14])[O:6]1"
C       -1.19650103      -0.50872916      -0.13319202
C       -1.28331470       0.99740577      -0.44525013
C       -0.05840219       0.87470473       0.37293280
C        1.08837537       0.35494262      -0.24642294
C        1.75366835      -0.72785503       0.48736820
O        0.66347011      -1.42097430      -0.12264183
H       -1.49387051      -1.09947721      -0.99408525
H       -1.74102270      -0.81523321       0.75683471
H       -2.12908464       1.51157824       0.00285703
H       -1.12775869       1.25484079      -1.48931871
H       -0.10332038       0.89186421       1.45636054
H        1.20591390       0.45541616      -1.32205174
H        2.70474253      -1.09036235       0.09925600
H        1.71710458      -0.67812126       1.57735337
14
Frame=14 idx=006193 GeodesicLength=0.8124959269082803 rxn_smarts="[C:1]1([H:7])([H:8])[C:2]([H:9])([H:10])[C:3]1([C@@:4]1([H:12])[C:5]([H:13])([H:14])[O:6]1)[H:11]>>[C:1]1([H:7])([H:8])[C:2]([H:9])([H:10])[C:3]([H:11])=[C:4]([H:12])[C:5]([H:13])([H:14])[O:6]1"
C       -1.19724173      -0.51386057      -0.12396997
C       -1.28096486       0.99344876      -0.45020785
C       -0.06311562       0.86312034       0.37471412
C        1.09472233       0.35723379      -0.24381969
C        1.76320466      -0.72336697       0.48738052
O        0.66721208      -1.39928587      -0.14034308
H       -1.52044550      -1.10056533      -0.97913285
H       -1.75345225      -0.80414113       0.76529952
H       -2.12816145       1.51178508      -0.00977654
H       -1.11744698       1.24240046      -1.49498501
H       -0.10891572       0.88146664       1.45804179
H        1.21555907       0.47051660      -1.31780499
H        2.71114576      -1.09040723       0.09775032
H        1.71790021      -0.68834457       1.57685370
14
Frame=15 idx=006193 GeodesicLength=0.8698556325945201 rxn_smarts="[C:1]1([H:7])([H:8])[C:2]([H:9])([H:10])[C:3]1([C@@:4]1([H:12])[C:5]([H:13])([H:14])[O:6]1)[H:11]>>[C:1]1([H:7])([H:8])[C:2]([H:9])([H:10])[C:3]([H:11])=[C:4]([H:12])[C:5]([H:13])([H:14])[O:6]1"
C       -1.19780603      -0.51912858      -0.11464017
C       -1.27857705       0.98924109      -0.45523131
C       -0.06776515       0.85175007       0.37631776
C        1.10115782       0.35987338      -0.24104023
C        1.77236753      -0.71901642       0.48728287
O        0.67084133      -1.37739355      -0.15806885
H       -1.54654898      -1.10149137      -0.96357615
H       -1.76553500      -0.79279441       0.77368598
H       -2.12719445       1.51163136      -0.02252827
H       -1.10723578       1.22947603      -1.50066652
H       -0.11441451       0.87137831       1.45954969
H        1.22537209       0.48625390      -1.31317550
H        2.71709910      -1.09067590       0.09610220
H        1.71823908      -0.69910392       1.57598848
14
Frame=16 idx=006193 GeodesicLength=0.9271892278219871 rxn_smarts="[C:1]1([H:7])([H:8])[C:2]([H:9])([H:10])[C:3]1([C@@:4]1([H:12])[C:5]([H:13])([H:14])[O:6]1)[H:11]>>[C:1]1([H:7])([H:8])[C:2]([H:9])([H:10])[C:3]([H:11])=[C:4]([H:12])[C:5]([H:13])([H:14])[O:6]1"
C       -1.19819855      -0.52452640      -0.10520667
C       -1.27616588       0.98479284      -0.46032341
C       -0.07235207       0.84060803       0.37775055
C        1.10767552       0.36284843      -0.23807530
C        1.78117434      -0.71481253       0.48708386
O        0.67435468      -1.35529148      -0.17579561
H       -1.57216734      -1.10225709      -0.94744552
H       -1.77725396      -0.78120864       0.78198287
H       -2.12621198       1.51112212      -0.03540396
H       -1.09712297       1.21608017      -1.50636035
H       -0.11982086       0.86162106       1.46089235
H        1.23533497       0.50260256      -1.30814517
H        2.72261151      -1.09118613       0.09429845
H        1.71814257      -0.71039295       1.57474790
