17
Frame=0 idx=011531 GeodesicLength=0.0 rxn_smarts="[C:1]([C@@:2]1([H:11])[N:3]([H:12])[C@:4]1([C@@:5]1([H:14])[C:6]([H:15])([H:16])[N:7]1[H:17])[H:13])([H:8])([H:9])[H:10]>>[C:1]([C@@:2]1([H:11])[N:3]([H:12])[C@:4]1([C:5]([N:7]=[C:6]([H:15])[H:16])([H:14])[H:17])[H:13])([H:8])([H:9])[H:10]"
C       -2.11267144      -0.08053347       0.01378433
C       -1.08697657      -0.21821361      -1.07858335
N       -0.11537286       0.84258060      -1.33001399
C        0.35412708      -0.43665933      -0.81284627
C        0.90397391      -0.51298246       0.58506445
C        2.09347890       0.52817012       0.83534448
N        1.02948887       0.94760387       1.54393195
H       -2.97049388       0.48804355      -0.34994078
H       -1.71954470       0.44907631       0.88329185
H       -2.47611214      -1.05923642       0.33591311
H       -1.47349274      -0.65753957      -1.99402510
H       -0.12943694       1.50227959      -0.55317001
H        0.92773577      -1.01627710      -1.53059053
H        1.34713876      -1.46558752       0.87830211
H        2.96645287       0.07971149       1.33308685
H        2.33867712       0.99019773      -0.13147124
H        0.12302807      -0.38063372       1.37192219
17
Frame=1 idx=011531 GeodesicLength=0.10750750141228889 rxn_smarts="[C:1]([C@@:2]1([H:11])[N:3]([H:12])[C@:4]1([C@@:5]1([H:14])[C:6]([H:15])([H:16])[N:7]1[H:17])[H:13])([H:8])([H:9])[H:10]>>[C:1]([C@@:2]1([H:11])[N:3]([H:12])[C@:4]1([C:5]([N:7]=[C:6]([H:15])[H:16])([H:14])[H:17])[H:13])([H:8])([H:9])[H:10]"
C       -2.12493862      -0.09356377       0.00736823
C       -1.09128228      -0.22133125      -1.07855349
N       -0.12837748       0.84855356      -1.32561598
C        0.35025901      -0.42699435      -0.80692014
C        0.90077940      -0.49804600       0.59054887
C        2.12818078       0.52068296       0.83049605
N        1.06282166       0.94016378       1.53628335
H       -2.98297158       0.47330647      -0.35863547
H       -1.73864330       0.43292179       0.88183384
H       -2.48592679      -1.07552201       0.32215029
H       -1.46986566      -0.66265008      -1.99643018
H       -0.15157343       1.50887134      -0.54983241
H        0.92827286      -1.00246489      -1.52461608
H        1.32288494      -1.45871910       0.88899953
H        2.98836241       0.04709912       1.32561417
H        2.38114640       0.99600973      -0.12691266
H        0.11087167      -0.32831730       1.38422208
17
Frame=2 idx=011531 GeodesicLength=0.21510648513510414 rxn_smarts="[C:1]([C@@:2]1([H:11])[N:3]([H:12])[C@:4]1([C@@:5]1([H:14])[C:6]([H:15])([H:16])[N:7]1[H:17])[H:13])([H:8])([H:9])[H:10]>>[C:1]([C@@:2]1([H:11])[N:3]([H:12])[C@:4]1([C:5]([N:7]=[C:6]([H:15])[H:16])([H:14])[H:17])[H:13])([H:8])([H:9])[H:10]"
C       -2.13696397      -0.10739816       0.00109846
C       -1.09562162      -0.22424843      -1.07856947
N       -0.14188383       0.85501524      -1.32113142
C        0.34631295      -0.41669575      -0.80114903
C        0.89739195      -0.48253739       0.59590228
C        2.16301262       0.51180812       0.82559602
N        1.09645377       0.93323554       1.52776249
H       -2.99569462       0.45719930      -0.36692230
H       -1.75785047       0.41606564       0.88050737
H       -2.49457955      -1.09288649       0.30852225
H       -1.46614944      -0.66744370      -1.99890726
H       -0.17453429       1.51575241      -0.54636024
H        0.92879155      -0.98783554      -1.51884193
H        1.29737771      -1.45090720       0.90035722
H        3.00911458       0.01273771       1.31833592
H        2.42563237       1.00036619      -0.12165316
H        0.09919029      -0.27222748       1.39545281
17
Frame=3 idx=011531 GeodesicLength=0.32275168437724266 rxn_smarts="[C:1]([C@@:2]1([H:11])[N:3]([H:12])[C@:4]1([C@@:5]1([H:14])[C:6]([H:15])([H:16])[N:7]1[H:17])[H:13])([H:8])([H:9])[H:10]>>[C:1]([C@@:2]1([H:11])[N:3]([H:12])[C@:4]1([C:5]([N:7]=[C:6]([H:15])[H:16])([H:14])[H:17])[H:13])([H:8])([H:9])[H:10]"
C       -2.14862653      -0.12203685      -0.00494162
C       -1.10000082      -0.22696935      -1.07864679
N       -0.15593314       0.86194607      -1.31666458
C        0.34229496      -0.40574356      -0.79562542
C        0.89378966      -0.46646492       0.60104605
C        2.19782616       0.50150965       0.82073633
N        1.13015734       0.92669096       1.51837781
H       -3.00854974       0.43975427      -0.37462866
H       -1.77694844       0.39840609       0.87940413
H       -2.50195128      -1.11130991       0.29510813
H       -1.46241475      -0.67195293      -2.00142940
H       -0.19832982       1.52292265      -0.54288763
H        0.92929509      -0.97236232      -1.51335817
H        1.27058952      -1.44207517       0.91229130
H        3.02846994      -0.02331913       1.31142816
H        2.47215485       1.00316006      -0.11550537
H        0.08817700      -0.21215561       1.40529575
17
Frame=4 idx=011531 GeodesicLength=0.4304182285162379 rxn_smarts="[C:1]([C@@:2]1([H:11])[N:3]([H:12])[C@:4]1([C@@:5]1([H:14])[C:6]([H:15])([H:16])[N:7]1[H:17])[H:13])([H:8])([H:9])[H:10]>>[C:1]([C@@:2]1([H:11])[N:3]([H:12])[C@:4]1([C:5]([N:7]=[C:6]([H:15])[H:16])([H:14])[H:17])[H:13])([H:8])([H:9])[H:10]"
C       -2.15979192      -0.13745817      -0.01065331
C       -1.10443363      -0.22951118      -1.07880026
N       -0.17056932       0.86930578      -1.31234763
C        0.33820559      -0.39413084      -0.79046082
C        0.88994917      -0.44986182       0.60588113
C        2.23244054       0.48977762       0.81604997
N        1.16365081       0.92037291       1.50815925
H       -3.02139647       0.42105138      -0.38154338
H       -1.79566131       0.37984711       0.87862926
H       -2.50794205      -1.13074176       0.28199412
H       -1.45875636      -0.67623761      -2.00395714
H       -0.22296065       1.53037715      -0.53958742
H        0.92977990      -0.95602880      -1.50827614
H        1.24253435      -1.43215934       0.92467785
H        3.04617712      -0.06096833       1.30509422
H        2.52071811       1.00432471      -0.10823032
H        0.07805612      -0.14795880       1.41337063
17
Frame=5 idx=011531 GeodesicLength=0.5375130122582318 rxn_smarts="[C:1]([C@@:2]1([H:11])[N:3]([H:12])[C@:4]1([C@@:5]1([H:14])[C:6]([H:15])([H:16])[N:7]1[H:17])[H:13])([H:8])([H:9])[H:10]>>[C:1]([C@@:2]1([H:11])[N:3]([H:12])[C@:4]1([C:5]([N:7]=[C:6]([H:15])[H:16])([H:14])[H:17])[H:13])([H:8])([H:9])[H:10]"
C       -2.17035932      -0.15357951      -0.01591681
C       -1.10892346      -0.23191422      -1.07900990
N       -0.18584031       0.87703721      -1.30834708
C        0.33406715      -0.38183440      -0.78571510
C        0.88588656      -0.43266454       0.61035839
C        2.26669226       0.47663971       0.81162046
N        1.19676676       0.91421807       1.49709111
H       -3.03410381       0.40128292      -0.38746216
H       -1.81370181       0.36034991       0.87829911
H       -2.51256566      -1.15105141       0.26929123
H       -1.45523954      -0.68043063      -2.00640808
H       -0.24844420       1.53813006      -0.53668614
H        0.93028593      -0.93881888      -1.50363923
H        1.21345089      -1.42101936       0.93730337
H        3.06196927      -0.10006220       1.29955850
H        2.57117662       1.00375435      -0.09948756
H        0.06888267      -0.08003707       1.41914990
17
Frame=6 idx=011531 GeodesicLength=0.6443673661962146 rxn_smarts="[C:1]([C@@:2]1([H:11])[N:3]([H:12])[C@:4]1([C@@:5]1([H:14])[C:6]([H:15])([H:16])[N:7]1[H:17])[H:13])([H:8])([H:9])[H:10]>>[C:1]([C@@:2]1([H:11])[N:3]([H:12])[C@:4]1([C:5]([N:7]=[C:6]([H:15])[H:16])([H:14])[H:17])[H:13])([H:8])([H:9])[H:10]"
C       -2.18015228      -0.17032899      -0.02060312
C       -1.11349295      -0.23421388      -1.07931249
N       -0.20176311       0.88504445      -1.30484888
C        0.32987313      -0.36891294      -0.78157578
C        0.88157460      -0.41505393       0.61429622
C        2.30030772       0.46217505       0.80767952
N        1.22903871       0.90795646       1.48529045
H       -3.04648140       0.38061266      -0.39209877
H       -1.83067216       0.33985298       0.87853258
H       -2.51572174      -1.17212160       0.25712541
H       -1.45202340      -0.68461310      -2.00874334
H       -0.27471570       1.54613661      -0.53442253
H        0.93079324      -0.92076466      -1.49965065
H        1.18334785      -1.40874631       0.94994013
H        3.07560473      -0.14035544       1.29502529
H        2.62346234       1.00155871      -0.08892884
H        0.06102041      -0.00822606       1.42229477
17
Frame=7 idx=011531 GeodesicLength=0.7509533825827472 rxn_smarts="[C:1]([C@@:2]1([H:11])[N:3]([H:12])[C@:4]1([C@@:5]1([H:14])[C:6]([H:15])([H:16])[N:7]1[H:17])[H:13])([H:8])([H:9])[H:10]>>[C:1]([C@@:2]1([H:11])[N:3]([H:12])[C@:4]1([C:5]([N:7]=[C:6]([H:15])[H:16])([H:14])[H:17])[H:13])([H:8])([H:9])[H:10]"
C       -2.18903219      -0.18757171      -0.02456595
C       -1.11815782      -0.23646874      -1.07972094
N       -0.21834050       0.89320710      -1.30207082
C        0.32563558      -0.35543359      -0.77819502
C        0.87701572      -0.39717369       0.61754438
C        2.33303603       0.44649866       0.80441741
N        1.26006446       0.90137283       1.47287304
H       -3.05836071       0.35930474      -0.39518626
H       -1.84616960       0.31838383       0.87944519
H       -2.51741399      -1.19375362       0.24566354
H       -1.44924974      -0.68892588      -2.01089457
H       -0.30170282       1.55435742      -0.53308295
H        0.93131290      -0.90192003      -1.49646584
H        1.15242938      -1.39542835       0.96227573
H        3.08687035      -0.18156315       1.29168751
H        2.67734701       0.99792040      -0.07610557
H        0.05471594       0.06719379       1.42238113
17
Frame=8 idx=011531 GeodesicLength=0.8572166355404263 rxn_smarts="[C:1]([C@@:2]1([H:11])[N:3]([H:12])[C@:4]1([C@@:5]1([H:14])[C:6]([H:15])([H:16])[N:7]1[H:17])[H:13])([H:8])([H:9])[H:10]>>[C:1]([C@@:2]1([H:11])[N:3]([H:12])[C@:4]1([C:5]([N:7]=[C:6]([H:15])[H:16])([H:14])[H:17])[H:13])([H:8])([H:9])[H:10]"
C       -2.19687081      -0.20513402      -0.02766801
C       -1.12294662      -0.23875280      -1.08023596
N       -0.23558934       0.90138366      -1.30022922
C        0.32134192      -0.34148029      -0.77572603
C        0.87221377      -0.37919923       0.61994553
C        2.36463557       0.42978290       0.80204916
N        1.28942725       0.89424864       1.45998057
H       -3.06956393       0.33764457      -0.39647445
H       -1.85979847       0.29606326       0.88111366
H       -2.51766125      -1.21570279       0.23508931
H       -1.44707632      -0.69353816      -2.01277178
H       -0.32933606       1.56274067      -0.53295787
H        0.93182615      -0.88234574      -1.49424374
H        1.12095204      -1.38121468       0.97394104
H        3.09561312      -0.22333877       1.28970154
H        2.73261228       0.99308287      -0.06050101
H        0.05022067       0.14575992       1.41898727
17
Frame=9 idx=011531 GeodesicLength=0.962475106717049 rxn_smarts="[C:1]([C@@:2]1([H:11])[N:3]([H:12])[C@:4]1([C@@:5]1([H:14])[C:6]([H:15])([H:16])[N:7]1[H:17])[H:13])([H:8])([H:9])[H:10]>>[C:1]([C@@:2]1([H:11])[N:3]([H:12])[C@:4]1([C:5]([N:7]=[C:6]([H:15])[H:16])([H:14])[H:17])[H:13])([H:8])([H:9])[H:10]"
C       -2.20365057      -0.22279674      -0.02980674
C       -1.12785309      -0.24113975      -1.08081896
N       -0.25347865       0.90943835      -1.29948216
C        0.31702732      -0.32711264      -0.77420106
C        0.86728623      -0.36115258       0.62142901
C        2.39496669       0.41222656       0.80061366
N        1.31700736       0.88652900       1.44667521
H       -3.08002816       0.31594176      -0.39588558
H       -1.87135082       0.27316828       0.88355613
H       -2.51663543      -1.23766660       0.22559848
H       -1.44555563      -0.69863561      -2.01428960
H       -0.35753786       1.57123564      -0.53425615
H        0.93238329      -0.86210859      -1.49302006
H        1.08943373      -1.36616658       0.98456312
H        3.10179167      -0.26536595       1.28903731
H        2.78873067       0.98719701      -0.04156916
H        0.04746325       0.22640843       1.41185655
17
Frame=10 idx=011531 GeodesicLength=1.0674760028484858 rxn_smarts="[C:1]([C@@:2]1([H:11])[N:3]([H:12])[C@:4]1([C@@:5]1([H:14])[C:6]([H:15])([H:16])[N:7]1[H:17])[H:13])([H:8])([H:9])[H:10]>>[C:1]([C@@:2]1([H:11])[N:3]([H:12])[C@:4]1([C:5]([N:7]=[C:6]([H:15])[H:16])([H:14])[H:17])[H:13])([H:8])([H:9])[H:10]"
C       -2.20923179      -0.24035528      -0.03084095
C       -1.13293444      -0.24370693      -1.08150847
N       -0.27199860       0.91718895      -1.30005217
C        0.31264197      -0.31251546      -0.77387256
C        0.86219915      -0.34349701       0.62173137
C        2.42374651       0.39408792       0.80041442
N        1.34216881       0.87780932       1.43321594
H       -3.08958973       0.29444178      -0.39317684
H       -1.88042986       0.24999204       0.88678623
H       -2.51428473      -1.25936996       0.21747961
H       -1.44492785      -0.70435491      -2.01537985
H       -0.38616372       1.57973020      -0.53726122
H        0.93290389      -0.84132720      -1.49308424
H        1.05803319      -1.35076787       0.99369818
H        3.10536660      -0.30720992       1.28978678
H        2.84552877       0.98086484      -0.01867890
H        0.04697181       0.30898952       1.40074267
17
Frame=11 idx=011531 GeodesicLength=1.1722540144511195 rxn_smarts="[C:1]([C@@:2]1([H:11])[N:3]([H:12])[C@:4]1([C@@:5]1([H:14])[C:6]([H:15])([H:16])[N:7]1[H:17])[H:13])([H:8])([H:9])[H:10]>>[C:1]([C@@:2]1([H:11])[N:3]([H:12])[C@:4]1([C:5]([N:7]=[C:6]([H:15])[H:16])([H:14])[H:17])[H:13])([H:8])([H:9])[H:10]"
C       -2.21359481      -0.25758091      -0.03067844
C       -1.13821495      -0.24652598      -1.08229761
N       -0.29110612       0.92447536      -1.30207561
C        0.30817456      -0.29783458      -0.77484735
C        0.85699926      -0.32651211       0.62072110
C        2.45083610       0.37560669       0.80156900
N        1.36462097       0.86788027       1.41975232
H       -3.09820290       0.27338096      -0.38829943
H       -1.88687138       0.22695906       0.89075948
H       -2.51069757      -1.28051318       0.21101173
H       -1.44531259      -0.71083587      -2.01597605
H       -0.41508745       1.58812169      -0.54214995
H        0.93336589      -0.82011565      -1.49455897
H        1.02709969      -1.33538944       1.00095142
H        3.10643652      -0.34854119       1.29183352
H        2.90258071       0.97462493       0.00879792
H        0.04897407       0.39279994       1.38548692
17
Frame=12 idx=011531 GeodesicLength=1.27683139986125 rxn_smarts="[C:1]([C@@:2]1([H:11])[N:3]([H:12])[C@:4]1([C@@:5]1([H:14])[C:6]([H:15])([H:16])[N:7]1[H:17])[H:13])([H:8])([H:9])[H:10]>>[C:1]([C@@:2]1([H:11])[N:3]([H:12])[C@:4]1([C:5]([N:7]=[C:6]([H:15])[H:16])([H:14])[H:17])[H:13])([H:8])([H:9])[H:10]"
C       -2.21674760      -0.27426821      -0.02927191
C       -1.14373521      -0.24965045      -1.08316781
N       -0.31079657       0.93117151      -1.30562602
C        0.30357310      -0.28320049      -0.77720668
C        0.85172326      -0.31046586       0.61827472
C        2.47616398       0.35704832       0.80415360
N        1.38414925       0.85661803       1.40639437
H       -3.10585086       0.25290804      -0.38127916
H       -1.89062911       0.20453060       0.89537660
H       -2.50591814      -1.30083616       0.20644570
H       -1.44681610      -0.71818441      -2.01600329
H       -0.44423198       1.59631888      -0.54901603
H        0.93369170      -0.79857104      -1.49755339
H        0.99695227      -1.32041969       1.00595387
H        3.10518168      -0.38903845       1.29500410
H        2.95957250       0.96887860       0.04151285
H        0.05371782       0.47716078       1.36600850
17
Frame=13 idx=011531 GeodesicLength=1.3807847184083322 rxn_smarts="[C:1]([C@@:2]1([H:11])[N:3]([H:12])[C@:4]1([C@@:5]1([H:14])[C:6]([H:15])([H:16])[N:7]1[H:17])[H:13])([H:8])([H:9])[H:10]>>[C:1]([C@@:2]1([H:11])[N:3]([H:12])[C@:4]1([C:5]([N:7]=[C:6]([H:15])[H:16])([H:14])[H:17])[H:13])([H:8])([H:9])[H:10]"
C       -2.21880829      -0.29027276      -0.02662374
C       -1.14948772      -0.25309868      -1.08408712
N       -0.33100038       0.93722436      -1.31066834
C        0.29886865      -0.26865326      -0.78091628
C        0.84657097      -0.29536972       0.61435982
C        2.49978385       0.33857418       0.80805053
N        1.40093815       0.84409761       1.39306229
H       -3.11267139       0.23305815      -0.37229672
H       -1.89190670       0.18312452       0.90054194
H       -2.50010868      -1.32016520       0.20396875
H       -1.44940302      -0.72645533      -2.01547477
H       -0.47351836       1.60426833      -0.55777578
H        0.93391492      -0.77673695      -1.50208270
H        0.96802768      -1.30599693       1.00851867
H        3.10180867      -0.42856964       1.29901008
H        3.01588358       0.96369036       0.07992128
H        0.06110810       0.56128097       1.34249209
17
Frame=14 idx=011531 GeodesicLength=1.4847801821444164 rxn_smarts="[C:1]([C@@:2]1([H:11])[N:3]([H:12])[C@:4]1([C@@:5]1([H:14])[C:6]([H:15])([H:16])[N:7]1[H:17])[H:13])([H:8])([H:9])[H:10]>>[C:1]([C@@:2]1([H:11])[N:3]([H:12])[C@:4]1([C:5]([N:7]=[C:6]([H:15])[H:16])([H:14])[H:17])[H:13])([H:8])([H:9])[H:10]"
C       -2.21976754      -0.30539185      -0.02268439
C       -1.15556578      -0.25691891      -1.08505877
N       -0.35173573       0.94248081      -1.31725597
C        0.29393974      -0.25443121      -0.78613838
C        0.84144216      -0.28178202       0.60879892
C        2.52159895       0.32050223       0.81341864
N        1.41453488       0.83001050       1.37991935
H       -3.11862268       0.21396537      -0.36134582
H       -1.89066714       0.16323239       0.90614655
H       -2.49322210      -1.33825525       0.20385870
H       -1.45328876      -0.73568240      -2.01430646
H       -0.50284397       1.61181618      -0.56849799
H        0.93385608      -0.75477920      -1.50833403
H        0.94046446      -1.29282277       1.00824466
H        3.09658843      -0.46676947       1.30367087
H        3.07138439       0.95985081       0.12485119
H        0.07190461       0.64497480       1.31471294
17
Frame=15 idx=011531 GeodesicLength=1.5889556166698042 rxn_smarts="[C:1]([C@@:2]1([H:11])[N:3]([H:12])[C@:4]1([C@@:5]1([H:14])[C:6]([H:15])([H:16])[N:7]1[H:17])[H:13])([H:8])([H:9])[H:10]>>[C:1]([C@@:2]1([H:11])[N:3]([H:12])[C@:4]1([C:5]([N:7]=[C:6]([H:15])[H:16])([H:14])[H:17])[H:13])([H:8])([H:9])[H:10]"
C       -2.21971147      -0.31950398      -0.01745516
C       -1.16200597      -0.26111977      -1.08606116
N       -0.37297377       0.94688418      -1.32533458
C        0.28874907      -0.24064555      -0.79289947
C        0.83641198      -0.26992224       0.60151008
C        2.54163891       0.30303355       0.82021263
N        1.42493522       0.81431291       1.36689394
H       -3.12379321       0.19564548      -0.34856402
H       -1.88710169       0.14523413       0.91210428
H       -2.48531621      -1.35497660       0.20629511
H       -1.45852593      -0.74585959      -2.01248386
H       -0.53212766       1.61887808      -0.58107929
H        0.93344517      -0.73278067      -1.51637303
H        0.91452070      -1.28126091       1.00492137
H        3.08979375      -0.50348350       1.30869688
H        3.12555283       0.95763840       0.17695335
H        0.08650828       0.72792608       1.28266294
17
Frame=16 idx=011531 GeodesicLength=1.6933090044742682 rxn_smarts="[C:1]([C@@:2]1([H:11])[N:3]([H:12])[C@:4]1([C@@:5]1([H:14])[C:6]([H:15])([H:16])[N:7]1[H:17])[H:13])([H:8])([H:9])[H:10]>>[C:1]([C@@:2]1([H:11])[N:3]([H:12])[C@:4]1([C:5]([N:7]=[C:6]([H:15])[H:16])([H:14])[H:17])[H:13])([H:8])([H:9])[H:10]"
C       -2.21873819      -0.33254784      -0.01094728
C       -1.16886468      -0.26569055      -1.08707517
N       -0.39472985       0.95042745      -1.33481465
C        0.28323842      -0.22736832      -0.80122482
C        0.83154908      -0.25992247       0.59240652
C        2.55998492       0.28636950       0.82836139
N        1.43221645       0.79709948       1.35378555
H       -3.12828568       0.17806641      -0.33405408
H       -1.88142860       0.12937707       0.91835875
H       -2.47644208      -1.37028441       0.21138455
H       -1.46517659      -0.75694207      -2.01001125
H       -0.56134260       1.62540044      -0.59535232
H        0.93258838      -0.71078214      -1.52627457
H        0.89039680      -1.27156916       0.99840237
H        3.08167538      -0.53856428       1.31389204
H        3.17800738       0.95707483       0.23688908
H        0.10535147       0.80985606       1.24627387
