10
Frame=0 idx=010287 GeodesicLength=0.0 rxn_smarts="[N:1](=[C:2]=[C:7]([C:6](=[O:5])[H:9])[H:10])[H:8].[N:3]#[N:4]>>[N:1](=[C:2](\[N:3]=[N:4]/[H:9])[C:7](=[C:6]=[O:5])[H:10])\[H:8]"
N        2.17736232      -0.20749556      -0.07705787
C        0.94260392      -0.09023244      -0.07466524
N        0.39198139       1.38277961      -0.65852126
N       -0.69744532       1.71786522      -0.55657733
O       -2.50448254      -0.77849124       0.88243203
C       -1.44292765      -0.45096637       0.46821341
C       -0.13979780      -0.86993281       0.32785858
H        2.67231204       0.52278145      -0.57433090
H       -1.43608128       0.70939046      -0.10031487
H        0.03647491      -1.93569832       0.36296346
10
Frame=1 idx=010287 GeodesicLength=0.08396256213880741 rxn_smarts="[N:1](=[C:2]=[C:7]([C:6](=[O:5])[H:9])[H:10])[H:8].[N:3]#[N:4]>>[N:1](=[C:2](\[N:3]=[N:4]/[H:9])[C:7](=[C:6]=[O:5])[H:10])\[H:8]"
N        2.17656457      -0.20537059      -0.04944512
C        0.94214860      -0.08924390      -0.05728732
N        0.39343967       1.40267495      -0.65353948
N       -0.70290698       1.72492404      -0.57412538
O       -2.47068597      -0.74120557       0.98011205
C       -1.44126795      -0.45904162       0.46507946
C       -0.14118140      -0.88505706       0.30965677
H        2.67520997       0.52339697      -0.54565951
H       -1.45873192       0.68144887      -0.17155847
H        0.02741140      -1.95252608       0.29676701
10
Frame=2 idx=010287 GeodesicLength=0.16825307976330678 rxn_smarts="[N:1](=[C:2]=[C:7]([C:6](=[O:5])[H:9])[H:10])[H:8].[N:3]#[N:4]>>[N:1](=[C:2](\[N:3]=[N:4]/[H:9])[C:7](=[C:6]=[O:5])[H:10])\[H:8]"
N        2.17461049      -0.20439085      -0.02493443
C        0.94054388      -0.09060261      -0.04361265
N        0.39324716       1.42202409      -0.64838279
N       -0.70975821       1.73027300      -0.59355885
O       -2.43412482      -0.70324968       1.06233076
C       -1.43997205      -0.46828770       0.46229450
C       -0.14217987      -0.89995928       0.29458650
H        2.67656141       0.52454159      -0.51796864
H       -1.47817505       0.65675321      -0.22856787
H        0.01924706      -1.96710176       0.23781348
10
Frame=3 idx=010287 GeodesicLength=0.2528778586204546 rxn_smarts="[N:1](=[C:2]=[C:7]([C:6](=[O:5])[H:9])[H:10])[H:8].[N:3]#[N:4]>>[N:1](=[C:2](\[N:3]=[N:4]/[H:9])[C:7](=[C:6]=[O:5])[H:10])\[H:8]"
N        2.17233994      -0.20350677      -0.00142384
C        0.93865779      -0.09207722      -0.02882824
N        0.39209888       1.44139859      -0.64224862
N       -0.71694931       1.73518246      -0.61374829
O       -2.39764292      -0.66801517       1.13012435
C       -1.43861429      -0.47750165       0.46165283
C       -0.14253777      -0.91395035       0.28341582
H        2.67645110       0.52296941      -0.49629708
H       -1.49596081       0.63438095      -0.27635281
H        0.01215740      -1.97888024       0.18370588
10
Frame=4 idx=010287 GeodesicLength=0.3374508078668336 rxn_smarts="[N:1](=[C:2]=[C:7]([C:6](=[O:5])[H:9])[H:10])[H:8].[N:3]#[N:4]>>[N:1](=[C:2](\[N:3]=[N:4]/[H:9])[C:7](=[C:6]=[O:5])[H:10])\[H:8]"
N        2.16957230      -0.20404964       0.01861784
C        0.93633373      -0.09535305      -0.01722447
N        0.39009440       1.46030394      -0.63681815
N       -0.72393201       1.73994874      -0.63348496
O       -2.36085498      -0.63329963       1.18891252
C       -1.43681471      -0.48652633       0.46317060
C       -0.14261951      -0.92790310       0.27425579
H        2.67576380       0.52307482      -0.47354685
H       -1.51261573       0.61307464      -0.31813347
H        0.00507271      -1.98927039       0.13425115
10
Frame=5 idx=010287 GeodesicLength=0.422521908829049 rxn_smarts="[N:1](=[C:2]=[C:7]([C:6](=[O:5])[H:9])[H:10])[H:8].[N:3]#[N:4]>>[N:1](=[C:2](\[N:3]=[N:4]/[H:9])[C:7](=[C:6]=[O:5])[H:10])\[H:8]"
N        2.16639406      -0.20588144       0.03647193
C        0.93365144      -0.10068203      -0.00962860
N        0.38730329       1.47803431      -0.63428208
N       -0.73079594       1.74472329      -0.65315655
O       -2.32247055      -0.59839557       1.24301548
C       -1.43456588      -0.49525838       0.46678377
C       -0.14274717      -0.94230635       0.26553043
H        2.67509356       0.52591794      -0.44653565
H       -1.52901686       0.59278137      -0.35501667
H       -0.00284596      -1.99893314       0.08681793
10
Frame=6 idx=010287 GeodesicLength=0.5074819802865862 rxn_smarts="[N:1](=[C:2]=[C:7]([C:6](=[O:5])[H:9])[H:10])[H:8].[N:3]#[N:4]>>[N:1](=[C:2](\[N:3]=[N:4]/[H:9])[C:7](=[C:6]=[O:5])[H:10])\[H:8]"
N        2.16282808      -0.20784033       0.05436715
C        0.93073388      -0.10678827      -0.00350100
N        0.38406117       1.49478055      -0.63464547
N       -0.73731584       1.75000506      -0.67185135
O       -2.28280708      -0.56491398       1.29219656
C       -1.43201575      -0.50369372       0.47162422
C       -0.14297082      -0.95667263       0.25713882
H        2.67400505       0.52883019      -0.41889549
H       -1.54548756       0.57367631      -0.38782006
H       -0.01103113      -2.00738317       0.04138662
10
Frame=7 idx=010287 GeodesicLength=0.5925959893013267 rxn_smarts="[N:1](=[C:2]=[C:7]([C:6](=[O:5])[H:9])[H:10])[H:8].[N:3]#[N:4]>>[N:1](=[C:2](\[N:3]=[N:4]/[H:9])[C:7](=[C:6]=[O:5])[H:10])\[H:8]"
N        2.15937552      -0.21000682       0.07096831
C        0.92795087      -0.11291748       0.00346299
N        0.38058781       1.51241433      -0.63314310
N       -0.74367068       1.75575642      -0.68928392
O       -2.24429911      -0.53229195       1.33483928
C       -1.42932940      -0.51234107       0.47705206
C       -0.14273460      -0.97080682       0.25091676
H        2.67214746       0.53041865      -0.39506357
H       -1.56144520       0.55427180      -0.41904496
H       -0.01858267      -2.01449706      -0.00070386
10
Frame=8 idx=010287 GeodesicLength=0.6778511441391198 rxn_smarts="[N:1](=[C:2]=[C:7]([C:6](=[O:5])[H:9])[H:10])[H:8].[N:3]#[N:4]>>[N:1](=[C:2](\[N:3]=[N:4]/[H:9])[C:7](=[C:6]=[O:5])[H:10])\[H:8]"
N        2.15580428      -0.21237140       0.08720210
C        0.92514588      -0.11960205       0.00960212
N        0.37690815       1.52987128      -0.63287027
N       -0.74978643       1.76212194      -0.70574441
O       -2.20559529      -0.50075182       1.37346949
C       -1.42635745      -0.52081252       0.48336820
C       -0.14243548      -0.98496520       0.24526454
H        2.66997799       0.53190486      -0.37152911
H       -1.57747827       0.53532057      -0.44799856
H       -0.02618338      -2.02071567      -0.04076409
10
Frame=9 idx=010287 GeodesicLength=0.7632391556419587 rxn_smarts="[N:1](=[C:2]=[C:7]([C:6](=[O:5])[H:9])[H:10])[H:8].[N:3]#[N:4]>>[N:1](=[C:2](\[N:3]=[N:4]/[H:9])[C:7](=[C:6]=[O:5])[H:10])\[H:8]"
N        2.15220955      -0.21519457       0.10235313
C        0.92238931      -0.12692622       0.01498479
N        0.37297633       1.54774594      -0.63196708
N       -0.75580303       1.76862418      -0.72198827
O       -2.16666776      -0.46918152       1.40860953
C       -1.42305020      -0.52930649       0.49054644
C       -0.14195755      -0.99930267       0.24051325
H        2.66740583       0.53364308      -0.34816797
H       -1.59344872       0.51600629      -0.47559281
H       -0.03405376      -2.02610802      -0.07929101
10
Frame=10 idx=010287 GeodesicLength=0.8487393258645837 rxn_smarts="[N:1](=[C:2]=[C:7]([C:6](=[O:5])[H:9])[H:10])[H:8].[N:3]#[N:4]>>[N:1](=[C:2](\[N:3]=[N:4]/[H:9])[C:7](=[C:6]=[O:5])[H:10])\[H:8]"
N        2.14851048      -0.21835624       0.11709609
C        0.91966611      -0.13494702       0.01925488
N        0.36889534       1.56545189      -0.63229018
N       -0.76164824       1.77545028      -0.73789485
O       -2.12704893      -0.43810856       1.44115821
C       -1.41930890      -0.53758935       0.49872463
C       -0.14145061      -1.01383281       0.23606628
H        2.66457045       0.53587370      -0.32378137
H       -1.60972315       0.49676169      -0.50142799
H       -0.04246255      -2.03070359      -0.11690569
10
Frame=11 idx=010287 GeodesicLength=0.9344152537589903 rxn_smarts="[N:1](=[C:2]=[C:7]([C:6](=[O:5])[H:9])[H:10])[H:8].[N:3]#[N:4]>>[N:1](=[C:2](\[N:3]=[N:4]/[H:9])[C:7](=[C:6]=[O:5])[H:10])\[H:8]"
N        2.14475960      -0.22201023       0.13097059
C        0.91702327      -0.14376031       0.02228756
N        0.36459736       1.58347713      -0.63243361
N       -0.76739221       1.78235823      -0.75395107
O       -2.08662966      -0.40683303       1.47128761
C       -1.41510578      -0.54580049       0.50781078
C       -0.14086444      -1.02867161       0.23200125
H        2.66135966       0.53875723      -0.29834321
H       -1.62624191       0.47712217      -0.52604367
H       -0.05150589      -2.03463909      -0.15358622
10
Frame=12 idx=010287 GeodesicLength=1.0203024168841799 rxn_smarts="[N:1](=[C:2]=[C:7]([C:6](=[O:5])[H:9])[H:10])[H:8].[N:3]#[N:4]>>[N:1](=[C:2](\[N:3]=[N:4]/[H:9])[C:7](=[C:6]=[O:5])[H:10])\[H:8]"
N        2.14090826      -0.22624676       0.14400545
C        0.91447530      -0.15354576       0.02354805
N        0.36009009       1.60161877      -0.63303435
N       -0.77303801       1.78931796      -0.77034390
O       -2.04483169      -0.37524336       1.49956747
C       -1.41031768      -0.55385252       0.51791904
C       -0.14027466      -1.04390545       0.22795145
H        2.65773225       0.54273057      -0.27062495
H       -1.64324329       0.45715034      -0.54929610
H       -0.06150057      -2.03802378      -0.18969217
10
Frame=13 idx=010287 GeodesicLength=1.1063463134226987 rxn_smarts="[N:1](=[C:2]=[C:7]([C:6](=[O:5])[H:9])[H:10])[H:8].[N:3]#[N:4]>>[N:1](=[C:2](\[N:3]=[N:4]/[H:9])[C:7](=[C:6]=[O:5])[H:10])\[H:8]"
N        2.13696744      -0.23107885       0.15621863
C        0.91206699      -0.16424281       0.02308447
N        0.35551328       1.61961033      -0.63504380
N       -0.77854010       1.79652110      -0.78676096
O       -2.00159137      -0.34372834       1.52611424
C       -1.40487021      -0.56165296       0.52902924
C       -0.13970494      -1.05947588       0.22379199
H        2.65357894       0.54785930      -0.24015588
H       -1.66089174       0.43702416      -0.57103855
H       -0.07252830      -2.04083606      -0.22523938
10
Frame=14 idx=010287 GeodesicLength=1.192542124432384 rxn_smarts="[N:1](=[C:2]=[C:7]([C:6](=[O:5])[H:9])[H:10])[H:8].[N:3]#[N:4]>>[N:1](=[C:2](\[N:3]=[N:4]/[H:9])[C:7](=[C:6]=[O:5])[H:10])\[H:8]"
N        2.13306825      -0.23617077       0.16763640
C        0.90984955      -0.17546408       0.02184598
N        0.35075410       1.63845299      -0.63580673
N       -0.78383399       1.80404449      -0.80316434
O       -1.95803016      -0.31221508       1.54989570
C       -1.39894611      -0.56944599       0.54063325
C       -0.13898737      -1.07524876       0.22005592
H        2.64879833       0.55290997      -0.20986840
H       -1.67878369       0.41633768      -0.59211747
H       -0.08388891      -2.04320045      -0.25911032
10
Frame=15 idx=010287 GeodesicLength=1.2788903711844468 rxn_smarts="[N:1](=[C:2]=[C:7]([C:6](=[O:5])[H:9])[H:10])[H:8].[N:3]#[N:4]>>[N:1](=[C:2](\[N:3]=[N:4]/[H:9])[C:7](=[C:6]=[O:5])[H:10])\[H:8]"
N        2.12914898      -0.24177349       0.17812653
C        0.90784276      -0.18744845       0.01910099
N        0.34602322       1.65738228      -0.63771253
N       -0.78893400       1.81208254      -0.81933619
O       -1.91333449      -0.28103261       1.57176633
C       -1.39235058      -0.57699068       0.55296163
C       -0.13825728      -1.09126124       0.21618480
H        2.64327443       0.55877942      -0.17728537
H       -1.69736011       0.39550772      -0.61195767
H       -0.09605292      -2.04524549      -0.29184852
10
Frame=16 idx=010287 GeodesicLength=1.3653156169997018 rxn_smarts="[N:1](=[C:2]=[C:7]([C:6](=[O:5])[H:9])[H:10])[H:8].[N:3]#[N:4]>>[N:1](=[C:2](\[N:3]=[N:4]/[H:9])[C:7](=[C:6]=[O:5])[H:10])\[H:8]"
N        2.12533648      -0.24747539       0.18785711
C        0.90605611      -0.19971799       0.01603390
N        0.34117885       1.67740178      -0.63804314
N       -0.79370154       1.82074735      -0.83515361
O       -1.86898185      -0.25023050       1.59063560
C       -1.38533803      -0.58452496       0.56549611
C       -0.13734443      -1.10733685       0.21284382
H        2.63710151       0.56408076      -0.14589021
H       -1.71611167       0.37413893      -0.63143693
H       -0.10819544      -2.04708313      -0.32234266
