15
Frame=0 idx=001341 GeodesicLength=0.0 rxn_smarts="[C:1]1([H:7])([H:8])[C:2]([H:9])([H:10])[C:3]1([N:4]1[C:5]([H:12])([H:13])[C:6]1([H:14])[H:15])[H:11]>>[C:1]1([H:7])([H:8])[C:2]([H:9])([H:10])[C:3]1([N+:4]([C-:5]([H:12])[H:13])=[C:6]([H:14])[H:15])[H:11]"
C       -1.52326470       0.83832058      -0.27126409
C       -1.66174052      -0.58602183       0.17845122
C       -0.51423753       0.23406626       0.66515919
N        0.79853693      -0.06358897       0.18710181
C        1.27904342      -1.07919264      -0.57315431
C        1.92323823       0.68100243       0.19855498
H       -1.20186124       1.00089807      -1.29196611
H       -2.20301764       1.58144867       0.12324902
H       -2.43381996      -0.83840684       0.89192494
H       -1.44473942      -1.35631583      -0.54970147
H       -0.52936475       0.56289518       1.69682727
H        1.21395370      -2.11205547      -0.23167653
H        1.58674146      -0.88038580      -1.58899332
H        1.91131134       1.72035236      -0.13273634
H        2.79922063       0.29698378       0.69822380
15
Frame=1 idx=001341 GeodesicLength=0.050148627746469464 rxn_smarts="[C:1]1([H:7])([H:8])[C:2]([H:9])([H:10])[C:3]1([N:4]1[C:5]([H:12])([H:13])[C:6]1([H:14])[H:15])[H:11]>>[C:1]1([H:7])([H:8])[C:2]([H:9])([H:10])[C:3]1([N+:4]([C-:5]([H:12])[H:13])=[C:6]([H:14])[H:15])[H:11]"
C       -1.53571062       0.85223351      -0.25372928
C       -1.66479874      -0.58339422       0.16313332
C       -0.51274943       0.22832762       0.65255888
N        0.78908652      -0.04491807       0.13698555
C        1.29828739      -1.09100459      -0.55839694
C        1.92287713       0.68401994       0.17502359
H       -1.23293280       1.04084250      -1.27557643
H       -2.21215810       1.58319676       0.16837623
H       -2.42684125      -0.85442510       0.88064164
H       -1.45637035      -1.33580197      -0.58584193
H       -0.51002895       0.52815903       1.69315594
H        1.20361382      -2.10724964      -0.17810542
H        1.63845680      -0.93580074      -1.57146583
H        1.91673488       1.72178742      -0.15903827
H        2.78253371       0.31402756       0.71227895
15
Frame=2 idx=001341 GeodesicLength=0.09917662777323491 rxn_smarts="[C:1]1([H:7])([H:8])[C:2]([H:9])([H:10])[C:3]1([N:4]1[C:5]([H:12])([H:13])[C:6]1([H:14])[H:15])[H:11]>>[C:1]1([H:7])([H:8])[C:2]([H:9])([H:10])[C:3]1([N+:4]([C-:5]([H:12])[H:13])=[C:6]([H:14])[H:15])[H:11]"
C       -1.54725057       0.86585704      -0.23550081
C       -1.66786282      -0.58038998       0.14717218
C       -0.51012653       0.22185787       0.63837620
N        0.77945484      -0.02792742       0.08453421
C        1.31691555      -1.10216237      -0.54195777
C        1.92105826       0.68664923       0.15147327
H       -1.26381504       1.08105361      -1.25756455
H       -2.21893351       1.58416398       0.21511076
H       -2.41914499      -0.87022673       0.86873971
H       -1.46896229      -1.31422876      -0.62246962
H       -0.48884752       0.49174344       1.68697284
H        1.19262526      -2.10002485      -0.12504895
H        1.69053345      -0.99153263      -1.54907817
H        1.92115152       1.72230956      -0.18690263
H        2.76320439       0.33285801       0.72614333
15
Frame=3 idx=001341 GeodesicLength=0.1464594152280639 rxn_smarts="[C:1]1([H:7])([H:8])[C:2]([H:9])([H:10])[C:3]1([N:4]1[C:5]([H:12])([H:13])[C:6]1([H:14])[H:15])[H:11]>>[C:1]1([H:7])([H:8])[C:2]([H:9])([H:10])[C:3]1([N+:4]([C-:5]([H:12])[H:13])=[C:6]([H:14])[H:15])[H:11]"
C       -1.55697102       0.87876199      -0.21717034
C       -1.67103194      -0.57708662       0.13098795
C       -0.50652687       0.21450275       0.62337413
N        0.77014110      -0.01381998       0.03246436
C        1.33466654      -1.11224663      -0.52417814
C        1.91765018       0.68885050       0.12845601
H       -1.29232614       1.12023192      -1.23832941
H       -2.22248192       1.58450285       0.26168270
H       -2.41158604      -0.88507577       0.85619237
H       -1.48243051      -1.29227837      -0.65850110
H       -0.46678229       0.45442388       1.67877581
H        1.18181675      -2.09088794      -0.07405703
H        1.74023502      -1.04542447      -1.52277727
H        1.92330528       1.72194549      -0.21552214
H        2.74232186       0.35360042       0.73860211
15
Frame=4 idx=001341 GeodesicLength=0.1923169906064725 rxn_smarts="[C:1]1([H:7])([H:8])[C:2]([H:9])([H:10])[C:3]1([N:4]1[C:5]([H:12])([H:13])[C:6]1([H:14])[H:15])[H:11]>>[C:1]1([H:7])([H:8])[C:2]([H:9])([H:10])[C:3]1([N+:4]([C-:5]([H:12])[H:13])=[C:6]([H:14])[H:15])[H:11]"
C       -1.56431758       0.89092423      -0.19884984
C       -1.67438879      -0.57347827       0.11461702
C       -0.50231207       0.20598924       0.60830813
N        0.76131867      -0.00338423      -0.01723221
C        1.35154907      -1.12123832      -0.50507516
C        1.91245776       0.69080360       0.10600622
H       -1.31680650       1.15828680      -1.21779473
H       -2.22246008       1.58438693       0.30742012
H       -2.40493352      -0.89870436       0.84252744
H       -1.49650227      -1.27001588      -0.69376439
H       -0.44487767       0.41610135       1.66934228
H        1.17166522      -2.08037086      -0.02535163
H        1.78664990      -1.09657561      -1.49313683
H        1.92206607       1.72067120      -0.24535740
H        2.72089180       0.37660418       0.74834097
15
Frame=5 idx=001341 GeodesicLength=0.23688416121307493 rxn_smarts="[C:1]1([H:7])([H:8])[C:2]([H:9])([H:10])[C:3]1([N:4]1[C:5]([H:12])([H:13])[C:6]1([H:14])[H:15])[H:11]>>[C:1]1([H:7])([H:8])[C:2]([H:9])([H:10])[C:3]1([N+:4]([C-:5]([H:12])[H:13])=[C:6]([H:14])[H:15])[H:11]"
C       -1.56928877       0.90205019      -0.18096706
C       -1.67797086      -0.56964367       0.09850425
C       -0.49773119       0.19657171       0.59361281
N        0.75312598       0.00349544      -0.06358018
C        1.36761654      -1.12896951      -0.48525285
C        1.90594002       0.69241811       0.08436940
H       -1.33689314       1.19427111      -1.19658618
H       -2.21911713       1.58382986       0.35126879
H       -2.39947436      -0.91079543       0.82820763
H       -1.51105694      -1.24795462      -0.72749439
H       -0.42364728       0.37778857       1.65908382
H        1.16249919      -2.06901375       0.02017664
H        1.82891971      -1.14392172      -1.46158871
H        1.91764955       1.71865692      -0.27541606
H        2.69942867       0.40121680       0.75566206
15
Frame=6 idx=001341 GeodesicLength=0.2807962816998689 rxn_smarts="[C:1]1([H:7])([H:8])[C:2]([H:9])([H:10])[C:3]1([N:4]1[C:5]([H:12])([H:13])[C:6]1([H:14])[H:15])[H:11]>>[C:1]1([H:7])([H:8])[C:2]([H:9])([H:10])[C:3]1([N+:4]([C-:5]([H:12])[H:13])=[C:6]([H:14])[H:15])[H:11]"
C       -1.57215599       0.91232201      -0.16341994
C       -1.68185676      -0.56558236       0.08270040
C       -0.49307395       0.18625447       0.57942733
N        0.74538929       0.00701446      -0.10661548
C        1.38302129      -1.13555302      -0.46493141
C        1.89821938       0.69376828       0.06346312
H       -1.35274758       1.22855242      -1.17465416
H       -2.21299347       1.58292873       0.39337220
H       -2.39540902      -0.92144466       0.81324610
H       -1.52601682      -1.22599068      -0.75976383
H       -0.40348000       0.33937744       1.64825972
H        1.15442532      -2.05703420       0.06289263
H        1.86812166      -1.18764729      -1.42841087
H        1.91031604       1.71586675      -0.30600793
H        2.67824061       0.42716765       0.76044211
15
Frame=7 idx=001341 GeodesicLength=0.32431758703070257 rxn_smarts="[C:1]1([H:7])([H:8])[C:2]([H:9])([H:10])[C:3]1([N:4]1[C:5]([H:12])([H:13])[C:6]1([H:14])[H:15])[H:11]>>[C:1]1([H:7])([H:8])[C:2]([H:9])([H:10])[C:3]1([N+:4]([C-:5]([H:12])[H:13])=[C:6]([H:14])[H:15])[H:11]"
C       -1.57320145       0.92178768      -0.14616436
C       -1.68602019      -0.56127812       0.06715530
C       -0.48840270       0.17519276       0.56578427
N        0.73815843       0.00769058      -0.14662270
C        1.39790553      -1.14111419      -0.44423333
C        1.88955933       0.69481873       0.04309831
H       -1.36481846       1.26129361      -1.15210594
H       -2.20452199       1.58160044       0.43392802
H       -2.39265046      -0.93083940       0.79768227
H       -1.54131717      -1.20396107      -0.79082305
H       -0.38434867       0.30104414       1.63702845
H        1.14768296      -2.04467653       0.10327541
H        1.90436685      -1.22811222      -1.39410287
H        1.90048674       1.71231231      -0.33703077
H        2.65712124       0.45424128       0.76313098
15
Frame=8 idx=001341 GeodesicLength=0.36766493072739265 rxn_smarts="[C:1]1([H:7])([H:8])[C:2]([H:9])([H:10])[C:3]1([N:4]1[C:5]([H:12])([H:13])[C:6]1([H:14])[H:15])[H:11]>>[C:1]1([H:7])([H:8])[C:2]([H:9])([H:10])[C:3]1([N+:4]([C-:5]([H:12])[H:13])=[C:6]([H:14])[H:15])[H:11]"
C       -1.57267777       0.93044435      -0.12930235
C       -1.69047164      -0.55679878       0.05212330
C       -0.48384400       0.16352993       0.55263133
N        0.73122829       0.00588622      -0.18398814
C        1.41227393      -1.14560746      -0.42356580
C        1.88015036       0.69556342       0.02343060
H       -1.37352138       1.29231521      -1.12922992
H       -2.19408416       1.57987719       0.47279007
H       -2.39111952      -0.93896897       0.78197452
H       -1.55700520      -1.18206441      -0.82037868
H       -0.36633462       0.26310473       1.62542496
H        1.14197581      -2.03199195       0.14114926
H        1.93854150      -1.26522674      -1.35904154
H        1.88876111       1.70805571      -0.36809203
H        2.63612728       0.48188155       0.76407440
15
Frame=9 idx=001341 GeodesicLength=0.4110169259718339 rxn_smarts="[C:1]1([H:7])([H:8])[C:2]([H:9])([H:10])[C:3]1([N:4]1[C:5]([H:12])([H:13])[C:6]1([H:14])[H:15])[H:11]>>[C:1]1([H:7])([H:8])[C:2]([H:9])([H:10])[C:3]1([N+:4]([C-:5]([H:12])[H:13])=[C:6]([H:14])[H:15])[H:11]"
C       -1.57079912       0.93838511      -0.11270760
C       -1.69519563      -0.55211011       0.03746924
C       -0.47941370       0.15130910       0.53992603
N        0.72461573       0.00191859      -0.21906616
C        1.42625610      -1.14916947      -0.40289348
C        1.87009800       0.69600521       0.00425972
H       -1.37921668       1.32192983      -1.10594975
H       -2.18197018       1.57771192       0.51031303
H       -2.39072487      -0.94601528       0.76603076
H       -1.57305312      -1.16006478      -0.84877890
H       -0.34935702       0.22548021       1.61352356
H        1.13741029      -2.01908711       0.17704495
H        1.97092752      -1.29944299      -1.32331230
H        1.87537823       1.70306113      -0.39935957
H        2.61504444       0.51008865       0.76350046
15
Frame=10 idx=001341 GeodesicLength=0.45440567135596144 rxn_smarts="[C:1]1([H:7])([H:8])[C:2]([H:9])([H:10])[C:3]1([N:4]1[C:5]([H:12])([H:13])[C:6]1([H:14])[H:15])[H:11]>>[C:1]1([H:7])([H:8])[C:2]([H:9])([H:10])[C:3]1([N+:4]([C-:5]([H:12])[H:13])=[C:6]([H:14])[H:15])[H:11]"
C       -1.56773162       0.94560717      -0.09646665
C       -1.70015849      -0.54725824       0.02332946
C       -0.47514006       0.13864388       0.52761558
N        0.71827215      -0.00390511      -0.25214249
C        1.43985610      -1.15179634      -0.38245939
C        1.85953423       0.69612654      -0.01432850
H       -1.38222651       1.35000958      -1.08250734
H       -2.16842599       1.57513787       0.54640577
H       -2.39134749      -0.95199657       0.75014892
H       -1.58945561      -1.13807824      -0.87588464
H       -0.33338775       0.18839989       1.60135495
H        1.13382610      -2.00601155       0.21091301
H        2.00185819      -1.33078847      -1.28721462
H        1.86071606       1.69739330      -0.43045869
H        2.59381069       0.53851629       0.76169464
15
Frame=11 idx=001341 GeodesicLength=0.49783601387304854 rxn_smarts="[C:1]1([H:7])([H:8])[C:2]([H:9])([H:10])[C:3]1([N:4]1[C:5]([H:12])([H:13])[C:6]1([H:14])[H:15])[H:11]>>[C:1]1([H:7])([H:8])[C:2]([H:9])([H:10])[C:3]1([N+:4]([C-:5]([H:12])[H:13])=[C:6]([H:14])[H:15])[H:11]"
C       -1.56361062       0.95211079      -0.08066289
C       -1.70530386      -0.54227872       0.00981296
C       -0.47103693       0.12563575       0.51566299
N        0.71216562      -0.01131325      -0.28341546
C        1.45308917      -1.15349652      -0.36244201
C        1.84855914       0.69591174      -0.03224794
H       -1.38282369       1.37643339      -1.05911654
H       -2.15366475       1.57219781       0.58096436
H       -2.39284998      -0.95691174       0.73456539
H       -1.60616163      -1.11620967      -0.90156921
H       -0.31839171       0.15206554       1.58895462
H        1.13107587      -1.99283049       0.24268150
H        2.03152752      -1.35928220      -1.25102592
H        1.84505518       1.69110112      -0.46107023
H        2.57237068       0.56686643       0.75890839
15
Frame=12 idx=001341 GeodesicLength=0.541257858103817 rxn_smarts="[C:1]1([H:7])([H:8])[C:2]([H:9])([H:10])[C:3]1([N:4]1[C:5]([H:12])([H:13])[C:6]1([H:14])[H:15])[H:11]>>[C:1]1([H:7])([H:8])[C:2]([H:9])([H:10])[C:3]1([N+:4]([C-:5]([H:12])[H:13])=[C:6]([H:14])[H:15])[H:11]"
C       -1.55856677       0.95790933      -0.06537714
C       -1.71060178      -0.53721725      -0.00301202
C       -0.46710602       0.11237047       0.50404928
N        0.70630932      -0.02005011      -0.31305117
C        1.46598020      -1.15429986      -0.34295854
C        1.83729982       0.69537022      -0.04944159
H       -1.38126253       1.40114187      -1.03599986
H       -2.13788441       1.56894446       0.61391686
H       -2.39514187      -0.96080872       0.71947306
H       -1.62313998      -1.09455451      -0.92577890
H       -0.30431350       0.11660905       1.57640049
H        1.12903809      -1.97962398       0.27236285
H        2.06000625      -1.38500050      -1.21503125
H        1.82865611       1.68428266      -0.49092399
H        2.55072704       0.59492687       0.75537191
15
Frame=13 idx=001341 GeodesicLength=0.5846384820830517 rxn_smarts="[C:1]1([H:7])([H:8])[C:2]([H:9])([H:10])[C:3]1([N:4]1[C:5]([H:12])([H:13])[C:6]1([H:14])[H:15])[H:11]>>[C:1]1([H:7])([H:8])[C:2]([H:9])([H:10])[C:3]1([N+:4]([C-:5]([H:12])[H:13])=[C:6]([H:14])[H:15])[H:11]"
C       -1.55266960       0.96300109      -0.05069913
C       -1.71594844      -0.53212201      -0.01508647
C       -0.46332833       0.09894900       0.49275273
N        0.70071580      -0.02986672      -0.34116786
C        1.47847093      -1.15422616      -0.32415215
C        1.82579812       0.69450696      -0.06580935
H       -1.37775319       1.42400596      -1.01337938
H       -2.12122592       1.56544168       0.64514702
H       -2.39804939      -0.96369632       0.70503157
H       -1.64026601      -1.07325398      -0.94844014
H       -0.29108809       0.08221949       1.56373776
H        1.12759061      -1.96639664       0.29995624
H        2.08721005      -1.40805993      -1.17951541
H        1.81164049       1.67705339      -0.51958262
H        2.52890297       0.62244420       0.75120720
15
Frame=14 idx=001341 GeodesicLength=0.6280481538817635 rxn_smarts="[C:1]1([H:7])([H:8])[C:2]([H:9])([H:10])[C:3]1([N:4]1[C:5]([H:12])([H:13])[C:6]1([H:14])[H:15])[H:11]>>[C:1]1([H:7])([H:8])[C:2]([H:9])([H:10])[C:3]1([N+:4]([C-:5]([H:12])[H:13])=[C:6]([H:14])[H:15])[H:11]"
C       -1.54601968       0.96748926      -0.03650483
C       -1.72138753      -0.52697543      -0.02653960
C       -0.45972995       0.08532580       0.48175036
N        0.69534869      -0.04070061      -0.36793899
C        1.49065954      -1.15338845      -0.30588773
C        1.81409648       0.69337893      -0.08152777
H       -1.37242390       1.44534626      -0.99112460
H       -2.10377644       1.56169086       0.67498184
H       -2.40158729      -0.96573076       0.69110944
H       -1.65756835      -1.05211230      -0.96983392
H       -0.27868824       0.04865261       1.55103953
H        1.12671742      -1.95323317       0.32580565
H        2.11346505      -1.42872909      -1.14435857
H        1.79411073       1.66939592      -0.54748450
H        2.50678346       0.64959018       0.74651370
15
Frame=15 idx=001341 GeodesicLength=0.6716463195650433 rxn_smarts="[C:1]1([H:7])([H:8])[C:2]([H:9])([H:10])[C:3]1([N:4]1[C:5]([H:12])([H:13])[C:6]1([H:14])[H:15])[H:11]>>[C:1]1([H:7])([H:8])[C:2]([H:9])([H:10])[C:3]1([N+:4]([C-:5]([H:12])[H:13])=[C:6]([H:14])[H:15])[H:11]"
C       -1.53868047       0.97144536      -0.02263495
C       -1.72694831      -0.52171704      -0.03755491
C       -0.45632265       0.07142463       0.47100103
N        0.69019180      -0.05253526      -0.39352079
C        1.50260506      -1.15187224      -0.28802132
C        1.80214986       0.69200329      -0.09680326
H       -1.36534224       1.46549253      -0.96899509
H       -2.08558803       1.55761678       0.70377175
H       -2.40577619      -0.96702078       0.67745891
H       -1.67506301      -1.03084277      -0.99028698
H       -0.26706372       0.01565082       1.53831804
H        1.12651739      -1.94009042       0.35037296
H        2.13902880      -1.44733866      -1.10930081
H        1.77597837       1.66124426      -0.57495875
H        2.48431334       0.67653950       0.74115416
15
Frame=16 idx=001341 GeodesicLength=0.7155652954485809 rxn_smarts="[C:1]1([H:7])([H:8])[C:2]([H:9])([H:10])[C:3]1([N:4]1[C:5]([H:12])([H:13])[C:6]1([H:14])[H:15])[H:11]>>[C:1]1([H:7])([H:8])[C:2]([H:9])([H:10])[C:3]1([N+:4]([C-:5]([H:12])[H:13])=[C:6]([H:14])[H:15])[H:11]"
C       -1.53061123       0.97492262      -0.00901777
C       -1.73247404      -0.51631679      -0.04817044
C       -0.45308509       0.05725604       0.46044873
N        0.68517389      -0.06533236      -0.41799901
C        1.51425593      -1.14974052      -0.27052640
C        1.78981310       0.69037529      -0.11170299
H       -1.35652629       1.48451778      -0.94686347
H       -2.06660266       1.55323810       0.73164187
H       -2.41036459      -0.96757066       0.66400831
H       -1.69254890      -1.00935681      -1.00983031
H       -0.25618591      -0.01682505       1.52549081
H        1.12687745      -1.92700841       0.37368808
H        2.16402847      -1.46399399      -1.07421112
H        1.75715349       1.65252105      -0.60214106
H        2.46109638       0.70331373       0.73518476
