14
Frame=0 idx=002827 GeodesicLength=0.0 rxn_smarts="[C:1]([C:2]1([C:5](=[O:6])[H:14])[C:3]([H:10])([H:11])[C:4]1([H:12])[H:13])([H:7])([H:8])[H:9]>>[C:1]([C:2]1([C:5][O:6][H:14])[C:3]([H:10])([H:11])[C:4]1([H:12])[H:13])([H:7])([H:8])[H:9]"
C        1.35608310       0.19035582       0.58581222
C       -0.01347188       0.08200645      -0.03520554
C       -0.46896969      -1.22382095      -0.66491834
C       -1.08204176      -0.78721415       0.60737474
C       -0.54735197       1.26805375      -0.69616420
O        0.18487416       2.34582487      -0.71129291
H        1.64311652      -0.75593871       1.04652894
H        2.10545555       0.44599766      -0.16487460
H        1.37797232       0.96601163       1.35280603
H       -1.05859024      -1.15961703      -1.56907394
H        0.25770239      -2.02526075      -0.64246917
H       -0.78548502      -1.28154794       1.52309629
H       -2.09789208      -0.41709577       0.58820412
H       -0.87140142       2.35224513      -1.21982366
14
Frame=1 idx=002827 GeodesicLength=0.03289138156377534 rxn_smarts="[C:1]([C:2]1([C:5](=[O:6])[H:14])[C:3]([H:10])([H:11])[C:4]1([H:12])[H:13])([H:7])([H:8])[H:9]>>[C:1]([C:2]1([C:5][O:6][H:14])[C:3]([H:10])([H:11])[C:4]1([H:12])[H:13])([H:7])([H:8])[H:9]"
C        1.35822768       0.18839699       0.58605259
C       -0.01012660       0.08094314      -0.03739688
C       -0.46770869      -1.22535570      -0.66452891
C       -1.08185591      -0.78374097       0.60568398
C       -0.53957688       1.26373212      -0.70742951
O        0.18181452       2.34521755      -0.71012934
H        1.64295372      -0.75793697       1.04820896
H        2.10919780       0.44307311      -0.16339233
H        1.37932402       0.96486892       1.35227384
H       -1.05653349      -1.16295450      -1.56941494
H        0.25736628      -2.02818032      -0.63905448
H       -0.78780706      -1.27668043       1.52300233
H       -2.09673698      -0.41095891       0.58400073
H       -0.88853842       2.35957595      -1.20787603
14
Frame=2 idx=002827 GeodesicLength=0.06577728307884592 rxn_smarts="[C:1]([C:2]1([C:5](=[O:6])[H:14])[C:3]([H:10])([H:11])[C:4]1([H:12])[H:13])([H:7])([H:8])[H:9]>>[C:1]([C:2]1([C:5][O:6][H:14])[C:3]([H:10])([H:11])[C:4]1([H:12])[H:13])([H:7])([H:8])[H:9]"
C        1.36034881       0.18643906       0.58632027
C       -0.00680953       0.07998007      -0.03948747
C       -0.46650718      -1.22668165      -0.66416225
C       -1.08162280      -0.78023459       0.60401765
C       -0.53179483       1.25961609      -0.71832508
O        0.17852125       2.34469684      -0.70868110
H        1.64278108      -0.75998340       1.04979069
H        2.11284646       0.44023576      -0.16188212
H        1.38070531       0.96363601       1.35182125
H       -1.05456809      -1.16591297      -1.56972065
H        0.25695760      -2.03087944      -0.63581083
H       -0.79003017      -1.27189931       1.52283156
H       -2.09549672      -0.40477068       0.57991264
H       -0.90533117       2.36575820      -1.19662454
14
Frame=3 idx=002827 GeodesicLength=0.09865791689987045 rxn_smarts="[C:1]([C:2]1([C:5](=[O:6])[H:14])[C:3]([H:10])([H:11])[C:4]1([H:12])[H:13])([H:7])([H:8])[H:9]>>[C:1]([C:2]1([C:5][O:6][H:14])[C:3]([H:10])([H:11])[C:4]1([H:12])[H:13])([H:7])([H:8])[H:9]"
C        1.36248595       0.18450439       0.58664048
C       -0.00352908       0.07911187      -0.04145758
C       -0.46538424      -1.22782304      -0.66385211
C       -1.08138283      -0.77673223       0.60240267
C       -0.52406269       1.25570643      -0.72879289
O        0.17506720       2.34424568      -0.70702369
H        1.64264099      -0.76205434       1.05130476
H        2.11647272       0.43749300      -0.16034780
H        1.38216218       0.96236585       1.35149863
H       -1.05273471      -1.16852068      -1.57004560
H        0.25648492      -2.03337824      -0.63280208
H       -0.79218455      -1.26724548       1.52262189
H       -2.09425097      -0.39859079       0.57598903
H       -0.92178489       2.37091756      -1.18613571
14
Frame=4 idx=002827 GeodesicLength=0.13148319252509294 rxn_smarts="[C:1]([C:2]1([C:5](=[O:6])[H:14])[C:3]([H:10])([H:11])[C:4]1([H:12])[H:13])([H:7])([H:8])[H:9]>>[C:1]([C:2]1([C:5][O:6][H:14])[C:3]([H:10])([H:11])[C:4]1([H:12])[H:13])([H:7])([H:8])[H:9]"
C        1.36462857       0.18258098       0.58700268
C       -0.00027137       0.07832812      -0.04332816
C       -0.46432174      -1.22879278      -0.66358331
C       -1.08112324      -0.77321703       0.60081753
C       -0.51634477       1.25197965      -0.73889206
O        0.17147431       2.34383049      -0.70519879
H        1.64250841      -0.76415248       1.05276002
H        2.12006584       0.43481352      -0.15878387
H        1.38368138       0.96105386       1.35126695
H       -1.05099385      -1.17080598      -1.57037665
H        0.25594850      -2.03569608      -0.62997433
H       -0.79427693      -1.26268185       1.52236132
H       -2.09296947      -0.39238931       0.57218250
H       -0.93800564       2.37514888      -1.17625382
14
Frame=5 idx=002827 GeodesicLength=0.16432722802684907 rxn_smarts="[C:1]([C:2]1([C:5](=[O:6])[H:14])[C:3]([H:10])([H:11])[C:4]1([H:12])[H:13])([H:7])([H:8])[H:9]>>[C:1]([C:2]1([C:5][O:6][H:14])[C:3]([H:10])([H:11])[C:4]1([H:12])[H:13])([H:7])([H:8])[H:9]"
C        1.36677667       0.18066095       0.58742522
C        0.00294345       0.07763567      -0.04504490
C       -0.46333723      -1.22956001      -0.66335717
C       -1.08083411      -0.76973150       0.59930971
C       -0.50870958       1.24847798      -0.74848534
O        0.16769777       2.34348581      -0.70309347
H        1.64241100      -0.76630689       1.05412657
H        2.12360354       0.43222721      -0.15718834
H        1.38527491       0.95966019       1.35118053
H       -1.04939176      -1.17269563      -1.57069791
H        0.25534906      -2.03779552      -0.62739456
H       -0.79626154      -1.25830268       1.52206474
H       -2.09165543      -0.38622841       0.56859266
H       -0.95386676       2.37847281      -1.16743775
14
Frame=6 idx=002827 GeodesicLength=0.1971535491379019 rxn_smarts="[C:1]([C:2]1([C:5](=[O:6])[H:14])[C:3]([H:10])([H:11])[C:4]1([H:12])[H:13])([H:7])([H:8])[H:9]>>[C:1]([C:2]1([C:5][O:6][H:14])[C:3]([H:10])([H:11])[C:4]1([H:12])[H:13])([H:7])([H:8])[H:9]"
C        1.36892650       0.17874340       0.58791484
C        0.00610924       0.07703224      -0.04659217
C       -0.46243346      -1.23012177      -0.66317227
C       -1.08051033      -0.76629241       0.59789123
C       -0.50117817       1.24520397      -0.75753822
O        0.16375895       2.34319538      -0.70071800
H        1.64234906      -0.76851809       1.05540570
H        2.12707783       0.42973149      -0.15555719
H        1.38694264       0.95818303       1.35124636
H       -1.04793894      -1.17418085      -1.57100199
H        0.25468944      -2.03966778      -0.62507856
H       -0.79812389      -1.25413817       1.52173304
H       -2.09030731      -0.38013757       0.56524489
H       -0.96936156       2.38096714      -1.15977767
14
Frame=7 idx=002827 GeodesicLength=0.22998627420741655 rxn_smarts="[C:1]([C:2]1([C:5](=[O:6])[H:14])[C:3]([H:10])([H:11])[C:4]1([H:12])[H:13])([H:7])([H:8])[H:9]>>[C:1]([C:2]1([C:5][O:6][H:14])[C:3]([H:10])([H:11])[C:4]1([H:12])[H:13])([H:7])([H:8])[H:9]"
C        1.37108274       0.17682261       0.58846516
C        0.00924028       0.07650408      -0.04799732
C       -0.46159299      -1.23050849      -0.66302390
C       -1.08015856      -0.76288583       0.59654380
C       -0.49371809       1.24212717      -0.76613353
O        0.15970102       2.34292971      -0.69815970
H        1.64231427      -0.77078237       1.05662116
H        2.13050984       0.42729501      -0.15389048
H        1.38868050       0.95663809       1.35143694
H       -1.04659947      -1.17531956      -1.57129899
H        0.25398017      -2.04135158      -0.62298025
H       -0.79989254      -1.25014757       1.52137156
H       -2.08892847      -0.37409024       0.56208996
H       -0.98461869       2.38276898      -1.15304441
14
Frame=8 idx=002827 GeodesicLength=0.26281867407508475 rxn_smarts="[C:1]([C:2]1([C:5](=[O:6])[H:14])[C:3]([H:10])([H:11])[C:4]1([H:12])[H:13])([H:7])([H:8])[H:9]>>[C:1]([C:2]1([C:5][O:6][H:14])[C:3]([H:10])([H:11])[C:4]1([H:12])[H:13])([H:7])([H:8])[H:9]"
C        1.37324880       0.17489568       0.58906761
C        0.01235028       0.07604003      -0.04928906
C       -0.46080197      -1.23074636      -0.66290871
C       -1.07978227      -0.75949539       0.59524722
C       -0.48629758       1.23921878      -0.77434862
O        0.15555911       2.34266484      -0.69548878
H        1.64229480      -0.77309043       1.05779687
H        2.13391717       0.42489252      -0.15218936
H        1.39048309       0.95504092       1.35172474
H       -1.04534436      -1.17616430      -1.57159716
H        0.25322455      -2.04288067      -0.62105776
H       -0.80159137      -1.24628631       1.52098123
H       -2.08751802      -0.36806123       0.55907753
H       -0.99974225       2.38397192      -1.14701577
14
Frame=9 idx=002827 GeodesicLength=0.2956513336272954 rxn_smarts="[C:1]([C:2]1([C:5](=[O:6])[H:14])[C:3]([H:10])([H:11])[C:4]1([H:12])[H:13])([H:7])([H:8])[H:9]>>[C:1]([C:2]1([C:5][O:6][H:14])[C:3]([H:10])([H:11])[C:4]1([H:12])[H:13])([H:7])([H:8])[H:9]"
C        1.37543423       0.17296170       0.58971288
C        0.01545165       0.07563169      -0.05049120
C       -0.46004929      -1.23086480      -0.66282489
C       -1.07939247      -0.75610994       0.59398772
C       -0.47888612       1.23646144      -0.78224945
O        0.15134583       2.34240581      -0.69273012
H        1.64228801      -0.77543947       1.05894748
H        2.13732544       0.42250495      -0.15046158
H        1.39235105       0.95340978       1.35208860
H       -1.04415314      -1.17676696      -1.57190286
H        0.25242810      -2.04429604      -0.61927898
H       -0.80324871      -1.24251918       1.52056776
H       -2.08608760      -0.36202781       0.55616959
H       -1.01480698       2.38464881      -1.14153494
14
Frame=10 idx=002827 GeodesicLength=0.3284649039415724 rxn_smarts="[C:1]([C:2]1([C:5](=[O:6])[H:14])[C:3]([H:10])([H:11])[C:4]1([H:12])[H:13])([H:7])([H:8])[H:9]>>[C:1]([C:2]1([C:5][O:6][H:14])[C:3]([H:10])([H:11])[C:4]1([H:12])[H:13])([H:7])([H:8])[H:9]"
C        1.37762808       0.17101272       0.59040386
C        0.01854615       0.07527595      -0.05160782
C       -0.45933077      -1.23085285      -0.66277037
C       -1.07897561      -0.75272209       0.59276056
C       -0.47148434       1.23384236      -0.78984818
O        0.14708353       2.34212753      -0.68992399
H        1.64228226      -0.77783072       1.06008022
H        2.14071912       0.42012238      -0.14869825
H        1.39427092       0.95173187       1.35252547
H       -1.04302020      -1.17711624      -1.57221439
H        0.25159182      -2.04557848      -0.61763824
H       -0.80485060      -1.23883290       1.52012943
H       -2.08461377      -0.35598177       0.55335642
H       -1.02984659       2.38480224      -1.13655473
14
Frame=11 idx=002827 GeodesicLength=0.3613029735985131 rxn_smarts="[C:1]([C:2]1([C:5](=[O:6])[H:14])[C:3]([H:10])([H:11])[C:4]1([H:12])[H:13])([H:7])([H:8])[H:9]>>[C:1]([C:2]1([C:5][O:6][H:14])[C:3]([H:10])([H:11])[C:4]1([H:12])[H:13])([H:7])([H:8])[H:9]"
C        1.37982528       0.16905253       0.59114815
C        0.02162153       0.07497302      -0.05261941
C       -0.45865329      -1.23070062      -0.66274550
C       -1.07852383      -0.74934976       0.59157801
C       -0.46412288       1.23136122      -0.79710535
O        0.14276629       2.34179897      -0.68705680
H        1.64227829      -0.78025168       1.06119881
H        2.14407864       0.41773725      -0.14689667
H        1.39625185       0.95000454       1.35304118
H       -1.04195977      -1.17719267      -1.57252763
H        0.25071624      -2.04670749      -0.61615543
H       -0.80637149      -1.23526110       1.51966223
H       -2.08309448      -0.34995991       0.55067100
H       -1.04481239       2.38449569      -1.13219256
14
Frame=12 idx=002827 GeodesicLength=0.3941296298192923 rxn_smarts="[C:1]([C:2]1([C:5](=[O:6])[H:14])[C:3]([H:10])([H:11])[C:4]1([H:12])[H:13])([H:7])([H:8])[H:9]>>[C:1]([C:2]1([C:5][O:6][H:14])[C:3]([H:10])([H:11])[C:4]1([H:12])[H:13])([H:7])([H:8])[H:9]"
C        1.38203381       0.16708574       0.59194152
C        0.02467810       0.07472219      -0.05352817
C       -0.45801355      -1.23043304      -0.66275021
C       -1.07805770      -0.74600565       0.59044792
C       -0.45680544       1.22903212      -0.80402840
O        0.13843108       2.34146415      -0.68416345
H        1.64228346      -0.78271399       1.06230005
H        2.14743365       0.41535909      -0.14506763
H        1.39828994       0.94824989       1.35363544
H       -1.04096539      -1.17702726      -1.57284486
H        0.24981449      -2.04771957      -0.61483071
H       -0.80784077      -1.23182207       1.51917909
H       -2.08156263      -0.34397235       0.54812441
H       -1.05971903       2.38378074      -1.12841499
14
Frame=13 idx=002827 GeodesicLength=0.4269552482807174 rxn_smarts="[C:1]([C:2]1([C:5](=[O:6])[H:14])[C:3]([H:10])([H:11])[C:4]1([H:12])[H:13])([H:7])([H:8])[H:9]>>[C:1]([C:2]1([C:5][O:6][H:14])[C:3]([H:10])([H:11])[C:4]1([H:12])[H:13])([H:7])([H:8])[H:9]"
C        1.38425110       0.16510839       0.59277911
C        0.02772416       0.07451739      -0.05435263
C       -0.45740217      -1.23005591      -0.66278191
C       -1.07757275      -0.74267116       0.58935171
C       -0.44951100       1.22682959      -0.81066907
O        0.13408781       2.34109455      -0.68127538
H        1.64228630      -0.78520693       1.06339931
H        2.15078053       0.41296585      -0.14321018
H        1.40038545       0.94647138       1.35428645
H       -1.04001380      -1.17664157      -1.57317314
H        0.24888258      -2.04862205      -0.61363015
H       -0.80926552      -1.22847461       1.51867471
H       -2.08000493      -0.33799554       0.54567316
H       -1.07462775       2.38268062      -1.12507200
14
Frame=14 idx=002827 GeodesicLength=0.4597867723948607 rxn_smarts="[C:1]([C:2]1([C:5](=[O:6])[H:14])[C:3]([H:10])([H:11])[C:4]1([H:12])[H:13])([H:7])([H:8])[H:9]>>[C:1]([C:2]1([C:5][O:6][H:14])[C:3]([H:10])([H:11])[C:4]1([H:12])[H:13])([H:7])([H:8])[H:9]"
C        1.38647793       0.16311950       0.59365634
C        0.03076730       0.07435367      -0.05511196
C       -0.45681007      -1.22958407      -0.66283945
C       -1.07707403      -0.73933350       0.58827425
C       -0.44221997       1.22473748      -0.81707896
O        0.12976309       2.34067847      -0.67844773
H        1.64227812      -0.78772514       1.06451133
H        2.15412963       0.41054336      -0.14132432
H        1.40253287       0.94468160       1.35497600
H       -1.03908439      -1.17606689      -1.57352017
H        0.24792673      -2.04943199      -0.61252896
H       -0.81066517      -1.22518699       1.51814889
H       -2.07842260      -0.33200702       0.54328276
H       -1.08959946       2.38122151      -1.12199803
14
Frame=15 idx=002827 GeodesicLength=0.49267750059711085 rxn_smarts="[C:1]([C:2]1([C:5](=[O:6])[H:14])[C:3]([H:10])([H:11])[C:4]1([H:12])[H:13])([H:7])([H:8])[H:9]>>[C:1]([C:2]1([C:5][O:6][H:14])[C:3]([H:10])([H:11])[C:4]1([H:12])[H:13])([H:7])([H:8])[H:9]"
C        1.38872771       0.16110888       0.59456658
C        0.03381691       0.07422978      -0.05582408
C       -0.45622046      -1.22904062      -0.66292320
C       -1.07657894      -0.73599000       0.58721800
C       -0.43491476       1.22277215      -0.82331327
O        0.12544956       2.34025890      -0.67569981
H        1.64226725      -0.79029216       1.06565265
H        2.15751716       0.40807625      -0.13942703
H        1.40473050       0.94288337       1.35569528
H       -1.03815020      -1.17532617      -1.57390005
H        0.24696730      -2.05019709      -0.61150290
H       -0.81207285      -1.22195431       1.51762961
H       -2.07684314      -0.32598421       0.54094427
H       -1.10469603       2.37945522      -1.11911606
14
Frame=16 idx=002827 GeodesicLength=0.5254732124588433 rxn_smarts="[C:1]([C:2]1([C:5](=[O:6])[H:14])[C:3]([H:10])([H:11])[C:4]1([H:12])[H:13])([H:7])([H:8])[H:9]>>[C:1]([C:2]1([C:5][O:6][H:14])[C:3]([H:10])([H:11])[C:4]1([H:12])[H:13])([H:7])([H:8])[H:9]"
C        1.39096946       0.15910326       0.59551123
C        0.03686804       0.07413789      -0.05647630
C       -0.45566903      -1.22838334      -0.66303126
C       -1.07604024      -0.73261684       0.58614287
C       -0.42759645       1.22084863      -0.82931101
O        0.12116857       2.33971500      -0.67297420
H        1.64221582      -0.79282622       1.06679239
H        2.16085827       0.40558113      -0.13747642
H        1.40698285       0.94107735       1.35643883
H       -1.03725295      -1.17440630      -1.57428469
H        0.24592877      -2.05082035      -0.61056145
H       -0.81341888      -1.21871232       1.51702878
H       -2.07517593      -0.31993971       0.53861731
H       -1.11983831       2.37724183      -1.11641607
