17
Frame=0 idx=007111 GeodesicLength=0.0 rxn_smarts="[C:1]([C@@:2]1([H:11])[C:3]([H:12])([H:13])[O:4][C@:5]([C:6]([H:15])([H:16])[H:17])([H:14])[O:7]1)([H:8])([H:9])[H:10]>>[C:1](=[C:2]([O:7][C@@:5]([O:4][C:3]([H:9])([H:12])[H:13])([C:6]([H:15])([H:16])[H:17])[H:14])[H:11])([H:8])[H:10]"
C        2.21641623       0.52764080      -0.95938402
C        1.07380327      -0.26215237      -0.67161036
C        0.64850569      -0.22514695       1.46313358
O       -0.69531259       0.14122058       1.27573046
C       -1.11357010      -0.28542956       0.02206610
C       -2.46157973       0.28555229      -0.30751700
O       -0.15799175       0.20059415      -0.91680219
H        3.12206932       0.02763813      -1.26471842
H        1.73724414       0.26569115       0.37025741
H        2.06794751       1.57464206      -1.17676235
H        1.19174830      -1.34482609      -0.63625456
H        1.10218586       0.46616350       2.17860800
H        0.75134079      -1.26428939       1.80097049
H       -1.10357477      -1.38826012      -0.02988923
H       -2.40617441       1.37377485      -0.30322448
H       -2.79096494      -0.05637808      -1.28799987
H       -3.18209282      -0.03643503       0.44339636
17
Frame=1 idx=007111 GeodesicLength=0.08148071113980367 rxn_smarts="[C:1]([C@@:2]1([H:11])[C:3]([H:12])([H:13])[O:4][C@:5]([C:6]([H:15])([H:16])[H:17])([H:14])[O:7]1)([H:8])([H:9])[H:10]>>[C:1](=[C:2]([O:7][C@@:5]([O:4][C:3]([H:9])([H:12])[H:13])([C:6]([H:15])([H:16])[H:17])[H:14])[H:11])([H:8])[H:10]"
C        2.21765685       0.52498947      -0.95681347
C        1.07479403      -0.26333451      -0.66685840
C        0.64907481      -0.22108033       1.46436611
O       -0.69841865       0.13514763       1.27730923
C       -1.11351062      -0.28634962       0.02005354
C       -2.46150356       0.28535778      -0.30907420
O       -0.15755569       0.20324652      -0.91527260
H        3.11017000       0.02219487      -1.29548380
H        1.76111393       0.27096876       0.39614344
H        2.06794227       1.57169096      -1.17716412
H        1.18842367      -1.34688004      -0.64034542
H        1.08826789       0.47143721       2.18764917
H        0.75623650      -1.25927302       1.80348451
H       -1.10379497      -1.38899274      -0.03491257
H       -2.40700541       1.37360683      -0.29924877
H       -2.78821467      -0.05168875      -1.29218102
H       -3.18367637      -0.04104101       0.43834839
17
Frame=2 idx=007111 GeodesicLength=0.1628747340740186 rxn_smarts="[C:1]([C@@:2]1([H:11])[C:3]([H:12])([H:13])[O:4][C@:5]([C:6]([H:15])([H:16])[H:17])([H:14])[O:7]1)([H:8])([H:9])[H:10]>>[C:1](=[C:2]([O:7][C@@:5]([O:4][C:3]([H:9])([H:12])[H:13])([C:6]([H:15])([H:16])[H:17])[H:14])[H:11])([H:8])[H:10]"
C        2.21893383       0.52207019      -0.95377928
C        1.07560236      -0.26488985      -0.66269782
C        0.64990724      -0.21679501       1.46515419
O       -0.70125463       0.12914399       1.27860111
C       -1.11345748      -0.28729854       0.01791438
C       -2.46145666       0.28519405      -0.31056263
O       -0.15728668       0.20562947      -0.91414506
H        3.09770537       0.01743097      -1.32511476
H        1.78536867       0.27639932       0.42242534
H        2.06787079       1.56845343      -1.17716033
H        1.18495586      -1.34920261      -0.64469749
H        1.07455061       0.47664910       2.19618220
H        0.76133903      -1.25396896       1.80576162
H       -1.10412145      -1.38975618      -0.03989814
H       -2.40778001       1.37343892      -0.29537066
H       -2.78572079      -0.04706658      -1.29614769
H       -3.18515608      -0.04543171       0.43353500
17
Frame=3 idx=007111 GeodesicLength=0.24423359904380929 rxn_smarts="[C:1]([C@@:2]1([H:11])[C:3]([H:12])([H:13])[O:4][C@:5]([C:6]([H:15])([H:16])[H:17])([H:14])[O:7]1)([H:8])([H:9])[H:10]>>[C:1](=[C:2]([O:7][C@@:5]([O:4][C:3]([H:9])([H:12])[H:13])([C:6]([H:15])([H:16])[H:17])[H:14])[H:11])([H:8])[H:10]"
C        2.22024413       0.51886017      -0.95027086
C        1.07620253      -0.26683810      -0.65918143
C        0.65101893      -0.21228306       1.46546249
O       -0.70381058       0.12320127       1.27959819
C       -1.11342111      -0.28827992       0.01564159
C       -2.46145323       0.28506064      -0.31196770
O       -0.15720580       0.20774426      -0.91344131
H        3.08478188       0.01333161      -1.35350624
H        1.80998605       0.28210305       0.44914381
H        2.06774652       1.56490344      -1.17677056
H        1.18132559      -1.35181928      -0.64933505
H        1.06104012       0.48178986       2.20419821
H        0.76667350      -1.24837131       1.80775706
H       -1.10457024      -1.39055521      -0.04485342
H       -2.40850780       1.37327310      -0.29157158
H       -2.78351197      -0.04250938      -1.29988567
H       -3.18653851      -0.04961113       0.42898246
17
Frame=4 idx=007111 GeodesicLength=0.32558893597645433 rxn_smarts="[C:1]([C@@:2]1([H:11])[C:3]([H:12])([H:13])[O:4][C@:5]([C:6]([H:15])([H:16])[H:17])([H:14])[O:7]1)([H:8])([H:9])[H:10]>>[C:1](=[C:2]([O:7][C@@:5]([O:4][C:3]([H:9])([H:12])[H:13])([C:6]([H:15])([H:16])[H:17])[H:14])[H:11])([H:8])[H:10]"
C        2.22158183       0.51533557      -0.94627567
C        1.07656808      -0.26919770      -0.65636444
C        0.65242733      -0.20753486       1.46525306
O       -0.70607547       0.11730945       1.28029203
C       -1.11341221      -0.28929704       0.01322769
C       -2.46150722       0.28495702      -0.31327323
O       -0.15733543       0.20959330      -0.91318361
H        3.07151605       0.00987474      -1.38054411
H        1.83493369       0.28821441       0.47634294
H        2.06758438       1.56101216      -1.17601849
H        1.17751004      -1.35475560      -0.65428871
H        1.04774355       0.48684354       2.21168819
H        0.77226788      -1.24247309       1.80942129
H       -1.10515780      -1.39139415      -0.04978695
H       -2.40919732       1.37311081      -0.28783144
H       -2.78161815      -0.03801527      -1.30337798
H       -3.18782923      -0.05358327       0.42471944
17
Frame=5 idx=007111 GeodesicLength=0.40696530267868253 rxn_smarts="[C:1]([C@@:2]1([H:11])[C:3]([H:12])([H:13])[O:4][C@:5]([C:6]([H:15])([H:16])[H:17])([H:14])[O:7]1)([H:8])([H:9])[H:10]>>[C:1](=[C:2]([O:7][C@@:5]([O:4][C:3]([H:9])([H:12])[H:13])([C:6]([H:15])([H:16])[H:17])[H:14])[H:11])([H:8])[H:10]"
C        2.22293903       0.51147043      -0.94178460
C        1.07667034      -0.27198765      -0.65430816
C        0.65415333      -0.20254270       1.46448448
O       -0.70803652       0.11145197       1.28067402
C       -1.11344157      -0.29035436       0.01066434
C       -2.46163349       0.28488370      -0.31445956
O       -0.15769909       0.21118070      -0.91339497
H        3.05803930       0.00702061      -1.40608783
H        1.86016970       0.29490425       0.50406451
H        2.06739938       1.55674542      -1.17494070
H        1.17348300      -1.35803755      -0.65959357
H        1.03466164       0.49178852       2.21864978
H        0.77816007      -1.23626974       1.81069393
H       -1.10590077      -1.39227816      -0.05471163
H       -2.40985779       1.37295449      -0.28412172
H       -2.78007204      -0.03357643      -1.30660581
H       -3.18903453      -0.05735351       0.42077749
17
Frame=6 idx=007111 GeodesicLength=0.48837420201273263 rxn_smarts="[C:1]([C@@:2]1([H:11])[C:3]([H:12])([H:13])[O:4][C@:5]([C:6]([H:15])([H:16])[H:17])([H:14])[O:7]1)([H:8])([H:9])[H:10]>>[C:1](=[C:2]([O:7][C@@:5]([O:4][C:3]([H:9])([H:12])[H:13])([C:6]([H:15])([H:16])[H:17])[H:14])[H:11])([H:8])[H:10]"
C        2.22430612       0.50723574      -0.93678028
C        1.07648037      -0.27522701      -0.65307467
C        0.65621719      -0.19729537       1.46311416
O       -0.70968014       0.10561284       1.28073424
C       -1.11351998      -0.29145587       0.00794253
C       -2.46184580       0.28484122      -0.31550731
O       -0.15832117       0.21251030      -0.91409881
H        3.04448452       0.00473018      -1.43001414
H        1.88564508       0.30234581       0.53236076
H        2.06720796       1.55206764      -1.17356380
H        1.16921617      -1.36169195      -0.66528686
H        1.02179969       0.49659760       2.22507592
H        0.78438768      -1.22975272       1.81151461
H       -1.10681630      -1.39321183      -0.05963972
H       -2.41049711       1.37280625      -0.28041588
H       -2.77890581      -0.02918622      -1.30954901
H       -3.19015847      -0.06092660       0.41718827
17
Frame=7 idx=007111 GeodesicLength=0.5698344018707173 rxn_smarts="[C:1]([C@@:2]1([H:11])[C:3]([H:12])([H:13])[O:4][C@:5]([C:6]([H:15])([H:16])[H:17])([H:14])[O:7]1)([H:8])([H:9])[H:10]>>[C:1](=[C:2]([O:7][C@@:5]([O:4][C:3]([H:9])([H:12])[H:13])([C:6]([H:15])([H:16])[H:17])[H:14])[H:11])([H:8])[H:10]"
C        2.22567001       0.50260166      -0.93124835
C        1.07596903      -0.27893290      -0.65272698
C        0.65863931      -0.19178320       1.46110010
O       -0.71099283       0.09977000       1.28046345
C       -1.11365810      -0.29260631       0.00505291
C       -2.46215833       0.28483101      -0.31639544
O       -0.15922603       0.21358873      -0.91531675
H        3.03099283       0.00294372      -1.45219501
H        1.91130954       0.31075116       0.56128849
H        2.06702755       1.54693949      -1.17192826
H        1.16468011      -1.36574332      -0.67140362
H        1.00915588       0.50123137       2.23096802
H        0.79099239      -1.22291841       1.81181388
H       -1.10792083      -1.39420026      -0.06458804
H       -2.41112304       1.37266878      -0.27668072
H       -2.77815180      -0.02483250      -1.31218740
H       -3.19120569      -0.06430900       0.41398370
17
Frame=8 idx=007111 GeodesicLength=0.6513287524618021 rxn_smarts="[C:1]([C@@:2]1([H:11])[C:3]([H:12])([H:13])[O:4][C@:5]([C:6]([H:15])([H:16])[H:17])([H:14])[O:7]1)([H:8])([H:9])[H:10]>>[C:1](=[C:2]([O:7][C@@:5]([O:4][C:3]([H:9])([H:12])[H:13])([C:6]([H:15])([H:16])[H:17])[H:14])[H:11])([H:8])[H:10]"
C        2.22701399       0.49753683      -0.92516792
C        1.07510537      -0.28311814      -0.65333717
C        0.66144480      -0.18599434       1.45839358
O       -0.71195789       0.09389359       1.27985132
C       -1.11386556      -0.29381073       0.00198416
C       -2.46258466       0.28485426      -0.31709835
O       -0.16043941       0.21442729      -0.91707176
H        3.01771408       0.00157916      -1.47247051
H        1.93708271       0.32035477       0.59089990
H        2.06688540       1.54131509      -1.17008235
H        1.15983901      -1.37021279      -0.67799327
H        0.99672771       0.50565053       2.23632846
H        0.79802898      -1.21576115       1.81151266
H       -1.10922918      -1.39524810      -0.06957926
H       -2.41174342       1.37254410      -0.27287326
H       -2.77784367      -0.02049855      -1.31449596
H       -3.19217824      -0.06751182       0.41119971
17
Frame=9 idx=007111 GeodesicLength=0.7327356484480103 rxn_smarts="[C:1]([C@@:2]1([H:11])[C:3]([H:12])([H:13])[O:4][C@:5]([C:6]([H:15])([H:16])[H:17])([H:14])[O:7]1)([H:8])([H:9])[H:10]>>[C:1](=[C:2]([O:7][C@@:5]([O:4][C:3]([H:9])([H:12])[H:13])([C:6]([H:15])([H:16])[H:17])[H:14])[H:11])([H:8])[H:10]"
C        2.22832300       0.49200511      -0.91854955
C        1.07386180      -0.28779567      -0.65496862
C        0.66465941      -0.17991589       1.45495107
O       -0.71255615       0.08795222       1.27888998
C       -1.11414940      -0.29507376      -0.00127302
C       -2.46313442       0.28491494      -0.31759020
O       -0.16198419       0.21503731      -0.91938224
H        3.00479934       0.00056196      -1.49063085
H        1.96286450       0.33136603       0.62120451
H        2.06678814       1.53515813      -1.16807182
H        1.15465411      -1.37512149      -0.68510503
H        0.98451572       0.50981390       2.24116174
H        0.80555752      -1.20827321       1.81052744
H       -1.11075368      -1.39635962      -0.07463485
H       -2.41236036       1.37243650      -0.26894952
H       -2.77801025      -0.01616390      -1.31645019
H       -3.19307508      -0.07054256       0.40887115
17
Frame=10 idx=007111 GeodesicLength=0.8141539744612845 rxn_smarts="[C:1]([C@@:2]1([H:11])[C:3]([H:12])([H:13])[O:4][C@:5]([C:6]([H:15])([H:16])[H:17])([H:14])[O:7]1)([H:8])([H:9])[H:10]>>[C:1](=[C:2]([O:7][C@@:5]([O:4][C:3]([H:9])([H:12])[H:13])([C:6]([H:15])([H:16])[H:17])[H:14])[H:11])([H:8])[H:10]"
C        2.22957251       0.48597649      -0.91132819
C        1.07220452      -0.29297145      -0.65770131
C        0.66830414      -0.17353491       1.45072313
O       -0.71277301       0.08190241       1.27756701
C       -1.11452062      -0.29640122      -0.00473336
C       -2.46382184       0.28501356      -0.31784197
O       -0.16388810       0.21543842      -0.92226926
H        2.99241825      -0.00025277      -1.50660272
H        1.98855818       0.34413044       0.65231120
H        2.06679159       1.52840718      -1.16595231
H        1.14908799      -1.38048435      -0.69278345
H        0.97250716       0.51364570       2.24547633
H        0.81363596      -1.20045201       1.80876704
H       -1.11250938      -1.39753933      -0.07978938
H       -2.41298278       1.37234552      -0.26485389
H       -2.77868633      -0.01180369      -1.31802239
H       -3.19389826      -0.07342000       0.40703352
17
Frame=11 idx=007111 GeodesicLength=0.8955666016206693 rxn_smarts="[C:1]([C@@:2]1([H:11])[C:3]([H:12])([H:13])[O:4][C@:5]([C:6]([H:15])([H:16])[H:17])([H:14])[O:7]1)([H:8])([H:9])[H:10]>>[C:1](=[C:2]([O:7][C@@:5]([O:4][C:3]([H:9])([H:12])[H:13])([C:6]([H:15])([H:16])[H:17])[H:14])[H:11])([H:8])[H:10]"
C        2.23073598       0.47940963      -0.90347382
C        1.07010360      -0.29865207      -0.66161388
C        0.67240502      -0.16683818       1.44566076
O       -0.71258788       0.07569237       1.27587180
C       -1.11498589      -0.29779954      -0.00841130
C       -2.46465627       0.28515405      -0.31782227
O       -0.16617588       0.21565256      -0.92575106
H        2.98072804      -0.00100073      -1.52022927
H        2.01403274       0.35898103       0.68427470
H        2.06694436       1.52099887      -1.16378180
H        1.14309798      -1.38631583      -0.70108052
H        0.96068882       0.51707777       2.24928907
H        0.82233680      -1.19229632       1.80613195
H       -1.11450687      -1.39879203      -0.08508147
H       -2.41361390       1.37227443      -0.26052258
H       -2.77990210      -0.00738427      -1.31918395
H       -3.19464455      -0.07616174       0.40572365
17
Frame=12 idx=007111 GeodesicLength=0.9769535700158788 rxn_smarts="[C:1]([C@@:2]1([H:11])[C:3]([H:12])([H:13])[O:4][C@:5]([C:6]([H:15])([H:16])[H:17])([H:14])[O:7]1)([H:8])([H:9])[H:10]>>[C:1](=[C:2]([O:7][C@@:5]([O:4][C:3]([H:9])([H:12])[H:13])([C:6]([H:15])([H:16])[H:17])[H:14])[H:11])([H:8])[H:10]"
C        2.23178455       0.47227325      -0.89494700
C        1.06753095      -0.30483294      -0.66677472
C        0.67697949      -0.15981346       1.43972498
O       -0.71198481       0.06926391       1.27379636
C       -1.11555228      -0.29927473      -0.01232009
C       -2.46564574       0.28534031      -0.31749836
O       -0.16886990       0.21570655      -0.92983864
H        2.96991401      -0.00185722      -1.53138822
H        2.03913919       0.37626712       0.71715198
H        2.06728827       1.51287980      -1.16162322
H        1.13664218      -1.39261985      -0.71004290
H        0.94905162       0.52002466       2.25260746
H        0.83172977      -1.18380534       1.80252322
H       -1.11675623      -1.40012124      -0.09055403
H       -2.41425448       1.37222410      -0.25588552
H       -2.78168424      -0.00286670      -1.31990583
H       -3.19531232      -0.07878824       0.40497452
17
Frame=13 idx=007111 GeodesicLength=1.0582979400433903 rxn_smarts="[C:1]([C@@:2]1([H:11])[C:3]([H:12])([H:13])[O:4][C@:5]([C:6]([H:15])([H:16])[H:17])([H:14])[O:7]1)([H:8])([H:9])[H:10]>>[C:1](=[C:2]([O:7][C@@:5]([O:4][C:3]([H:9])([H:12])[H:13])([C:6]([H:15])([H:16])[H:17])[H:14])[H:11])([H:8])[H:10]"
C        2.23268313       0.46452025      -0.88571165
C        1.06446272      -0.31150735      -0.67325899
C        0.68204894      -0.15244251       1.43287440
O       -0.71094212       0.06254817       1.27133139
C       -1.11622152      -0.30083388      -0.01647534
C       -2.46679279       0.28557683      -0.31683538
O       -0.17198878       0.21563225      -0.93454193
H        2.96011401      -0.00299237      -1.53994543
H        2.06368484       0.39636358       0.75099043
H        2.06790454       1.50397384      -1.15952894
H        1.12967615      -1.39939833      -0.71972082
H        0.93758349       0.52240097       2.25544548
H        0.84189569      -1.17497635       1.79783702
H       -1.11926119      -1.40153100      -0.09625783
H       -2.41490091       1.37219581      -0.25086261
H       -2.78405361       0.00179551      -1.32015821
H       -3.19589259      -0.08132542       0.40481841
17
Frame=14 idx=007111 GeodesicLength=1.1395662119468974 rxn_smarts="[C:1]([C@@:2]1([H:11])[C:3]([H:12])([H:13])[O:4][C@:5]([C:6]([H:15])([H:16])[H:17])([H:14])[O:7]1)([H:8])([H:9])[H:10]>>[C:1](=[C:2]([O:7][C@@:5]([O:4][C:3]([H:9])([H:12])[H:13])([C:6]([H:15])([H:16])[H:17])[H:14])[H:11])([H:8])[H:10]"
C        2.23340072       0.45611433      -0.87574476
C        1.06088326      -0.31865846      -0.68111889
C        0.68762393      -0.14471474       1.42508426
O       -0.70944255       0.05547616       1.26847171
C       -1.11699358      -0.30248319      -0.02088954
C       -2.46809530       0.28586964      -0.31580175
O       -0.17554389       0.21546191      -0.93986133
H        2.95147216      -0.00458995      -1.54580204
H        2.08747193       0.41959332       0.78581830
H        2.06884539       1.49423260      -1.15754876
H        1.12216358      -1.40664232      -0.73015331
H        0.92627409       0.52412801       2.25781488
H        0.85290421      -1.16580946       1.79198530
H       -1.12202311      -1.40302397      -0.10224334
H       -2.41554449       1.37219169      -0.24537535
H       -2.78702076       0.00665265      -1.31991542
H       -3.19637559      -0.08379822       0.40528004
17
Frame=15 idx=007111 GeodesicLength=1.220759269513708 rxn_smarts="[C:1]([C@@:2]1([H:11])[C:3]([H:12])([H:13])[O:4][C@:5]([C:6]([H:15])([H:16])[H:17])([H:14])[O:7]1)([H:8])([H:9])[H:10]>>[C:1](=[C:2]([O:7][C@@:5]([O:4][C:3]([H:9])([H:12])[H:13])([C:6]([H:15])([H:16])[H:17])[H:14])[H:11])([H:8])[H:10]"
C        2.23390438       0.44701700      -0.86502428
C        1.05678340      -0.32626129      -0.69039766
C        0.69370947      -0.13661673       1.41633953
O       -0.70746924       0.04797239       1.26521389
C       -1.11786406      -0.30422915      -0.02557467
C       -2.46954559       0.28622462      -0.31436774
O       -0.17953973       0.21523222      -0.94579021
H        2.94409485      -0.00683872      -1.54889119
H        2.11028034       0.44627193       0.82165646
H        2.07018032       1.48360418      -1.15572021
H        1.11407246      -1.41433463      -0.74137030
H        0.91511454       0.52512747       2.25972514
H        0.86482293      -1.15630398       1.78488616
H       -1.12503737      -1.40460265      -0.10856585
H       -2.41617139       1.37221276      -0.23934077
H       -2.79058721       0.01176020      -1.31915532
H       -3.19674811      -0.08623564       0.40637700
17
Frame=16 idx=007111 GeodesicLength=1.3019093858267918 rxn_smarts="[C:1]([C@@:2]1([H:11])[C:3]([H:12])([H:13])[O:4][C@:5]([C:6]([H:15])([H:16])[H:17])([H:14])[O:7]1)([H:8])([H:9])[H:10]>>[C:1](=[C:2]([O:7][C@@:5]([O:4][C:3]([H:9])([H:12])[H:13])([C:6]([H:15])([H:16])[H:17])[H:14])[H:11])([H:8])[H:10]"
C        2.23415930       0.43719257      -0.85353516
C        1.05216379      -0.33428220      -0.70112497
C        0.70030442      -0.12813415       1.40663728
O       -0.70500615       0.03995928       1.26155672
C       -1.11882415      -0.30607774      -0.03054126
C       -2.47112972       0.28664790      -0.31250510
O       -0.18397295       0.21498190      -0.95231530
H        2.93806878      -0.00993161      -1.54919082
H        2.13186017       0.47667906       0.85851535
H        2.07198335       1.47204569      -1.15406796
H        1.10537800      -1.42244864      -0.75339278
H        0.90409547       0.52532722       2.26118556
H        0.87771277      -1.14645858       1.77647305
H       -1.12829369      -1.40626836      -0.11528190
H       -2.41676213       1.37225941      -0.23267513
H       -2.79474404       0.01717665      -1.31785848
H       -3.19699323      -0.08866840       0.40812088
