19
Frame=0 idx=009434 GeodesicLength=0.0 rxn_smarts="[C:1]([C:2]([O:3][C@@:4]1([H:13])[C:5]([H:14])([H:15])[C@:6]1([C:7]([H:17])([H:18])[H:19])[H:16])([H:11])[H:12])([H:8])([H:9])[H:10]>>[C:1]([C:2](=[O:3])[H:12])([H:8])([H:9])[H:10].[C:4](=[C:5]([H:14])[H:15])([C:6]([C:7]([H:17])([H:18])[H:19])([H:11])[H:16])[H:13]"
C        2.62130245       0.14192254      -0.02244603
C        1.25189623       0.78721521       0.10577649
O        0.59403992       0.57797609       1.23064432
C       -0.49444063      -0.74869559       0.82283515
C       -1.74948276      -0.84408825       1.37796035
C       -0.74560673      -0.50276462      -0.59356308
C       -1.63069776       0.60560678      -1.09432882
H        2.55582220      -0.93112519       0.17065374
H        3.30040899       0.57068907       0.71723967
H        3.04561886       0.29370905      -1.01740176
H        0.57812167       0.22009323      -0.76815783
H        1.21727802       1.82658591      -0.25475042
H        0.16976549      -1.58116748       1.02984671
H       -2.52243933      -0.12729944       1.14022072
H       -1.98777884      -1.59696392       2.11923465
H       -0.65826829      -1.36726708      -1.24808939
H       -1.27055900       0.93990914      -2.06869292
H       -2.66216113       0.27910932      -1.23364362
H       -1.61281929       1.45655529      -0.41333784
19
Frame=1 idx=009434 GeodesicLength=0.12028952759933319 rxn_smarts="[C:1]([C:2]([O:3][C@@:4]1([H:13])[C:5]([H:14])([H:15])[C@:6]1([C:7]([H:17])([H:18])[H:19])[H:16])([H:11])[H:12])([H:8])([H:9])[H:10]>>[C:1]([C:2](=[O:3])[H:12])([H:8])([H:9])[H:10].[C:4](=[C:5]([H:14])[H:15])([C:6]([C:7]([H:17])([H:18])[H:19])([H:11])[H:16])[H:13]"
C        2.63972577       0.15271519      -0.00559856
C        1.26549903       0.79047958       0.09685562
O        0.59892393       0.58942607       1.21795314
C       -0.49260117      -0.76388848       0.81294001
C       -1.75086774      -0.85111216       1.36313239
C       -0.76864580      -0.51433416      -0.59974976
C       -1.64604374       0.60467916      -1.09239998
H        2.57641379      -0.91655355       0.20792383
H        3.30955387       0.59981916       0.73183207
H        3.07174390       0.29041210      -0.99922970
H        0.57968104       0.19463163      -0.78695611
H        1.23350853       1.82818802      -0.26958080
H        0.16527647      -1.60409440       1.00956315
H       -2.49646460      -0.09136200       1.17680150
H       -1.99690974      -1.61139941       2.09420208
H       -0.70187864      -1.37960752      -1.25582060
H       -1.29418988       0.93521192      -2.07108388
H       -2.68328923       0.29172444      -1.21958673
H       -1.60943580       1.45506441      -0.41119767
19
Frame=2 idx=009434 GeodesicLength=0.2403057524199682 rxn_smarts="[C:1]([C:2]([O:3][C@@:4]1([H:13])[C:5]([H:14])([H:15])[C@:6]1([C:7]([H:17])([H:18])[H:19])[H:16])([H:11])[H:12])([H:8])([H:9])[H:10]>>[C:1]([C:2](=[O:3])[H:12])([H:8])([H:9])[H:10].[C:4](=[C:5]([H:14])[H:15])([C:6]([C:7]([H:17])([H:18])[H:19])([H:11])[H:16])[H:13]"
C        2.65802377       0.16362244       0.01144725
C        1.27960966       0.79413399       0.08789098
O        0.60386297       0.60135162       1.20480081
C       -0.49086861      -0.77913294       0.80263809
C       -1.75208306      -0.85682891       1.34882122
C       -0.79200264      -0.52583910      -0.60589127
C       -1.66144666       0.60385688      -1.09030547
H        2.59585141      -0.90145435       0.24528737
H        3.31854980       0.62860500       0.74638800
H        3.09803086       0.28701316      -0.98050131
H        0.58116671       0.16867022      -0.80587816
H        1.25057390       1.83014147      -0.28447692
H        0.16002507      -1.62740538       0.98868910
H       -2.46889720      -0.05963379       1.21195832
H       -2.00602267      -1.62415790       2.06973742
H       -0.74615874      -1.39170752      -1.26309745
H       -1.31796032       0.93081814      -2.07317004
H       -2.70416978       0.30457157      -1.20530196
H       -1.60608447       1.45337539      -0.40903598
19
Frame=3 idx=009434 GeodesicLength=0.36009680751366663 rxn_smarts="[C:1]([C:2]([O:3][C@@:4]1([H:13])[C:5]([H:14])([H:15])[C@:6]1([C:7]([H:17])([H:18])[H:19])[H:16])([H:11])[H:12])([H:8])([H:9])[H:10]>>[C:1]([C:2](=[O:3])[H:12])([H:8])([H:9])[H:10].[C:4](=[C:5]([H:14])[H:15])([C:6]([C:7]([H:17])([H:18])[H:19])([H:11])[H:16])[H:13]"
C        2.67619546       0.17466449       0.02871159
C        1.29425001       0.79820139       0.07890569
O        0.60884456       0.61376613       1.19116299
C       -0.48921995      -0.79447465       0.79189723
C       -1.75304119      -0.86143872       1.33504439
C       -0.81569019      -0.53730408      -0.61198560
C       -1.67690613       0.60310461      -1.08806712
H        2.61411150      -0.88579968       0.28269436
H        3.32739911       0.65702360       0.76093851
H        3.12449842       0.28356009      -0.96115691
H        0.58255015       0.14220467      -0.82496125
H        1.26850808       1.83245649      -0.29941420
H        0.15404445      -1.65109226       0.96717729
H       -2.43996751      -0.03163633       1.24573572
H       -2.01504332      -1.63539966       2.04588451
H       -0.79110734      -1.40358001      -1.26990680
H       -1.34188364       0.92666695      -2.07498797
H       -2.72480018       0.31760982      -1.19077849
H       -1.60274227       1.45146717      -0.40689394
19
Frame=4 idx=009434 GeodesicLength=0.4797387826854084 rxn_smarts="[C:1]([C:2]([O:3][C@@:4]1([H:13])[C:5]([H:14])([H:15])[C@:6]1([C:7]([H:17])([H:18])[H:19])[H:16])([H:11])[H:12])([H:8])([H:9])[H:10]>>[C:1]([C:2](=[O:3])[H:12])([H:8])([H:9])[H:10].[C:4](=[C:5]([H:14])[H:15])([C:6]([C:7]([H:17])([H:18])[H:19])([H:11])[H:16])[H:13]"
C        2.69424060       0.18585108       0.04621882
C        1.30944026       0.80272347       0.06991944
O        0.61385766       0.62669323       1.17701469
C       -0.48763600      -0.80994846       0.78068402
C       -1.75366333      -0.86510076       1.32181202
C       -0.83972476      -0.54874927      -0.61803377
C       -1.69242818       0.60239826      -1.08570321
H        2.63117470      -0.86959745       0.32011759
H        3.33612182       0.68505713       0.77553735
H        3.15114957       0.28008304      -0.94115231
H        0.58380239       0.11521497      -0.84426149
H        1.28734637       1.83517394      -0.31436948
H        0.14735661      -1.67515343       0.94499207
H       -2.40985289      -0.00700307       1.27815463
H       -2.02388733      -1.64526377       2.02269043
H       -0.83673187      -1.41523626      -1.27623368
H       -1.36598796       0.92270740      -2.07657311
H       -2.74518558       0.33081748      -1.17599713
H       -1.59939207       1.44933247      -0.40481688
19
Frame=5 idx=009434 GeodesicLength=0.5993539714764154 rxn_smarts="[C:1]([C:2]([O:3][C@@:4]1([H:13])[C:5]([H:14])([H:15])[C@:6]1([C:7]([H:17])([H:18])[H:19])[H:16])([H:11])[H:12])([H:8])([H:9])[H:10]>>[C:1]([C:2](=[O:3])[H:12])([H:8])([H:9])[H:10].[C:4](=[C:5]([H:14])[H:15])([C:6]([C:7]([H:17])([H:18])[H:19])([H:11])[H:16])[H:13]"
C        2.71214859       0.19718163       0.06398462
C        1.32521146       0.80777217       0.06095142
O        0.61889276       0.64016185       1.16230060
C       -0.48610760      -0.82558379       0.76897618
C       -1.75387065      -0.86790543       1.30913704
C       -0.86413274      -0.56020132      -0.62403089
C       -1.70801659       0.60171483      -1.08322995
H        2.64700010      -0.85286586       0.35742781
H        3.34471468       0.71262981       0.79029148
H        3.17799728       0.27665722      -0.92044063
H        0.58490305       0.08763122      -0.86382964
H        1.30716163       1.83838967      -0.32926380
H        0.13999523      -1.69959630       0.92213553
H       -2.37876861       0.01453327       1.30914825
H       -2.03240221      -1.65384860       2.00025043
H       -0.88308365      -1.42669384      -1.28204628
H       -1.39029463       0.91887801      -2.07796334
H       -2.76534429       0.34418635      -1.16095351
H       -1.59600382       1.44695911      -0.40284530
19
Frame=6 idx=009434 GeodesicLength=0.718926257031683 rxn_smarts="[C:1]([C:2]([O:3][C@@:4]1([H:13])[C:5]([H:14])([H:15])[C@:6]1([C:7]([H:17])([H:18])[H:19])[H:16])([H:11])[H:12])([H:8])([H:9])[H:10]>>[C:1]([C:2](=[O:3])[H:12])([H:8])([H:9])[H:10].[C:4](=[C:5]([H:14])[H:15])([C:6]([C:7]([H:17])([H:18])[H:19])([H:11])[H:16])[H:13]"
C        2.72991324       0.20867534       0.08204815
C        1.34156896       0.81336909       0.05202903
O        0.62392885       0.65415146       1.14700257
C       -0.48463110      -0.84143423       0.75670086
C       -1.75363732      -0.87005076       1.29693920
C       -0.88892365      -0.57167820      -0.63000064
C       -1.72368427       0.60101794      -1.08067019
H        2.66157694      -0.83560418       0.39465794
H        3.35318843       0.73976937       0.80523446
H        3.20502850       0.27328931      -0.89896371
H        0.58581638       0.05946532      -0.88373466
H        1.32796431       1.84211022      -0.34407048
H        0.13194753      -1.72441724       0.89853426
H       -2.34666667       0.03337053       1.33888841
H       -2.04056271      -1.66121254       1.97860225
H       -0.93013709      -1.43795225      -1.28736407
H       -1.41485709       0.91512992      -2.07919113
H       -2.78526965       0.35767794      -1.14560329
H       -1.59256361       1.44432296      -0.40103897
19
Frame=7 idx=009434 GeodesicLength=0.8384581112008305 rxn_smarts="[C:1]([C:2]([O:3][C@@:4]1([H:13])[C:5]([H:14])([H:15])[C@:6]1([C:7]([H:17])([H:18])[H:19])[H:16])([H:11])[H:12])([H:8])([H:9])[H:10]>>[C:1]([C:2](=[O:3])[H:12])([H:8])([H:9])[H:10].[C:4](=[C:5]([H:14])[H:15])([C:6]([C:7]([H:17])([H:18])[H:19])([H:11])[H:16])[H:13]"
C        2.74752838       0.22034471       0.10043391
C        1.35852834       0.81956413       0.04317245
O        0.62895884       0.66867144       1.13108638
C       -0.48320524      -0.85752510       0.74381693
C       -1.75292093      -0.87162887       1.28519451
C       -0.91411326      -0.58319686      -0.63594784
C       -1.73944101       0.60028243      -1.07804123
H        2.67486662      -0.81784501       0.43173166
H        3.36155350       0.76643036       0.82044587
H        3.23224480       0.27003032      -0.87666955
H        0.58651960       0.03069259      -0.90403809
H        1.34979815       1.84639609      -0.35872991
H        0.12321135      -1.74961290       0.87417130
H       -2.31360336       0.04974485       1.36738775
H       -2.04827584      -1.66741894       1.95781342
H       -0.97791050      -1.44902377      -1.29216335
H       -1.43971702       0.91140799      -2.08029113
H       -2.80496993       0.37127340      -1.12992240
H       -1.58905250       1.44141315      -0.39945067
19
Frame=8 idx=009434 GeodesicLength=0.9580026051530741 rxn_smarts="[C:1]([C:2]([O:3][C@@:4]1([H:13])[C:5]([H:14])([H:15])[C@:6]1([C:7]([H:17])([H:18])[H:19])[H:16])([H:11])[H:12])([H:8])([H:9])[H:10]>>[C:1]([C:2](=[O:3])[H:12])([H:8])([H:9])[H:10].[C:4](=[C:5]([H:14])[H:15])([C:6]([C:7]([H:17])([H:18])[H:19])([H:11])[H:16])[H:13]"
C        2.76498321       0.23219267       0.11916982
C        1.37611553       0.82642121       0.03440506
O        0.63397869       0.68373302       1.11451327
C       -0.48182582      -0.87388272       0.73027674
C       -1.75167537      -0.87272274       1.27387664
C       -0.93972553      -0.59477611      -0.64187184
C       -1.75529857       0.59948416      -1.07535557
H        2.68684065      -0.79962010       0.46860968
H        3.36981569       0.79259009       0.83601957
H        3.25963554       0.26692079      -0.85351827
H        0.58697677       0.00126688      -0.92482442
H        1.37270965       1.85131648      -0.37319823
H        0.11378717      -1.77517795       0.84902409
H       -2.27958201       0.06386949       1.39465937
H       -2.05547713      -1.67253397       1.93791548
H       -1.02644385      -1.45992697      -1.29640851
H       -1.46492472       0.90765936      -2.08128896
H       -2.82444340       0.38496678      -1.11386747
H       -1.58544650       1.43821965      -0.39813645
19
Frame=9 idx=009434 GeodesicLength=1.077759051298392 rxn_smarts="[C:1]([C:2]([O:3][C@@:4]1([H:13])[C:5]([H:14])([H:15])[C@:6]1([C:7]([H:17])([H:18])[H:19])[H:16])([H:11])[H:12])([H:8])([H:9])[H:10]>>[C:1]([C:2](=[O:3])[H:12])([H:8])([H:9])[H:10].[C:4](=[C:5]([H:14])[H:15])([C:6]([C:7]([H:17])([H:18])[H:19])([H:11])[H:16])[H:13]"
C        2.78224554       0.24421464       0.13827177
C        1.39438536       0.83405239       0.02577502
O        0.63898597       0.69934538       1.09719011
C       -0.48050931      -0.89054710       0.71605056
C       -1.74983852      -0.87338318       1.26295483
C       -0.96580380      -0.60645897      -0.64776543
C       -1.77126168       0.59858676      -1.07263701
H        2.69743673      -0.78093031       0.50505861
H        3.37793278       0.81811813       0.85212150
H        3.28719153       0.26408930      -0.82945558
H        0.58714091      -0.02896388      -0.94616682
H        1.39682299       1.85702202      -0.38728287
H        0.10368265      -1.80111264       0.82311697
H       -2.24467270       0.07597970       1.42064301
H       -2.06198809      -1.67658848       1.91901259
H       -1.07582466      -1.47068299      -1.30005402
H       -1.49053222       0.90378925      -2.08223025
H       -2.84369773       0.39876621      -1.09742396
H       -1.58169574       1.43470377      -0.39717901
19
Frame=10 idx=009434 GeodesicLength=1.1975201278586924 rxn_smarts="[C:1]([C:2]([O:3][C@@:4]1([H:13])[C:5]([H:14])([H:15])[C@:6]1([C:7]([H:17])([H:18])[H:19])[H:16])([H:11])[H:12])([H:8])([H:9])[H:10]>>[C:1]([C:2](=[O:3])[H:12])([H:8])([H:9])[H:10].[C:4](=[C:5]([H:14])[H:15])([C:6]([C:7]([H:17])([H:18])[H:19])([H:11])[H:16])[H:13]"
C        2.79932287       0.25642748       0.15777907
C        1.41333819       0.84246620       0.01727295
O        0.64398950       0.71551340       1.07911229
C       -0.47925203      -0.90751864       0.70107316
C       -1.74739435      -0.87368652       1.25239712
C       -0.99235484      -0.61823696      -0.65363318
C       -1.78735285       0.59757764      -1.06989056
H        2.70664221      -0.76184503       0.54115885
H        3.38593488       0.84306600       0.86878710
H        3.31491503       0.26151383      -0.80442949
H        0.58698353      -0.05994297      -0.96815400
H        1.42213559       1.86351052      -0.40103153
H        0.09285952      -1.82739726       0.79640309
H       -2.20876802       0.08619922       1.44540593
H       -2.06781934      -1.67964534       1.90108599
H       -1.12604829      -1.48130266      -1.30304886
H       -1.51660474       0.89977683      -2.08312652
H       -2.86272172       0.41264696      -1.08053087
H       -1.57780513       1.43087730      -0.39663054
19
Frame=11 idx=009434 GeodesicLength=1.317280721440835 rxn_smarts="[C:1]([C:2]([O:3][C@@:4]1([H:13])[C:5]([H:14])([H:15])[C@:6]1([C:7]([H:17])([H:18])[H:19])[H:16])([H:11])[H:12])([H:8])([H:9])[H:10]>>[C:1]([C:2](=[O:3])[H:12])([H:8])([H:9])[H:10].[C:4](=[C:5]([H:14])[H:15])([C:6]([C:7]([H:17])([H:18])[H:19])([H:11])[H:16])[H:13]"
C        2.81619888       0.26883734       0.17771777
C        1.43300370       0.85173114       0.00891804
O        0.64899526       0.73224269       1.06022948
C       -0.47806287      -0.92481775       0.68529587
C       -1.74430285      -0.87368577       1.24216541
C       -1.01940608      -0.63012987      -0.65947190
C       -1.80358540       0.59643059      -1.06713153
H        2.71441780      -0.74241708       0.57682201
H        3.39380794       0.86738420       0.88614108
H        3.34279677       0.25926311      -0.77839547
H        0.58646337      -0.09173693      -0.99087820
H        1.44871139       1.87086704      -0.41435950
H        0.08130335      -1.85402560       0.76887677
H       -2.17183510       0.09470063       1.46894168
H       -2.07287622      -1.68172987       1.88418983
H       -1.17715588      -1.49180047      -1.30534504
H       -1.54320547       0.89556401      -2.08400592
H       -2.88151697       0.42660159      -1.06315466
H       -1.57375162       1.42672101      -0.39655572
19
Frame=12 idx=009434 GeodesicLength=1.4370344803618325 rxn_smarts="[C:1]([C:2]([O:3][C@@:4]1([H:13])[C:5]([H:14])([H:15])[C@:6]1([C:7]([H:17])([H:18])[H:19])[H:16])([H:11])[H:12])([H:8])([H:9])[H:10]>>[C:1]([C:2](=[O:3])[H:12])([H:8])([H:9])[H:10].[C:4](=[C:5]([H:14])[H:15])([C:6]([C:7]([H:17])([H:18])[H:19])([H:11])[H:16])[H:13]"
C        2.83285437       0.28143972       0.19812657
C        1.45341554       0.86192169       0.00072003
O        0.65401043       0.74954755       1.04047661
C       -0.47694879      -0.94246054       0.66866181
C       -1.74051556      -0.87342247       1.23222490
C       -1.04699022      -0.64215547      -0.66527978
C       -1.81997856       0.59512191      -1.06437061
H        2.72072341      -0.72269318       0.61197589
H        3.40152612       0.89103408       0.90432524
H        3.37083450       0.25738454      -0.75129118
H        0.58552975      -0.12442068      -1.01445198
H        1.47662440       1.87918362      -0.42719630
H        0.06900273      -1.88099097       0.74052142
H       -2.13381574       0.10163297       1.49123807
H       -2.07705786      -1.68287248       1.86836434
H       -1.22920547      -1.50219340      -1.30688344
H       -1.57041689       0.89109288      -2.08488886
H       -2.90007835       0.44063140      -1.04524242
H       -1.56951380       1.42221884      -0.39703029
19
Frame=13 idx=009434 GeodesicLength=1.5567400419687385 rxn_smarts="[C:1]([C:2]([O:3][C@@:4]1([H:13])[C:5]([H:14])([H:15])[C@:6]1([C:7]([H:17])([H:18])[H:19])[H:16])([H:11])[H:12])([H:8])([H:9])[H:10]>>[C:1]([C:2](=[O:3])[H:12])([H:8])([H:9])[H:10].[C:4](=[C:5]([H:14])[H:15])([C:6]([C:7]([H:17])([H:18])[H:19])([H:11])[H:16])[H:13]"
C        2.84926923       0.29423828       0.21903326
C        1.47460723       0.87310868      -0.00730022
O        0.65904405       0.76744170       1.01978699
C       -0.47591967      -0.96046088       0.65112278
C       -1.73599032      -0.87291986       1.22255085
C       -1.07513874      -0.65433098      -0.67104164
C       -1.83654764       0.59362691      -1.06162238
H        2.72551170      -0.70272086       0.64653037
H        3.40906792       0.91395577       0.92345206
H        3.39902153       0.25594576      -0.72307025
H        0.58414026      -0.15807534      -1.03897714
H        1.50595240       1.88856165      -0.43943273
H        0.05594229      -1.90828957       0.71133209
H       -2.09467576       0.10712335       1.51225973
H       -2.08026046      -1.68310344       1.85365118
H       -1.28225898      -1.51249730      -1.30758168
H       -1.59830154       0.88630166      -2.08580637
H       -2.91840182       0.45473611      -1.02676004
H       -1.56506170       1.41735836      -0.39812685
19
Frame=14 idx=009434 GeodesicLength=1.6763993074456431 rxn_smarts="[C:1]([C:2]([O:3][C@@:4]1([H:13])[C:5]([H:14])([H:15])[C@:6]1([C:7]([H:17])([H:18])[H:19])[H:16])([H:11])[H:12])([H:8])([H:9])[H:10]>>[C:1]([C:2](=[O:3])[H:12])([H:8])([H:9])[H:10].[C:4](=[C:5]([H:14])[H:15])([C:6]([C:7]([H:17])([H:18])[H:19])([H:11])[H:16])[H:13]"
C        2.86542130       0.30723203       0.24047970
C        1.49662737       0.88538505      -0.01513660
O        0.66411470       0.78594744       0.99806484
C       -0.47498467      -0.97882999       0.63261558
C       -1.73066149      -0.87220273       1.21310774
C       -1.10389305      -0.66667671      -0.67674551
C       -1.85331631       0.59191836      -1.05889675
H        2.72873110      -0.68255866       0.68039877
H        3.41639224       0.93610586       0.94369816
H        3.42735496       0.25499078      -0.69365943
H        0.58221988      -0.19279969      -1.06458835
H        1.53679140       1.89911940      -0.45097185
H        0.04209855      -1.93590775       0.68129809
H       -2.05431495       0.11128962       1.53196671
H       -2.08237898      -1.68244504       1.84006800
H       -1.33639264      -1.52272928      -1.30734377
H       -1.62696947       0.88111995      -2.08677306
H       -2.93646886       0.46892581      -1.00763627
H       -1.56037106       1.41211554      -0.39994601
19
Frame=15 idx=009434 GeodesicLength=1.7959767563880948 rxn_smarts="[C:1]([C:2]([O:3][C@@:4]1([H:13])[C:5]([H:14])([H:15])[C@:6]1([C:7]([H:17])([H:18])[H:19])[H:16])([H:11])[H:12])([H:8])([H:9])[H:10]>>[C:1]([C:2](=[O:3])[H:12])([H:8])([H:9])[H:10].[C:4](=[C:5]([H:14])[H:15])([C:6]([C:7]([H:17])([H:18])[H:19])([H:11])[H:16])[H:13]"
C        2.88128286       0.32041816       0.26250210
C        1.51952221       0.89883662      -0.02277607
O        0.66924064       0.80508522       0.97521386
C       -0.47415579      -0.99757900       0.61308245
C       -1.72447133      -0.87128299       1.20386472
C       -1.13329470      -0.67921217      -0.68236741
C       -1.87030210       0.58997106      -1.05620688
H        2.73032017      -0.66226243       0.71347890
H        3.42345500       0.95742174       0.96521188
H        3.45582779       0.25458567      -0.66299389
H        0.57969701      -0.22870158      -1.09141733
H        1.56923847       1.91098366      -0.46168082
H        0.02745157      -1.96384071       0.65041406
H       -2.01264809       0.11423925       1.55029961
H       -2.08329799      -1.68091340       1.82764261
H       -1.39168039      -1.53290211      -1.30605005
H       -1.65651076       0.87547838      -2.08781026
H       -2.95426462       0.48320507      -0.98782239
H       -1.55540997       1.40646957      -0.40258508
19
Frame=16 idx=009434 GeodesicLength=1.9154419881736768 rxn_smarts="[C:1]([C:2]([O:3][C@@:4]1([H:13])[C:5]([H:14])([H:15])[C@:6]1([C:7]([H:17])([H:18])[H:19])[H:16])([H:11])[H:12])([H:8])([H:9])[H:10]>>[C:1]([C:2](=[O:3])[H:12])([H:8])([H:9])[H:10].[C:4](=[C:5]([H:14])[H:15])([C:6]([C:7]([H:17])([H:18])[H:19])([H:11])[H:16])[H:13]"
C        2.89681847       0.33378975       0.28514395
C        1.54335046       0.91356117      -0.03021456
O        0.67444658       0.82488467       0.95110851
C       -0.47344451      -1.01671794       0.59245906
C       -1.71734009      -0.87016366       1.19479203
C       -1.16338859      -0.69195593      -0.68787649
C       -1.88752991       0.58775699      -1.05356375
H        2.73020651      -0.64189029       0.74566112
H        3.43018461       0.97783596       0.98817832
H        3.48443687       0.25479038      -0.63099440
H        0.57648143      -0.26590176      -1.11961217
H        1.60341209       1.92429457      -0.47142007
H        0.01197852      -1.99208073       0.61867323
H       -1.96956900       0.11606030       1.56718113
H       -2.08288839      -1.67852118       1.81638874
H       -1.44820546      -1.54302698      -1.30355642
H       -1.68704541       0.86929682      -2.08894023
H       -2.97176062       0.49759283      -0.96724713
H       -1.55014357       1.40039503      -0.40616088
