10
Frame=0 idx=008751 GeodesicLength=0.0 rxn_smarts="[O:1]=[C:2]([c:3]1[n:4][o:5][c:6]([H:9])[c:7]1[H:10])[H:8]>>[O:1]([C+:2]=[C:3]1[N-:4][O:5][C:6]([H:9])=[C:7]1[H:10])[H:8]"
O       -2.33170831       0.53374367      -0.60780657
C       -1.64377870      -0.56618864      -0.56094441
C       -0.24814663      -0.43359358      -0.13553760
N        0.51152515      -1.49662670      -0.05843037
O        1.72189697      -1.05776621       0.35869690
C        1.68345856       0.27323780       0.53082390
C        0.45868089       0.74541036       0.23476375
H       -2.84300451      -0.48191212      -0.89483192
H        2.60085376       0.72807710       0.86708931
H        0.09022282       1.75561832       0.26617701
10
Frame=1 idx=008751 GeodesicLength=0.03057963915945995 rxn_smarts="[O:1]=[C:2]([c:3]1[n:4][o:5][c:6]([H:9])[c:7]1[H:10])[H:8]>>[O:1]([C+:2]=[C:3]1[N-:4][O:5][C:6]([H:9])=[C:7]1[H:10])[H:8]"
O       -2.32890865       0.53284999      -0.61384318
C       -1.62775929      -0.55621002      -0.61321613
C       -0.25358342      -0.43266715      -0.11951891
N        0.50497621      -1.49667311      -0.04483537
O        1.72165928      -1.05759317       0.35391202
C        1.68598054       0.27365121       0.52475338
C        0.45790180       0.74603429       0.24277776
H       -2.85486719      -0.49307597      -0.86720616
H        2.60297334       0.72657274       0.86482749
H        0.09162737       1.75711119       0.27234911
10
Frame=2 idx=008751 GeodesicLength=0.061382959445558896 rxn_smarts="[O:1]=[C:2]([c:3]1[n:4][o:5][c:6]([H:9])[c:7]1[H:10])[H:8]>>[O:1]([C+:2]=[C:3]1[N-:4][O:5][C:6]([H:9])=[C:7]1[H:10])[H:8]"
O       -2.32368428       0.53340298      -0.62990846
C       -1.61429789      -0.54645494      -0.65618964
C       -0.25524089      -0.42942866      -0.11940993
N        0.49985410      -1.49548414      -0.03983156
O        1.71738443      -1.05909375       0.35968753
C        1.68328398       0.27164562       0.53427241
C        0.45782836       0.74721752       0.24640708
H       -2.86341242      -0.50569441      -0.83122885
H        2.60799322       0.72644898       0.84997072
H        0.09029140       1.75744081       0.28623071
10
Frame=3 idx=008751 GeodesicLength=0.09253294073929438 rxn_smarts="[O:1]=[C:2]([c:3]1[n:4][o:5][c:6]([H:9])[c:7]1[H:10])[H:8]>>[O:1]([C+:2]=[C:3]1[N-:4][O:5][C:6]([H:9])=[C:7]1[H:10])[H:8]"
O       -2.32107789       0.53285106      -0.63860384
C       -1.60339169      -0.53704129      -0.69015188
C       -0.25753680      -0.42610123      -0.11832148
N        0.49439869      -1.49411166      -0.03552071
O        1.71434109      -1.05994022       0.35954331
C        1.68318988       0.27085276       0.53400016
C        0.45685122       0.74812395       0.25273030
H       -2.86771350      -0.51814432      -0.80232309
H        2.60878332       0.72402745       0.84939067
H        0.09215568       1.75948351       0.28925656
10
Frame=4 idx=008751 GeodesicLength=0.1237949479005152 rxn_smarts="[O:1]=[C:2]([c:3]1[n:4][o:5][c:6]([H:9])[c:7]1[H:10])[H:8]>>[O:1]([C+:2]=[C:3]1[N-:4][O:5][C:6]([H:9])=[C:7]1[H:10])[H:8]"
O       -2.31878821       0.53223082      -0.64669513
C       -1.59468831      -0.52866588      -0.71765816
C       -0.25924158      -0.42249234      -0.11954257
N        0.48955290      -1.49243243      -0.03368080
O        1.71116436      -1.06081947       0.35956362
C        1.68278342       0.26994637       0.53445460
C        0.45692468       0.74955800       0.25501037
H       -2.87041538      -0.53008787      -0.77484567
H        2.60859051       0.72117506       0.85199193
H        0.09411759       1.76158775       0.29140183
10
Frame=5 idx=008751 GeodesicLength=0.15511956475345182 rxn_smarts="[O:1]=[C:2]([c:3]1[n:4][o:5][c:6]([H:9])[c:7]1[H:10])[H:8]>>[O:1]([C+:2]=[C:3]1[N-:4][O:5][C:6]([H:9])=[C:7]1[H:10])[H:8]"
O       -2.31651551       0.53162969      -0.65495129
C       -1.58743006      -0.52117321      -0.74098283
C       -0.26073362      -0.41883541      -0.12159258
N        0.48488104      -1.49069238      -0.03247146
O        1.70818818      -1.06157946       0.35877971
C        1.68234682       0.26906410       0.53475627
C        0.45744739       0.75121191       0.25540635
H       -2.87195091      -0.54138139      -0.74869906
H        2.60778497       0.71810524       0.85643658
H        0.09598170       1.76365092       0.29331831
10
Frame=6 idx=008751 GeodesicLength=0.18649625206728757 rxn_smarts="[O:1]=[C:2]([c:3]1[n:4][o:5][c:6]([H:9])[c:7]1[H:10])[H:8]>>[O:1]([C+:2]=[C:3]1[N-:4][O:5][C:6]([H:9])=[C:7]1[H:10])[H:8]"
O       -2.31450653       0.53093531      -0.66253893
C       -1.58095351      -0.51400899      -0.76198355
C       -0.26213837      -0.41512288      -0.12402499
N        0.48025896      -1.48889761      -0.03165553
O        1.70502757      -1.06241007       0.35844494
C        1.68170114       0.26808970       0.53562739
C        0.45805413       0.75292128       0.25537507
H       -2.87234874      -0.55230731      -0.72463424
H        2.60717158       0.71512904       0.85998666
H        0.09773377       1.76567153       0.29540318
10
Frame=7 idx=008751 GeodesicLength=0.21791070297100035 rxn_smarts="[O:1]=[C:2]([c:3]1[n:4][o:5][c:6]([H:9])[c:7]1[H:10])[H:8]>>[O:1]([C+:2]=[C:3]1[N-:4][O:5][C:6]([H:9])=[C:7]1[H:10])[H:8]"
O       -2.31207262       0.53041748      -0.67148349
C       -1.57505040      -0.50749276      -0.78110556
C       -0.26354629      -0.41150269      -0.12644778
N        0.47545003      -1.48723078      -0.03007162
O        1.70185476      -1.06322721       0.35815971
C        1.68075500       0.26701635       0.53732154
C        0.45872056       0.75464899       0.25484963
H       -2.87189074      -0.56244282      -0.70202348
H        2.60716951       0.71256150       0.86103615
H        0.09861018       1.76725194       0.29976491
10
Frame=8 idx=008751 GeodesicLength=0.2493614752294306 rxn_smarts="[O:1]=[C:2]([c:3]1[n:4][o:5][c:6]([H:9])[c:7]1[H:10])[H:8]>>[O:1]([C+:2]=[C:3]1[N-:4][O:5][C:6]([H:9])=[C:7]1[H:10])[H:8]"
O       -2.30958636       0.52990180      -0.68066691
C       -1.56966444      -0.50144598      -0.79869498
C       -0.26493571      -0.40791589      -0.12894920
N        0.47055528      -1.48560290      -0.02816389
O        1.69873929      -1.06399936       0.35763947
C        1.67998175       0.26605590       0.53826376
C        0.45951209       0.75643739       0.25373473
H       -2.87080732      -0.57206856      -0.68030273
H        2.60702320       0.70997846       0.86241790
H        0.09918222       1.76865913       0.30472185
10
Frame=9 idx=008751 GeodesicLength=0.2808136303448865 rxn_smarts="[O:1]=[C:2]([c:3]1[n:4][o:5][c:6]([H:9])[c:7]1[H:10])[H:8]>>[O:1]([C+:2]=[C:3]1[N-:4][O:5][C:6]([H:9])=[C:7]1[H:10])[H:8]"
O       -2.30713808       0.52928458      -0.68968640
C       -1.56500379      -0.49612732      -0.81427228
C       -0.26639645      -0.40441345      -0.13117875
N        0.46555250      -1.48401335      -0.02556938
O        1.69630894      -1.06442449       0.35480743
C        1.68012639       0.26556400       0.53599690
C        0.46073367       0.75842362       0.25107040
H       -2.86955108      -0.58116419      -0.65867997
H        2.60537900       0.70674049       0.86888869
H        0.09998890       1.77013011       0.30862337
10
Frame=10 idx=008751 GeodesicLength=0.31226838022095643 rxn_smarts="[O:1]=[C:2]([c:3]1[n:4][o:5][c:6]([H:9])[c:7]1[H:10])[H:8]>>[O:1]([C+:2]=[C:3]1[N-:4][O:5][C:6]([H:9])=[C:7]1[H:10])[H:8]"
O       -2.30477143       0.52868545      -0.69834810
C       -1.56033243      -0.49066301      -0.82947826
C       -0.26792657      -0.40097173      -0.13317600
N        0.46075663      -1.48236687      -0.02379095
O        1.69330141      -1.06512370       0.35395756
C        1.67950048       0.26471296       0.53626114
C        0.46136885       0.76011527       0.25029124
H       -2.86758748      -0.59006468      -0.63923360
H        2.60511053       0.70420138       0.87037247
H        0.10058001       1.77147493       0.31314451
10
Frame=11 idx=008751 GeodesicLength=0.3437127095671295 rxn_smarts="[O:1]=[C:2]([c:3]1[n:4][o:5][c:6]([H:9])[c:7]1[H:10])[H:8]>>[O:1]([C+:2]=[C:3]1[N-:4][O:5][C:6]([H:9])=[C:7]1[H:10])[H:8]"
O       -2.30246851       0.52810453      -0.70654128
C       -1.55564110      -0.48507373      -0.84410843
C       -0.26967567      -0.39765128      -0.13442662
N        0.45602008      -1.48073218      -0.02222243
O        1.69003471      -1.06595420       0.35403924
C        1.67853173       0.26369509       0.53766805
C        0.46139413       0.76149403       0.25156177
H       -2.86518472      -0.59885622      -0.62218870
H        2.60582306       0.70214972       0.86845352
H        0.10116629       1.77282423       0.31776489
10
Frame=12 idx=008751 GeodesicLength=0.37514496399015174 rxn_smarts="[O:1]=[C:2]([c:3]1[n:4][o:5][c:6]([H:9])[c:7]1[H:10])[H:8]>>[O:1]([C+:2]=[C:3]1[N-:4][O:5][C:6]([H:9])=[C:7]1[H:10])[H:8]"
O       -2.30023943       0.52753026      -0.71428379
C       -1.55101139      -0.47943575      -0.85808557
C       -0.27157918      -0.39441752      -0.13514651
N        0.45135912      -1.47909471      -0.02087545
O        1.68668755      -1.06682659       0.35442937
C        1.67740931       0.26260159       0.53958146
C        0.46105110       0.76267617       0.25406031
H       -2.86250450      -0.60759367      -0.60672363
H        2.60694594       0.70031219       0.86500426
H        0.10188146       1.77424803       0.32203955
10
Frame=13 idx=008751 GeodesicLength=0.4065669666563937 rxn_smarts="[O:1]=[C:2]([c:3]1[n:4][o:5][c:6]([H:9])[c:7]1[H:10])[H:8]>>[O:1]([C+:2]=[C:3]1[N-:4][O:5][C:6]([H:9])=[C:7]1[H:10])[H:8]"
O       -2.29812719       0.52693120      -0.72153247
C       -1.54656796      -0.47385346      -0.87130628
C       -0.27356442      -0.39123208      -0.13558801
N        0.44679170      -1.47743457      -0.01977409
O        1.68343242      -1.06765596       0.35453030
C        1.67637764       0.26155013       0.54117236
C        0.46058855       0.76378332       0.25694573
H       -2.85968596      -0.61630525      -0.59202790
H        2.60788428       0.69840325       0.86208259
H        0.10287096       1.77581341       0.32549776
10
Frame=14 idx=008751 GeodesicLength=0.4379816309415574 rxn_smarts="[O:1]=[C:2]([c:3]1[n:4][o:5][c:6]([H:9])[c:7]1[H:10])[H:8]>>[O:1]([C+:2]=[C:3]1[N-:4][O:5][C:6]([H:9])=[C:7]1[H:10])[H:8]"
O       -2.29631488       0.52621017      -0.72795423
C       -1.54261229      -0.46850909      -0.88350240
C       -0.27550667      -0.38802877      -0.13620590
N        0.44242390      -1.47568649      -0.01923664
O        1.68055350      -1.06830320       0.35335281
C        1.67585603       0.26074358       0.54099363
C        0.46040744       0.76501509       0.25885865
H       -2.85690403      -0.62504049      -0.57676589
H        2.60759587       0.69590144       0.86352001
H        0.10450113       1.77769776       0.32693995
10
Frame=15 idx=008751 GeodesicLength=0.4693920390413146 rxn_smarts="[O:1]=[C:2]([c:3]1[n:4][o:5][c:6]([H:9])[c:7]1[H:10])[H:8]>>[O:1]([C+:2]=[C:3]1[N-:4][O:5][C:6]([H:9])=[C:7]1[H:10])[H:8]"
O       -2.29467013       0.52544354      -0.73386669
C       -1.53891596      -0.46324977      -0.89505118
C       -0.27744948      -0.38482599      -0.13683942
N        0.43817605      -1.47389001      -0.01906107
O        1.67779637      -1.06888776       0.35175791
C        1.67550952       0.26002407       0.54018611
C        0.46026299       0.76625518       0.26062868
H       -2.85403483      -0.63379918      -0.56163909
H        2.60685907       0.69318197       0.86650347
H        0.10646639       1.77974795       0.32738129
10
Frame=16 idx=008751 GeodesicLength=0.500800896440943 rxn_smarts="[O:1]=[C:2]([c:3]1[n:4][o:5][c:6]([H:9])[c:7]1[H:10])[H:8]>>[O:1]([C+:2]=[C:3]1[N-:4][O:5][C:6]([H:9])=[C:7]1[H:10])[H:8]"
O       -2.29306435       0.52467915      -0.73963007
C       -1.53538947      -0.45809424      -0.90611459
C       -0.27939192      -0.38163481      -0.13747415
N        0.43398740      -1.47207596      -0.01903174
O        1.67505873      -1.06945594       0.35011719
C        1.67524444       0.25935414       0.53906416
C        0.46014101       0.76749744       0.26228716
H       -2.85104786      -0.64248776      -0.54676249
H        2.60596458       0.69040214       0.86993630
H        0.10849745       1.78181585       0.32760825
