16
Frame=0 idx=003910 GeodesicLength=0.0 rxn_smarts="[C:1]([C:2]([C@@:3]([C:4]([H:13])([H:14])[H:15])([C:5]#[C:6][H:16])[H:12])([H:10])[H:11])([H:7])([H:8])[H:9]>>[C:1]([C:2]([C@@:3]([C:4]([H:13])([H:14])[H:15])([C:6](=[C:5])[H:16])[H:12])([H:10])[H:11])([H:7])([H:8])[H:9]"
C        1.92104921       0.49805012       0.17035364
C        0.64324694      -0.23532077       0.55289406
C       -0.46520456      -0.24398347      -0.51890490
C       -1.62157847      -1.13453999      -0.11339544
C       -1.22729249       1.11691781      -1.36386510
C       -0.85475128       1.64343146      -0.30102718
H        2.31597284       0.12065135      -0.77540797
H        1.76591004       1.57087381       0.05145317
H        2.68742361       0.35162536       0.93301230
H        0.88161620      -1.29245886       0.71129743
H        0.25879676       0.12437417       1.51197112
H        0.00499943      -0.60469693      -1.43158035
H       -2.12367258      -0.73634501       0.77040014
H       -2.35550420      -1.21176843      -0.91333421
H       -1.25251277      -2.13582618       0.12777018
H       -0.57849862       2.16901559       0.58836307
16
Frame=1 idx=003910 GeodesicLength=0.052841110322695554 rxn_smarts="[C:1]([C:2]([C@@:3]([C:4]([H:13])([H:14])[H:15])([C:5]#[C:6][H:16])[H:12])([H:10])[H:11])([H:7])([H:8])[H:9]>>[C:1]([C:2]([C@@:3]([C:4]([H:13])([H:14])[H:15])([C:6](=[C:5])[H:16])[H:12])([H:10])[H:11])([H:7])([H:8])[H:9]"
C        1.92466989       0.49350307       0.16853895
C        0.64802478      -0.24072005       0.55303537
C       -0.46271038      -0.24239973      -0.51611804
C       -1.62090074      -1.13268641      -0.11095762
C       -1.19932964       1.12969759      -1.37747002
C       -0.86723001       1.64433134      -0.29720733
H        2.31956002       0.11551982      -0.77706559
H        1.76701385       1.56582164       0.04792263
H        2.69207302       0.34972929       0.93065846
H        0.88610793      -1.29813335       0.71005842
H        0.26600268       0.11710275       1.51375911
H        0.00496724      -0.61413791      -1.42666159
H       -2.11689307      -0.74047790       0.77893407
H       -2.35957658      -1.20266653      -0.90732060
H       -1.25515044      -2.13721493       0.12118433
H       -0.62662855       2.19273133       0.58870945
16
Frame=2 idx=003910 GeodesicLength=0.10570141623425885 rxn_smarts="[C:1]([C:2]([C@@:3]([C:4]([H:13])([H:14])[H:15])([C:5]#[C:6][H:16])[H:12])([H:10])[H:11])([H:7])([H:8])[H:9]>>[C:1]([C:2]([C@@:3]([C:4]([H:13])([H:14])[H:15])([C:6](=[C:5])[H:16])[H:12])([H:10])[H:11])([H:7])([H:8])[H:9]"
C        1.92859731       0.48864495       0.16677776
C        0.65298464      -0.24624462       0.55318177
C       -0.46012671      -0.24069289      -0.51319481
C       -1.62010404      -1.13075447      -0.10833422
C       -1.17055815       1.14296623      -1.38999524
C       -0.87967793       1.64523689      -0.29371873
H        2.32323903       0.11024130      -0.77882316
H        1.76855568       1.56050950       0.04477200
H        2.69707080       0.34719473       0.92824238
H        0.89063918      -1.30396655       0.70878961
H        0.27346580       0.10986102       1.51551726
H        0.00473458      -0.62308498      -1.42176709
H       -2.10968487      -0.74494239       0.78787914
H       -2.36371556      -1.19298881      -0.90087716
H       -1.25774367      -2.13856834       0.11424311
H       -0.67767606       2.21658844       0.58730738
16
Frame=3 idx=003910 GeodesicLength=0.1585598895381526 rxn_smarts="[C:1]([C:2]([C@@:3]([C:4]([H:13])([H:14])[H:15])([C:5]#[C:6][H:16])[H:12])([H:10])[H:11])([H:7])([H:8])[H:9]>>[C:1]([C:2]([C@@:3]([C:4]([H:13])([H:14])[H:15])([C:6](=[C:5])[H:16])[H:12])([H:10])[H:11])([H:7])([H:8])[H:9]"
C        1.93285718       0.48345245       0.16507393
C        0.65814375      -0.25190534       0.55333371
C       -0.45745239      -0.23882763      -0.51011051
C       -1.61918025      -1.12872277      -0.10550739
C       -1.14101907       1.15677287      -1.40133999
C       -0.89206216       1.64619142      -0.29051473
H        2.32701979       0.10480275      -0.78068758
H        1.77058783       1.55492286       0.04202917
H        2.70244789       0.34397020       0.92576023
H        0.89521556      -1.30997604       0.70746140
H        0.28122099       0.10261436       1.51726226
H        0.00428853      -0.63146240      -1.41690734
H       -2.10204748      -0.74971651       0.79722890
H       -2.36789534      -1.18274487      -0.89397911
H       -1.26029247      -2.13985009       0.10697031
H       -0.73183236       2.24047875       0.58392674
16
Frame=4 idx=003910 GeodesicLength=0.21139441504973755 rxn_smarts="[C:1]([C:2]([C@@:3]([C:4]([H:13])([H:14])[H:15])([C:5]#[C:6][H:16])[H:12])([H:10])[H:11])([H:7])([H:8])[H:9]>>[C:1]([C:2]([C@@:3]([C:4]([H:13])([H:14])[H:15])([C:6](=[C:5])[H:16])[H:12])([H:10])[H:11])([H:7])([H:8])[H:9]"
C        1.93747593       0.47790290       0.16343212
C        0.66352070      -0.25771394       0.55349258
C       -0.45468597      -0.23676487      -0.50683636
C       -1.61812221      -1.12656613      -0.10245755
C       -1.11075204       1.17117397      -1.41139711
C       -0.90435621       1.64724181      -0.28753235
H        2.33091142       0.09919486      -0.78266677
H        1.77316250       1.54904802       0.03972551
H        2.70823725       0.34000301       0.92320710
H        0.89984353      -1.31618098       0.70604004
H        0.28930701       0.09532221       1.51901429
H        0.00361537      -0.63919024      -1.41209076
H       -2.09397995      -0.75477681       0.80698043
H       -2.37209332      -1.17193807      -0.88659847
H       -1.26279878      -2.14102065       0.09938790
H       -0.78928524       2.26426491       0.57829938
16
Frame=5 idx=003910 GeodesicLength=0.2641838106480124 rxn_smarts="[C:1]([C:2]([C@@:3]([C:4]([H:13])([H:14])[H:15])([C:5]#[C:6][H:16])[H:12])([H:10])[H:11])([H:7])([H:8])[H:9]>>[C:1]([C:2]([C@@:3]([C:4]([H:13])([H:14])[H:15])([C:6](=[C:5])[H:16])[H:12])([H:10])[H:11])([H:7])([H:8])[H:9]"
C        1.94248747       0.47197123       0.16185369
C        0.66914294      -0.26368361       0.55365585
C       -0.45181752      -0.23446074      -0.50334359
C       -1.61692316      -1.12423605      -0.09915681
C       -1.07977948       1.18623050      -1.42006663
C       -0.91650167       1.64844972      -0.28471960
H        2.33492264       0.09341892      -0.78477848
H        1.77634077       1.54287035       0.03790821
H        2.71448425       0.33522417       0.92056616
H        0.90453536      -1.32260236       0.70448389
H        0.29777525       0.08793961       1.52079034
H        0.00270422      -0.64619561      -1.40732262
H       -2.08547873      -0.76006077       0.81713303
H       -2.37628766      -1.16055096      -0.87869788
H       -1.26527557      -2.14201726       0.09153972
H       -0.85032912       2.28770287       0.57015472
16
Frame=6 idx=003910 GeodesicLength=0.3168905859773804 rxn_smarts="[C:1]([C:2]([C@@:3]([C:4]([H:13])([H:14])[H:15])([C:5]#[C:6][H:16])[H:12])([H:10])[H:11])([H:7])([H:8])[H:9]>>[C:1]([C:2]([C@@:3]([C:4]([H:13])([H:14])[H:15])([C:6](=[C:5])[H:16])[H:12])([H:10])[H:11])([H:7])([H:8])[H:9]"
C        1.94790860       0.46564183       0.16034988
C        0.67502210      -0.26982599       0.55383101
C       -0.44885557      -0.23186540      -0.49958822
C       -1.61557848      -1.12171560      -0.09558640
C       -1.04816139       1.20201844      -1.42720570
C       -0.92852352       1.64986572      -0.28195572
H        2.33905501       0.08747433      -0.78702399
H        1.78016130       1.53638222       0.03660923
H        2.72121135       0.32959274       0.91783989
H        0.90929321      -1.32926029       0.70275100
H        0.30666198       0.08041068       1.52262324
H        0.00153183      -0.65237165      -1.40260513
H       -2.07654497      -0.76557699       0.82769339
H       -2.38046273      -1.14858701      -0.87024761
H       -1.26771854      -2.14280932       0.08342290
H       -0.91500018       2.31062629       0.55909221
16
Frame=7 idx=003910 GeodesicLength=0.36948746804975224 rxn_smarts="[C:1]([C:2]([C@@:3]([C:4]([H:13])([H:14])[H:15])([C:5]#[C:6][H:16])[H:12])([H:10])[H:11])([H:7])([H:8])[H:9]>>[C:1]([C:2]([C@@:3]([C:4]([H:13])([H:14])[H:15])([C:6](=[C:5])[H:16])[H:12])([H:10])[H:11])([H:7])([H:8])[H:9]"
C        1.95378065       0.45889090       0.15891992
C        0.68119295      -0.27615278       0.55401337
C       -0.44578506      -0.22892101      -0.49553517
C       -1.61408648      -1.11892710      -0.09170838
C       -1.01590851       1.21861463      -1.43270752
C       -0.94034472       1.65157816      -0.27917927
H        2.34331700       0.08137600      -0.78942994
H        1.78469564       1.52957126       0.03589025
H        2.72847567       0.32302867       0.91500161
H        0.91413162      -1.33617558       0.70078756
H        0.31603278       0.07268294       1.52453265
H        0.00008441      -0.65763864      -1.39793809
H       -2.06717774      -0.77122301       0.83866800
H       -2.38460311      -1.13600085      -0.86120023
H       -1.27015609      -2.14330510       0.07510028
H       -0.98364901       2.33260152       0.54478496
16
Frame=8 idx=003910 GeodesicLength=0.42193869180368826 rxn_smarts="[C:1]([C:2]([C@@:3]([C:4]([H:13])([H:14])[H:15])([C:5]#[C:6][H:16])[H:12])([H:10])[H:11])([H:7])([H:8])[H:9]>>[C:1]([C:2]([C@@:3]([C:4]([H:13])([H:14])[H:15])([C:6](=[C:5])[H:16])[H:12])([H:10])[H:11])([H:7])([H:8])[H:9]"
C        1.96008898       0.45172420       0.15759170
C        0.68764868      -0.28267468       0.55422472
C       -0.44264451      -0.22557224      -0.49112475
C       -1.61244732      -1.11589015      -0.08751222
C       -0.98314544       1.23611831      -1.43639486
C       -0.95213133       1.65363691      -0.27620559
H        2.34768874       0.07514333      -0.79198627
H        1.78992517       1.52245393       0.03578762
H        2.73627194       0.31552776       0.91208208
H        0.91905769      -1.34337297       0.69854965
H        0.32590568       0.06468380       1.52658031
H       -0.00168179      -0.66186374      -1.39332621
H       -2.05737722      -0.77709054       0.85008551
H       -2.38871617      -1.12281028      -0.85153067
H       -1.27255647      -2.14351767       0.06650776
H       -1.05588662       2.35350404       0.52667124
16
Frame=9 idx=003910 GeodesicLength=0.4741238359419969 rxn_smarts="[C:1]([C:2]([C@@:3]([C:4]([H:13])([H:14])[H:15])([C:5]#[C:6][H:16])[H:12])([H:10])[H:11])([H:7])([H:8])[H:9]>>[C:1]([C:2]([C@@:3]([C:4]([H:13])([H:14])[H:15])([C:6](=[C:5])[H:16])[H:12])([H:10])[H:11])([H:7])([H:8])[H:9]"
C        1.96686806       0.44413321       0.15634606
C        0.69441189      -0.28938756       0.55443531
C       -0.43940220      -0.22173966      -0.48630549
C       -1.61066736      -1.11247766      -0.08294231
C       -0.94981363       1.25459954      -1.43811388
C       -0.96371146       1.65612374      -0.27297147
H        2.35216715       0.06883212      -0.79471202
H        1.79594729       1.51500981       0.03636007
H        2.74462893       0.30702314       0.90900750
H        0.92404054      -1.35083553       0.69594964
H        0.33634044       0.05635110       1.52873874
H       -0.00377929      -0.66493240      -1.38872534
H       -2.04716050      -0.78301397       0.86192318
H       -2.39276424      -1.10894469      -0.84116012
H       -1.27499834      -2.14327658       0.05776692
H       -1.13210726       2.37253539       0.50440319
16
Frame=10 idx=003910 GeodesicLength=0.5260516167469234 rxn_smarts="[C:1]([C:2]([C@@:3]([C:4]([H:13])([H:14])[H:15])([C:5]#[C:6][H:16])[H:12])([H:10])[H:11])([H:7])([H:8])[H:9]>>[C:1]([C:2]([C@@:3]([C:4]([H:13])([H:14])[H:15])([C:6](=[C:5])[H:16])[H:12])([H:10])[H:11])([H:7])([H:8])[H:9]"
C        1.97405956       0.43615993       0.15522911
C        0.70145290      -0.29629207       0.55468349
C       -0.43613825      -0.21737546      -0.48101507
C       -1.60875721      -1.10875551      -0.07800106
C       -0.91612069       1.27415914      -1.43770374
C       -0.97545247       1.65908461      -0.26929695
H        2.35669058       0.06251029      -0.79760213
H        1.80265186       1.50730057       0.03767371
H        2.75351944       0.29754634       0.90583437
H        0.92910710      -1.35858529       0.69295490
H        0.34732554       0.04761788       1.53110116
H       -0.00627548      -0.66671990      -1.38415213
H       -2.03653468      -0.78915974       0.87422659
H       -2.39678883      -1.09445622      -0.83008341
H       -1.27741398      -2.14264934       0.04876566
H       -1.21132537       2.38961476       0.47738550
16
Frame=11 idx=003910 GeodesicLength=0.577810556984849 rxn_smarts="[C:1]([C:2]([C@@:3]([C:4]([H:13])([H:14])[H:15])([C:5]#[C:6][H:16])[H:12])([H:10])[H:11])([H:7])([H:8])[H:9]>>[C:1]([C:2]([C@@:3]([C:4]([H:13])([H:14])[H:15])([C:6](=[C:5])[H:16])[H:12])([H:10])[H:11])([H:7])([H:8])[H:9]"
C        1.98176463       0.42776465       0.15419635
C        0.70883191      -0.30337752       0.55494847
C       -0.43277955      -0.21236934      -0.47523135
C       -1.60673829      -1.10449010      -0.07260198
C       -0.88190076       1.29493825      -1.43513694
C       -0.98709207       1.66275802      -0.26523707
H        2.36130643       0.05618957      -0.80075165
H        1.81021377       1.49931876       0.03978813
H        2.76305560       0.28693891       0.90246850
H        0.93424180      -1.36664107       0.68951328
H        0.35895388       0.03847988       1.53367724
H       -0.00914862      -0.66716514      -1.37960474
H       -2.02552849      -0.79517132       0.88702984
H       -2.40077745      -1.07914017      -0.81821504
H       -1.27993676      -2.14140970       0.03970552
H       -1.29446604       2.40337633       0.44545143
16
Frame=12 idx=003910 GeodesicLength=0.6291484641127192 rxn_smarts="[C:1]([C:2]([C@@:3]([C:4]([H:13])([H:14])[H:15])([C:5]#[C:6][H:16])[H:12])([H:10])[H:11])([H:7])([H:8])[H:9]>>[C:1]([C:2]([C@@:3]([C:4]([H:13])([H:14])[H:15])([C:6](=[C:5])[H:16])[H:12])([H:10])[H:11])([H:7])([H:8])[H:9]"
C        1.98963947       0.41920132       0.15336505
C        0.71632406      -0.31060482       0.55527053
C       -0.42958168      -0.20679593      -0.46882781
C       -1.60463892      -1.10012451      -0.06682803
C       -0.84763964       1.31681079      -1.43006137
C       -0.99965303       1.66676035      -0.26052183
H        2.36571228       0.05026395      -0.80403193
H        1.81812385       1.49125672       0.04285640
H        2.77291338       0.27555699       0.89900063
H        0.93939588      -1.37489590       0.68555351
H        0.37097069       0.02880699       1.53649879
H       -0.01255601      -0.66610509      -1.37499220
H       -2.01412878      -0.80189945       0.90032936
H       -2.40483545      -1.06338201      -0.80551647
H       -1.28237377      -2.13991076       0.03011791
H       -1.37767233       2.41506138       0.40778747
16
Frame=13 idx=003910 GeodesicLength=0.6803962551221879 rxn_smarts="[C:1]([C:2]([C@@:3]([C:4]([H:13])([H:14])[H:15])([C:5]#[C:6][H:16])[H:12])([H:10])[H:11])([H:7])([H:8])[H:9]>>[C:1]([C:2]([C@@:3]([C:4]([H:13])([H:14])[H:15])([C:6](=[C:5])[H:16])[H:12])([H:10])[H:11])([H:7])([H:8])[H:9]"
C        1.99814447       0.41015795       0.15256312
C        0.72421814      -0.31792505       0.55558150
C       -0.42622411      -0.20033745      -0.46188296
C       -1.60247775      -1.09477613      -0.06050652
C       -0.81272330       1.34015685      -1.42269687
C       -1.01188747       1.67186501      -0.25549613
H        2.37024060       0.04426659      -0.80763043
H        1.82713289       1.48286823       0.04672105
H        2.78353954       0.26287669       0.89524824
H        0.94455454      -1.38338424       0.68108967
H        0.38379172       0.01880544       1.53953543
H       -0.01638980      -0.66349172      -1.37039068
H       -2.00241752      -0.80784968       0.91409393
H       -2.40884644      -1.04644452      -0.79196786
H       -1.28511675      -2.13732942       0.02078434
H       -1.46553874       2.42054146       0.36495417
16
Frame=14 idx=003910 GeodesicLength=0.7309864362501582 rxn_smarts="[C:1]([C:2]([C@@:3]([C:4]([H:13])([H:14])[H:15])([C:5]#[C:6][H:16])[H:12])([H:10])[H:11])([H:7])([H:8])[H:9]>>[C:1]([C:2]([C@@:3]([C:4]([H:13])([H:14])[H:15])([C:6](=[C:5])[H:16])[H:12])([H:10])[H:11])([H:7])([H:8])[H:9]"
C        2.00651747       0.40121884       0.15198950
C        0.73202218      -0.32525569       0.55591698
C       -0.42323942      -0.19333923      -0.45425040
C       -1.60030658      -1.08954011      -0.05386609
C       -0.77822624       1.36440906      -1.41260294
C       -1.02578708       1.67703484      -0.24996615
H        2.37427472       0.03904193      -0.81127399
H        1.83608401       1.47458064       0.05160943
H        2.79420663       0.24978900       0.89137298
H        0.94965495      -1.39184247       0.67603548
H        0.39678537       0.00828323       1.54273583
H       -0.02091196      -0.65926055      -1.36562660
H       -1.99045770      -0.81479287       0.92815891
H       -2.41296947      -1.02949121      -0.77762456
H       -1.28770661      -2.13453281       0.01091249
H       -1.54994027       2.42369738       0.31647914
16
Frame=15 idx=003910 GeodesicLength=0.7815929167227598 rxn_smarts="[C:1]([C:2]([C@@:3]([C:4]([H:13])([H:14])[H:15])([C:5]#[C:6][H:16])[H:12])([H:10])[H:11])([H:7])([H:8])[H:9]>>[C:1]([C:2]([C@@:3]([C:4]([H:13])([H:14])[H:15])([C:6](=[C:5])[H:16])[H:12])([H:10])[H:11])([H:7])([H:8])[H:9]"
C        2.01504877       0.39218284       0.15149533
C        0.73987457      -0.33262015       0.55627282
C       -0.42039026      -0.18560435      -0.44599920
C       -1.59814425      -1.08393238      -0.04675819
C       -0.74367930       1.38998401      -1.40002067
C       -1.04063240       1.68291543      -0.24424603
H        2.37810136       0.03431419      -0.81522499
H        1.84543971       1.46634269       0.05740538
H        2.80516159       0.23586996       0.88723885
H        0.95465798      -1.40045268       0.67045462
H        0.41006717      -0.00266845       1.54620045
H       -0.02591909      -0.65340847      -1.36084452
H       -1.97838890      -0.82186996       0.94264473
H       -2.41711097      -1.01205197      -0.76245632
H       -1.29038070      -2.13118347       0.00099938
H       -1.63370529       2.42218274       0.26283835
16
Frame=16 idx=003910 GeodesicLength=0.8318198262879873 rxn_smarts="[C:1]([C:2]([C@@:3]([C:4]([H:13])([H:14])[H:15])([C:5]#[C:6][H:16])[H:12])([H:10])[H:11])([H:7])([H:8])[H:9]>>[C:1]([C:2]([C@@:3]([C:4]([H:13])([H:14])[H:15])([C:6](=[C:5])[H:16])[H:12])([H:10])[H:11])([H:7])([H:8])[H:9]"
C        2.02332077       0.38337292       0.15118995
C        0.74755576      -0.33992847       0.55662385
C       -0.41795238      -0.17739686      -0.43707026
C       -1.59600781      -1.07848031      -0.03932044
C       -0.70964282       1.41632756      -1.38474261
C       -1.05726951       1.68874810      -0.23852923
H        2.38122801       0.03062460      -0.81931199
H        1.85460988       1.45831795       0.06436324
H        2.81607206       0.22158650       0.88284444
H        0.95954549      -1.40894635       0.66427207
H        0.42343955      -0.01405857       1.54978220
H       -0.03165307      -0.64605476      -1.35587449
H       -1.96608540      -0.82988497       0.95736172
H       -2.42140361      -0.99473726      -0.74644640
H       -1.29297043      -2.12760535      -0.00935959
H       -1.71278648       2.41811526       0.20421757
