17
Frame=0 idx=007741 GeodesicLength=0.0 rxn_smarts="[C:1]([C:2]1=[C:3]([H:11])[C:4]([H:12])([H:13])[C:5]([H:14])([H:15])[C@:6]1([O:7][H:17])[H:16])([H:8])([H:9])[H:10]>>[C:1]([C:2]1=[C:6]([O:7][H:17])[C:5]([H:14])([H:15])[C:4]([H:12])([H:13])[C:3]1([H:11])[H:16])([H:8])([H:9])[H:10]"
C        2.09657155       0.20996818       0.26834087
C        0.64897061      -0.06617697      -0.03170558
C        0.05093627      -1.38146488       0.08037121
C       -1.40523021      -1.13736964       0.30349461
C       -1.68394372       0.22572260      -0.34306680
C       -0.40166257       0.94280759      -0.04681426
O       -0.25489864       2.20632428      -0.53185583
H        2.23666139       0.28393180       1.34726742
H        2.44801168       1.13773500      -0.18773201
H        2.72137007      -0.60356667      -0.10053031
H        0.58415793      -2.21871007       0.51162131
H       -1.53045789      -0.96940803       1.39691417
H       -2.08996016      -1.92908330       0.00156822
H       -1.81921644       0.13624306      -1.43859533
H       -2.56696543       0.72124137       0.05659216
H        0.44820897      -0.17179501      -1.15201975
H        0.51744667       2.61360063      -0.13385012
17
Frame=1 idx=007741 GeodesicLength=0.11363905153986527 rxn_smarts="[C:1]([C:2]1=[C:3]([H:11])[C:4]([H:12])([H:13])[C:5]([H:14])([H:15])[C@:6]1([O:7][H:17])[H:16])([H:8])([H:9])[H:10]>>[C:1]([C:2]1=[C:6]([O:7][H:17])[C:5]([H:14])([H:15])[C:4]([H:12])([H:13])[C:3]1([H:11])[H:16])([H:8])([H:9])[H:10]"
C        2.10207044       0.20865933       0.26924582
C        0.65633589      -0.07025142      -0.02991745
C        0.05193731      -1.38112750       0.06758490
C       -1.40443382      -1.13634382       0.30281490
C       -1.68487257       0.22715064      -0.34283088
C       -0.39049297       0.93479091      -0.08211394
O       -0.23944117       2.20767259      -0.54005211
H        2.22906634       0.35374789       1.34260954
H        2.46979915       1.10127844      -0.24132822
H        2.72794366      -0.62964827      -0.03722630
H        0.58066100      -2.22160476       0.49917476
H       -1.52945824      -0.97748136       1.39621975
H       -2.08771302      -1.92763705      -0.00404480
H       -1.84488845       0.13332591      -1.43386171
H       -2.55325300       0.73550471       0.07284458
H        0.43936114      -0.18775097      -1.17748240
H        0.47737832       2.62971473      -0.06163646
17
Frame=2 idx=007741 GeodesicLength=0.22711188054509457 rxn_smarts="[C:1]([C:2]1=[C:3]([H:11])[C:4]([H:12])([H:13])[C:5]([H:14])([H:15])[C@:6]1([O:7][H:17])[H:16])([H:8])([H:9])[H:10]>>[C:1]([C:2]1=[C:6]([O:7][H:17])[C:5]([H:14])([H:15])[C:4]([H:12])([H:13])[C:3]1([H:11])[H:16])([H:8])([H:9])[H:10]"
C        2.10760563       0.20748114       0.27078690
C        0.66370959      -0.07399965      -0.02733616
C        0.05318588      -1.38044534       0.05454920
C       -1.40327141      -1.13484969       0.30187011
C       -1.68494884       0.22941493      -0.34213004
C       -0.37864105       0.92653760      -0.11834138
O       -0.22270391       2.20913335      -0.54605014
H        2.22255355       0.42345017       1.33359352
H        2.49175973       1.06115723      -0.29195429
H        2.73284991      -0.65208800       0.02853070
H        0.57736390      -2.22420026       0.48622145
H       -1.52831831      -0.98564223       1.39525528
H       -2.08524324      -1.92533351      -0.01036034
H       -1.87042393       0.13187957      -1.42800467
H       -2.53773725       0.75064117       0.08988113
H        0.43051843      -0.20418666      -1.20355661
H        0.43174131       2.64105017       0.00704534
17
Frame=3 idx=007741 GeodesicLength=0.34036257691043836 rxn_smarts="[C:1]([C:2]1=[C:3]([H:11])[C:4]([H:12])([H:13])[C:5]([H:14])([H:15])[C@:6]1([O:7][H:17])[H:16])([H:8])([H:9])[H:10]>>[C:1]([C:2]1=[C:6]([O:7][H:17])[C:5]([H:14])([H:15])[C:4]([H:12])([H:13])[C:3]1([H:11])[H:16])([H:8])([H:9])[H:10]"
C        2.11324578       0.20635076       0.27281628
C        0.67103569      -0.07729516      -0.02379680
C        0.05476762      -1.37936964       0.04142834
C       -1.40174030      -1.13287588       0.30061907
C       -1.68413758       0.23257312      -0.34104342
C       -0.36616305       0.91809583      -0.15550737
O       -0.20486379       2.21068440      -0.54957067
H        2.21751017       0.49316833       1.31985985
H        2.51404931       1.01699411      -0.33993776
H        2.73594133      -0.67104306       0.09665010
H        0.57437652      -2.22643709       0.47303642
H       -1.52717308      -0.99384765       1.39389330
H       -2.08247860      -1.92219496      -0.01747951
H       -1.89572234       0.13196048      -1.42101047
H       -2.52048439       0.76664077       0.10744268
H        0.42162689      -0.22115370      -1.23016633
H        0.38020982       2.64774933       0.07276630
17
Frame=4 idx=007741 GeodesicLength=0.45355195624513456 rxn_smarts="[C:1]([C:2]1=[C:3]([H:11])[C:4]([H:12])([H:13])[C:5]([H:14])([H:15])[C@:6]1([O:7][H:17])[H:16])([H:8])([H:9])[H:10]>>[C:1]([C:2]1=[C:6]([O:7][H:17])[C:5]([H:14])([H:15])[C:4]([H:12])([H:13])[C:3]1([H:11])[H:16])([H:8])([H:9])[H:10]"
C        2.11907281       0.20531082       0.27532753
C        0.67823260      -0.07994329      -0.01912650
C        0.05670969      -1.37781057       0.02826060
C       -1.39990788      -1.13050814       0.29903670
C       -1.68246222       0.23664208      -0.33953340
C       -0.35309810       0.90953476      -0.19342835
O       -0.18608382       2.21225453      -0.55036224
H        2.21425515       0.56276180       1.30127492
H        2.53683154       0.96858064      -0.38526551
H        2.73713738      -0.68634106       0.16709905
H        0.57176424      -2.22823483       0.45967697
H       -1.52615587      -1.00233939       1.39213834
H       -2.07947900      -1.91831117      -0.02556148
H       -1.92080673       0.13373099      -1.41285130
H       -2.50159867       0.78333248       0.12554124
H        0.41254415      -0.23845593      -1.25733986
H        0.32304472       2.64979629       0.13511332
17
Frame=5 idx=007741 GeodesicLength=0.566804858852673 rxn_smarts="[C:1]([C:2]1=[C:3]([H:11])[C:4]([H:12])([H:13])[C:5]([H:14])([H:15])[C@:6]1([O:7][H:17])[H:16])([H:8])([H:9])[H:10]>>[C:1]([C:2]1=[C:6]([O:7][H:17])[C:5]([H:14])([H:15])[C:4]([H:12])([H:13])[C:3]1([H:11])[H:16])([H:8])([H:9])[H:10]"
C        2.12501268       0.20441131       0.27838008
C        0.68513171      -0.08175004      -0.01312779
C        0.05902695      -1.37566578       0.01500112
C       -1.39777625      -1.12786824       0.29705751
C       -1.67988110       0.24158621      -0.33745593
C       -0.33951434       0.90094909      -0.23170228
O       -0.16659736       2.21375764      -0.54818575
H        2.21295780       0.63224387       1.27775270
H        2.56005908       0.91576225      -0.42768057
H        2.73611822      -0.69776700       0.23979287
H        0.56956694      -2.22948423       0.44602567
H       -1.52535348      -1.01142363       1.38994985
H       -2.07616901      -1.91379969      -0.03487044
H       -1.94558964       0.13732995      -1.40340588
H       -2.48112179       0.80042816       0.14435938
H        0.40297385      -0.25589244      -1.28508975
H        0.26115572       2.64718258       0.19319921
17
Frame=6 idx=007741 GeodesicLength=0.680005966523199 rxn_smarts="[C:1]([C:2]1=[C:3]([H:11])[C:4]([H:12])([H:13])[C:5]([H:14])([H:15])[C@:6]1([O:7][H:17])[H:16])([H:8])([H:9])[H:10]>>[C:1]([C:2]1=[C:6]([O:7][H:17])[C:5]([H:14])([H:15])[C:4]([H:12])([H:13])[C:3]1([H:11])[H:16])([H:8])([H:9])[H:10]"
C        2.13100293       0.20364099       0.28194042
C        0.69157454      -0.08251269      -0.00530197
C        0.06183031      -1.37279550       0.00177859
C       -1.39535349      -1.12507141       0.29455392
C       -1.67638090       0.24742920      -0.33464079
C       -0.32558189       0.89246491      -0.26955155
O       -0.14671256       2.21485513      -0.54299096
H        2.21404288       0.70117338       1.24896666
H        2.58332261       0.85823162      -0.46705656
H        2.73279784      -0.70510455       0.31452027
H        0.56794781      -2.23006195       0.43214729
H       -1.52505496      -1.02151606       1.38712147
H       -2.07236049      -1.90871353      -0.04587691
H       -1.96976304       0.14302556      -1.39248557
H       -2.45926002       0.81770817       0.16398188
H        0.39276696      -0.27307172      -1.31309783
H        0.19518148       2.64031846       0.24599163
17
Frame=7 idx=007741 GeodesicLength=0.7932594235235652 rxn_smarts="[C:1]([C:2]1=[C:3]([H:11])[C:4]([H:12])([H:13])[C:5]([H:14])([H:15])[C@:6]1([O:7][H:17])[H:16])([H:8])([H:9])[H:10]>>[C:1]([C:2]1=[C:6]([O:7][H:17])[C:5]([H:14])([H:15])[C:4]([H:12])([H:13])[C:3]1([H:11])[H:16])([H:8])([H:9])[H:10]"
C        2.13696193       0.20302315       0.28613385
C        0.69737280      -0.08206390       0.00478060
C        0.06515946      -1.36909545      -0.01142541
C       -1.39269243      -1.12237710       0.29140371
C       -1.67203130       0.25407251      -0.33082347
C       -0.31146722       0.88420839      -0.30609931
O       -0.12670725       2.21533102      -0.53503325
H        2.21781665       0.76931887       1.21476721
H        2.60625897       0.79584843      -0.50294626
H        2.72702997      -0.70802703       0.39114079
H        0.56701410      -2.22990572       0.41784812
H       -1.52547630      -1.03326754       1.38351273
H       -2.06796161      -1.90325103      -0.05905694
H       -1.99321327       0.15102873      -1.37989462
H       -2.43625510       0.83474807       0.18473558
H        0.38155188      -0.28951530      -1.34119755
H        0.12663872       2.62992391       0.29215422
17
Frame=8 idx=007741 GeodesicLength=0.9066133960479988 rxn_smarts="[C:1]([C:2]1=[C:3]([H:11])[C:4]([H:12])([H:13])[C:5]([H:14])([H:15])[C@:6]1([O:7][H:17])[H:16])([H:8])([H:9])[H:10]>>[C:1]([C:2]1=[C:6]([O:7][H:17])[C:5]([H:14])([H:15])[C:4]([H:12])([H:13])[C:3]1([H:11])[H:16])([H:8])([H:9])[H:10]"
C        2.14279450       0.20257391       0.29111097
C        0.70235193      -0.08030295       0.01754029
C        0.06907406      -1.36449496      -0.02466397
C       -1.38985332      -1.12008391       0.28748931
C       -1.66696247       0.26136578      -0.32569563
C       -0.29735685       0.87628307      -0.34045524
O       -0.10684285       2.21500871      -0.52489104
H        2.22446496       0.83621799       1.17508999
H        2.62842123       0.72860413      -0.53474305
H        2.71877977      -0.70617919       0.46942140
H        0.56690762      -2.22899335       0.40286112
H       -1.52685124      -1.04734922       1.37895665
H       -2.06286631      -1.89764543      -0.07485443
H       -2.01584557       0.16146079      -1.36539642
H       -2.41239837       0.85112569       0.20706149
H        0.36896550      -0.30476452      -1.36925763
H        0.05721740       2.61717345       0.33042618
17
Frame=9 idx=007741 GeodesicLength=1.0200873072943657 rxn_smarts="[C:1]([C:2]1=[C:3]([H:11])[C:4]([H:12])([H:13])[C:5]([H:14])([H:15])[C@:6]1([O:7][H:17])[H:16])([H:8])([H:9])[H:10]>>[C:1]([C:2]1=[C:6]([O:7][H:17])[C:5]([H:14])([H:15])[C:4]([H:12])([H:13])[C:3]1([H:11])[H:16])([H:8])([H:9])[H:10]"
C        2.14838361       0.20234053       0.29701424
C        0.70634810      -0.07720638       0.03326893
C        0.07365200      -1.35892865      -0.03802939
C       -1.38682254      -1.11846009       0.28267769
C       -1.66135974       0.26913846      -0.31898317
C       -0.28342322       0.86871772      -0.37199758
O       -0.08742118       2.21378340      -0.51327705
H        2.23385580       0.90134605       1.12993594
H        2.64939727       0.65637923      -0.56186545
H        2.70810573      -0.69913776       0.54934812
H        0.56784348      -2.22729733       0.38690145
H       -1.52915479      -1.06436903       1.37320188
H       -2.05692932      -1.89205468      -0.09363252
H       -2.03780325       0.17436696      -1.34872456
H       -2.38789163       0.86647286       0.23143014
H        0.35453730      -0.31846053      -1.39725638
H       -0.01131762       2.60336924       0.35998770
17
Frame=10 idx=007741 GeodesicLength=1.133646546894546 rxn_smarts="[C:1]([C:2]1=[C:3]([H:11])[C:4]([H:12])([H:13])[C:5]([H:14])([H:15])[C@:6]1([O:7][H:17])[H:16])([H:8])([H:9])[H:10]>>[C:1]([C:2]1=[C:6]([O:7][H:17])[C:5]([H:14])([H:15])[C:4]([H:12])([H:13])[C:3]1([H:11])[H:16])([H:8])([H:9])[H:10]"
C        2.15361533       0.20227591       0.30384858
C        0.70927393      -0.07280349       0.05222397
C        0.07895331      -1.35231723      -0.05144380
C       -1.38363451      -1.11765370       0.27694908
C       -1.65527859       0.27718882      -0.31060932
C       -0.26970851       0.86146882      -0.40040134
O       -0.06854655       2.21169693      -0.50072537
H        2.24606999       0.96383933       1.07922465
H        2.66854431       0.57959753      -0.58360923
H        2.69516503      -0.68661101       0.63018082
H        0.56989856      -2.22470300       0.37002167
H       -1.53254886      -1.08454097       1.36609071
H       -2.05006488      -1.88656622      -0.11546030
H       -2.05889070       0.18955628      -1.32983720
H       -2.36288427       0.88047725       0.25791408
H        0.33799979      -0.33050305      -1.42521802
H       -0.07796339       2.58959779       0.38085103
17
Frame=11 idx=007741 GeodesicLength=1.2472882091194357 rxn_smarts="[C:1]([C:2]1=[C:3]([H:11])[C:4]([H:12])([H:13])[C:5]([H:14])([H:15])[C@:6]1([O:7][H:17])[H:16])([H:8])([H:9])[H:10]>>[C:1]([C:2]1=[C:6]([O:7][H:17])[C:5]([H:14])([H:15])[C:4]([H:12])([H:13])[C:3]1([H:11])[H:16])([H:8])([H:9])[H:10]"
C        2.15836399       0.20236309       0.31166920
C        0.71106084      -0.06717748       0.07443461
C        0.08505392      -1.34459979      -0.06492084
C       -1.38023080      -1.11773493       0.27030847
C       -1.64878718       0.28536775      -0.30051166
C       -0.25620566       0.85442839      -0.42569029
O       -0.05028566       2.20878674      -0.48784805
H        2.26072949       1.02267580       1.02327287
H        2.68540619       0.49885658      -0.59919855
H        2.68024646      -0.66836034       0.71123846
H        0.57320672      -2.22112343       0.35218846
H       -1.53688706      -1.10791780       1.35748416
H       -2.04215950      -1.88116958      -0.14026362
H       -2.07917985       0.20681132      -1.30864246
H       -2.33736335       0.89299175       0.28667538
H        0.31893773      -0.34095969      -1.45336120
H       -0.14190628       2.57676163       0.39316507
17
Frame=12 idx=007741 GeodesicLength=1.3610114335823857 rxn_smarts="[C:1]([C:2]1=[C:3]([H:11])[C:4]([H:12])([H:13])[C:5]([H:14])([H:15])[C@:6]1([O:7][H:17])[H:16])([H:8])([H:9])[H:10]>>[C:1]([C:2]1=[C:6]([O:7][H:17])[C:5]([H:14])([H:15])[C:4]([H:12])([H:13])[C:3]1([H:11])[H:16])([H:8])([H:9])[H:10]"
C        2.16255477       0.20258068       0.32051195
C        0.71169452      -0.06044797       0.09980322
C        0.09201700      -1.33574135      -0.07846493
C       -1.37655597      -1.11871085       0.26280857
C       -1.64192355       0.29357046      -0.28870062
C       -0.24283390       0.84745502      -0.44810049
O       -0.03260049       2.20513399      -0.47514425
H        2.27730943       1.07679345       0.96268182
H        2.69965572       0.41507138      -0.60791403
H        2.66381856      -0.64433934       0.79166180
H        0.57786479      -2.21650943       0.33343106
H       -1.54195994      -1.13438235       1.34728786
H       -2.03317554      -1.87580581      -0.16781108
H       -2.09876708       0.22588139      -1.28508711
H       -2.31125165       0.90399059       0.31774577
H        0.29689088      -0.35004615      -1.48197132
H       -0.20273754       2.56550631       0.39726176
17
Frame=13 idx=007741 GeodesicLength=1.4748273437704191 rxn_smarts="[C:1]([C:2]1=[C:3]([H:11])[C:4]([H:12])([H:13])[C:5]([H:14])([H:15])[C@:6]1([O:7][H:17])[H:16])([H:8])([H:9])[H:10]>>[C:1]([C:2]1=[C:6]([O:7][H:17])[C:5]([H:14])([H:15])[C:4]([H:12])([H:13])[C:3]1([H:11])[H:16])([H:8])([H:9])[H:10]"
C        2.16605181       0.20292350       0.33042286
C        0.71116735      -0.05277211       0.12805346
C        0.09989169      -1.32566741      -0.09216210
C       -1.37247799      -1.12049913       0.25451500
C       -1.63464799       0.30172165      -0.27519255
C       -0.22948235       0.84034770      -0.46802320
O       -0.01544645       2.20073689      -0.46303662
H        2.29500920       1.12530120       0.89825829
H        2.71113509       0.32916899      -0.60915315
H        2.64625139      -0.61459397       0.87077018
H        0.58394077      -2.21075593       0.31368357
H       -1.54736659      -1.16370351       1.33542332
H       -2.02304456      -1.87027499      -0.19778263
H       -2.11775889       0.24654110      -1.25906097
H       -2.28429999       0.91348033       0.35116170
H        0.27125957      -0.35803170      -1.51140031
H       -0.26018207       2.55607739       0.39352316
17
Frame=14 idx=007741 GeodesicLength=1.5887330607088006 rxn_smarts="[C:1]([C:2]1=[C:3]([H:11])[C:4]([H:12])([H:13])[C:5]([H:14])([H:15])[C@:6]1([O:7][H:17])[H:16])([H:8])([H:9])[H:10]>>[C:1]([C:2]1=[C:6]([O:7][H:17])[C:5]([H:14])([H:15])[C:4]([H:12])([H:13])[C:3]1([H:11])[H:16])([H:8])([H:9])[H:10]"
C        2.16878241       0.20333435       0.34141629
C        0.70954612      -0.04433963       0.15887019
C        0.10869968      -1.31432415      -0.10607943
C       -1.36793810      -1.12293881       0.24557215
C       -1.62687611       0.30973944      -0.26011506
C       -0.21596720       0.83289786      -0.48583745
O        0.00136628       2.19560731      -0.45164053
H        2.31321685       1.16736408       0.83097505
H        2.71971565       0.24263517      -0.60254273
H        2.62801989      -0.57956571       0.94764370
H        0.59140201      -2.20378512       0.29290268
H       -1.55283104      -1.19536381       1.32190390
H       -2.01184987      -1.86435908      -0.22962725
H       -2.13601036       0.26844582      -1.23058913
H       -2.25637774       0.92149702       0.38664356
H        0.24150172      -0.36525738      -1.54188867
H       -0.31440020       2.54841264       0.38239274
17
Frame=15 idx=007741 GeodesicLength=1.702784838677829 rxn_smarts="[C:1]([C:2]1=[C:3]([H:11])[C:4]([H:12])([H:13])[C:5]([H:14])([H:15])[C@:6]1([O:7][H:17])[H:16])([H:8])([H:9])[H:10]>>[C:1]([C:2]1=[C:6]([O:7][H:17])[C:5]([H:14])([H:15])[C:4]([H:12])([H:13])[C:3]1([H:11])[H:16])([H:8])([H:9])[H:10]"
C        2.17065704       0.20380765       0.35362387
C        0.70690205      -0.03536934       0.19171149
C        0.11843764      -1.30169775      -0.12046607
C       -1.36279878      -1.12591172       0.23610721
C       -1.61852712       0.31759549      -0.24351046
C       -0.20216287       0.82491212      -0.50199647
O        0.01797593       2.18970461      -0.44122453
H        2.33105113       1.20246512       0.76213426
H        2.72560851       0.15668653      -0.58777164
H        2.60942784      -0.53972899       1.02179677
H        0.60025245      -2.19559326       0.27079961
H       -1.55780316      -1.22899840       1.30679537
H       -1.99967431      -1.85786821      -0.26282633
H       -2.15360511       0.29137532      -1.19956321
H       -2.22716662       0.92815805       0.42413539
H        0.20681473      -0.37196624      -1.57371766
H       -0.36538935       2.54242901       0.36397242
17
Frame=16 idx=007741 GeodesicLength=1.8170173972784502 rxn_smarts="[C:1]([C:2]1=[C:3]([H:11])[C:4]([H:12])([H:13])[C:5]([H:14])([H:15])[C@:6]1([O:7][H:17])[H:16])([H:8])([H:9])[H:10]>>[C:1]([C:2]1=[C:6]([O:7][H:17])[C:5]([H:14])([H:15])[C:4]([H:12])([H:13])[C:3]1([H:11])[H:16])([H:8])([H:9])[H:10]"
C        2.17162335       0.20431429       0.36719333
C        0.70334460      -0.02612150       0.22588280
C        0.12907738      -1.28780693      -0.13565560
C       -1.35693528      -1.12927439       0.22628517
C       -1.60951067       0.32526098      -0.22545573
C       -0.18796902       0.81621535      -0.51696343
O        0.03451638       2.18297998      -0.43192166
H        2.34775725       1.23032721       0.69313868
H        2.72920950       0.07263300      -0.56473880
H        2.59062112      -0.49577931       1.09289583
H        0.61046904      -2.18620337       0.24698625
H       -1.56173360      -1.26413683       1.29024703
H       -1.98668034      -1.85062316      -0.29672557
H       -2.17054006       0.31508145      -1.16590459
H       -2.19639197       0.93360187       0.46347295
H        0.16639841      -0.37833628      -1.60703427
H       -0.41325610       2.53786764       0.33829761
