12
Frame=0 idx=009794 GeodesicLength=0.0 rxn_smarts="[N:1]([c:2]1[c:3]([H:10])[c:4]([O:5][H:11])[c:6]([H:12])[o:7]1)([H:8])[H:9]>>[N:1]([C:2]1=[C:3]=[C:4]([O:5][H:11])[C:6]([H:10])([H:12])[O:7]1)([H:8])[H:9]"
N       -2.26357004      -0.32155679      -0.55999035
C       -0.92224977      -0.15791012      -0.24341210
C        0.13239804      -1.02156059      -0.21857873
C        1.22372663      -0.06874536       0.11921053
O        2.55554741      -0.33430122       0.01881341
C        0.70602888       1.25579046       0.15144961
O       -0.58382326       1.17978792      -0.03141257
H       -2.90044913       0.10305512       0.09811356
H       -2.46985876      -1.30061635      -0.68161553
H        0.77101873      -0.28436181       1.17410272
H        2.61639871      -1.26709515      -0.21220638
H        1.13483251       2.21751389       0.38552583
12
Frame=1 idx=009794 GeodesicLength=0.10398729053054366 rxn_smarts="[N:1]([c:2]1[c:3]([H:10])[c:4]([O:5][H:11])[c:6]([H:12])[o:7]1)([H:8])[H:9]>>[N:1]([C:2]1=[C:3]=[C:4]([O:5][H:11])[C:6]([H:10])([H:12])[O:7]1)([H:8])[H:9]"
N       -2.26105922      -0.32877513      -0.55941435
C       -0.92008313      -0.15412693      -0.25880199
C        0.13566969      -1.01744428      -0.21619092
C        1.22585218      -0.06916859       0.10814662
O        2.55736762      -0.32920000       0.00680636
C        0.70177387       1.24979251       0.18680893
O       -0.58786843       1.17940879      -0.03532447
H       -2.89893872       0.12043506       0.08061275
H       -2.47154423      -1.30904476      -0.66025262
H        0.75675815      -0.29557833       1.18888882
H        2.62277787      -1.26340517      -0.21694382
H        1.13929436       2.21710683       0.37566470
12
Frame=2 idx=009794 GeodesicLength=0.20797719230835104 rxn_smarts="[N:1]([c:2]1[c:3]([H:10])[c:4]([O:5][H:11])[c:6]([H:12])[o:7]1)([H:8])[H:9]>>[N:1]([C:2]1=[C:3]=[C:4]([O:5][H:11])[C:6]([H:10])([H:12])[O:7]1)([H:8])[H:9]"
N       -2.25823149      -0.33569653      -0.55835803
C       -0.91769831      -0.15023371      -0.27413744
C        0.13910184      -1.01306985      -0.21381930
C        1.22796605      -0.06871315       0.09611794
O        2.55917228      -0.32344518      -0.00531816
C        0.69710508       1.24306662       0.22261268
O       -0.59143503       1.17900396      -0.03900805
H       -2.89726217       0.13803685       0.06199648
H       -2.47285887      -1.31677650      -0.63782391
H        0.74189117      -0.30745538       1.20395991
H        2.62924945      -1.25906745      -0.22141135
H        1.14299998       2.21435031       0.36518924
12
Frame=3 idx=009794 GeodesicLength=0.3119785082338643 rxn_smarts="[N:1]([c:2]1[c:3]([H:10])[c:4]([O:5][H:11])[c:6]([H:12])[o:7]1)([H:8])[H:9]>>[N:1]([C:2]1=[C:3]=[C:4]([O:5][H:11])[C:6]([H:10])([H:12])[O:7]1)([H:8])[H:9]"
N       -2.25509231      -0.34251095      -0.55679639
C       -0.91519443      -0.14646326      -0.28895711
C        0.14252316      -1.00870857      -0.21030779
C        1.23018045      -0.06738556       0.08223144
O        2.56100984      -0.31738951      -0.01849304
C        0.69252620       1.23582992       0.25584334
O       -0.59447760       1.17855597      -0.04329493
H       -2.89556583       0.15588908       0.04180773
H       -2.47386074      -1.32396176      -0.61407449
H        0.72697175      -0.31823586       1.21914821
H        2.63563621      -1.25471605      -0.22526552
H        1.14534329       2.20909654       0.35815854
12
Frame=4 idx=009794 GeodesicLength=0.41597556173795736 rxn_smarts="[N:1]([c:2]1[c:3]([H:10])[c:4]([O:5][H:11])[c:6]([H:12])[o:7]1)([H:8])[H:9]>>[N:1]([C:2]1=[C:3]=[C:4]([O:5][H:11])[C:6]([H:10])([H:12])[O:7]1)([H:8])[H:9]"
N       -2.25169851      -0.34930089      -0.55471904
C       -0.91265737      -0.14295999      -0.30304184
C        0.14585943      -1.00445032      -0.20529990
C        1.23250461      -0.06531229       0.06610753
O        2.56287962      -0.31130377      -0.03300195
C        0.68831264       1.22816075       0.28543848
O       -0.59710049       1.17801848      -0.04820501
H       -2.89394178       0.17374256       0.01992699
H       -2.47460592      -1.33063094      -0.58915285
H        0.71214412      -0.32733262       1.23449658
H        2.64185772      -1.25066148      -0.22839291
H        1.14644593       2.20203051       0.35584392
12
Frame=5 idx=009794 GeodesicLength=0.5199685460272293 rxn_smarts="[N:1]([c:2]1[c:3]([H:10])[c:4]([O:5][H:11])[c:6]([H:12])[o:7]1)([H:8])[H:9]>>[N:1]([C:2]1=[C:3]=[C:4]([O:5][H:11])[C:6]([H:10])([H:12])[O:7]1)([H:8])[H:9]"
N       -2.24806825      -0.35611642      -0.55219915
C       -0.91013649      -0.13978353      -0.31622417
C        0.14916595      -1.00022430      -0.19900129
C        1.23490241      -0.06259155       0.04771931
O        2.56476396      -0.30525177      -0.04874158
C        0.68454597       1.21999335       0.31186765
O       -0.59947127       1.17731753      -0.05312025
H       -2.89248902       0.19152467      -0.00412303
H       -2.47514287      -1.33675973      -0.56292989
H        0.69734469      -0.33509053       1.25015353
H        2.64791879      -1.24683153      -0.23095558
H        1.14666614       2.19381381       0.35755446
12
Frame=6 idx=009794 GeodesicLength=0.6239579586116994 rxn_smarts="[N:1]([c:2]1[c:3]([H:10])[c:4]([O:5][H:11])[c:6]([H:12])[o:7]1)([H:8])[H:9]>>[N:1]([C:2]1=[C:3]=[C:4]([O:5][H:11])[C:6]([H:10])([H:12])[O:7]1)([H:8])[H:9]"
N       -2.24423013      -0.36292652      -0.54923645
C       -0.90764787      -0.13689306      -0.32849040
C        0.15252162      -0.99591006      -0.19170060
C        1.23731370      -0.05924318       0.02707090
O        2.56663013      -0.29927312      -0.06547208
C        0.68129680       1.21128586       0.33570997
O       -0.60171112       1.17643132      -0.05752224
H       -2.89120578       0.20898937      -0.03036932
H       -2.47547247      -1.34227954      -0.53555246
H        0.68236862      -0.34186200       1.26625272
H        2.65380571      -1.24314813      -0.23302025
H        1.14633079       2.18482907       0.36233021
12
Frame=7 idx=009794 GeodesicLength=0.7279282248231689 rxn_smarts="[N:1]([c:2]1[c:3]([H:10])[c:4]([O:5][H:11])[c:6]([H:12])[o:7]1)([H:8])[H:9]>>[N:1]([C:2]1=[C:3]=[C:4]([O:5][H:11])[C:6]([H:10])([H:12])[O:7]1)([H:8])[H:9]"
N       -2.24021600      -0.36965542      -0.54578722
C       -0.90519225      -0.13420288      -0.33988398
C        0.15600879      -0.99135763      -0.18365689
C        1.23966790      -0.05524864       0.00414784
O        2.56842942      -0.29339177      -0.08294446
C        0.67864784       1.20199189       0.35746663
O       -0.60390542       1.17537100      -0.06099138
H       -2.89002685       0.22579241      -0.05855913
H       -2.47555883      -1.34709194      -0.50736219
H        0.66695674      -0.34794820       1.28290266
H        2.65947073      -1.23953409      -0.23454282
H        1.14571794       2.17527527       0.36921095
12
Frame=8 idx=009794 GeodesicLength=0.8318506784509779 rxn_smarts="[N:1]([c:2]1[c:3]([H:10])[c:4]([O:5][H:11])[c:6]([H:12])[o:7]1)([H:8])[H:9]>>[N:1]([C:2]1=[C:3]=[C:4]([O:5][H:11])[C:6]([H:10])([H:12])[O:7]1)([H:8])[H:9]"
N       -2.23602585      -0.37622604      -0.54182661
C       -0.90276310      -0.13162997      -0.35039807
C        0.15970373      -0.98643810      -0.17497642
C        1.24189176      -0.05057442      -0.02106037
O        2.57009637      -0.28764996      -0.10092373
C        0.67671522       1.19206831       0.37747570
O       -0.60609281       1.17413572      -0.06325200
H       -2.88889890       0.24159604      -0.08841123
H       -2.47533831      -1.35113343      -0.47875848
H        0.65084661      -0.35344386       1.30027045
H        2.66481193      -1.23592742      -0.23561554
H        1.14505333       2.16522313       0.37747630
12
Frame=9 idx=009794 GeodesicLength=0.9357410819520003 rxn_smarts="[N:1]([c:2]1[c:3]([H:10])[c:4]([O:5][H:11])[c:6]([H:12])[o:7]1)([H:8])[H:9]>>[N:1]([C:2]1=[C:3]=[C:4]([O:5][H:11])[C:6]([H:10])([H:12])[O:7]1)([H:8])[H:9]"
N       -2.23172636      -0.38244607      -0.53720324
C       -0.90033944      -0.12905729      -0.36023195
C        0.16364445      -0.98099371      -0.16576040
C        1.24388697      -0.04521584      -0.04864163
O        2.57152834      -0.28212052      -0.11925555
C        0.67562689       1.18154388       0.39578088
O       -0.60822924       1.17287502      -0.06442109
H       -2.88753798       0.25580983      -0.11829005
H       -2.47467730      -1.35444126      -0.45112233
H        0.63355038      -0.35836964       1.31845307
H        2.66967970      -1.23238093      -0.23572892
H        1.14459358       2.15479653       0.38642121
12
Frame=10 idx=009794 GeodesicLength=1.039613189407865 rxn_smarts="[N:1]([c:2]1[c:3]([H:10])[c:4]([O:5][H:11])[c:6]([H:12])[o:7]1)([H:8])[H:9]>>[N:1]([C:2]1=[C:3]=[C:4]([O:5][H:11])[C:6]([H:10])([H:12])[O:7]1)([H:8])[H:9]"
N       -2.22721320      -0.38849607      -0.53202318
C       -0.89786819      -0.12653415      -0.36929682
C        0.16801889      -0.97498586      -0.15610471
C        1.24562750      -0.03915751      -0.07859809
O        2.57268499      -0.27668701      -0.13799409
C        0.67546642       1.17027569       0.41276818
O       -0.61032339       1.17149993      -0.06424758
H       -2.88603184       0.26880505      -0.14961177
H       -2.47360727      -1.35704715      -0.42319257
H        0.61480271      -0.36292783       1.33766294
H        2.67404492      -1.22865534      -0.23550406
H        1.14439846       2.14391025       0.39614173
12
Frame=11 idx=009794 GeodesicLength=1.1434535466315745 rxn_smarts="[N:1]([c:2]1[c:3]([H:10])[c:4]([O:5][H:11])[c:6]([H:12])[o:7]1)([H:8])[H:9]>>[N:1]([C:2]1=[C:3]=[C:4]([O:5][H:11])[C:6]([H:10])([H:12])[O:7]1)([H:8])[H:9]"
N       -2.22241278      -0.39444946      -0.52628833
C       -0.89528230      -0.12405203      -0.37758618
C        0.17299814      -0.96831795      -0.14607212
C        1.24703474      -0.03231808      -0.11088356
O        2.57345258      -0.27123725      -0.15727780
C        0.67632798       1.15813412       0.42864856
O       -0.61232571       1.16993401      -0.06264704
H       -2.88426065       0.28067514      -0.18305562
H       -2.47211063      -1.35896249      -0.39433395
H        0.59417486      -0.36724545       1.35809984
H        2.67782745      -1.22458353      -0.23525630
H        1.14457632       2.13242297       0.40665251
12
Frame=12 idx=009794 GeodesicLength=1.247229280524792 rxn_smarts="[N:1]([c:2]1[c:3]([H:10])[c:4]([O:5][H:11])[c:6]([H:12])[o:7]1)([H:8])[H:9]>>[N:1]([C:2]1=[C:3]=[C:4]([O:5][H:11])[C:6]([H:10])([H:12])[O:7]1)([H:8])[H:9]"
N       -2.21734877      -0.39992781      -0.51996578
C       -0.89253260      -0.12149931      -0.38526630
C        0.17850665      -0.96088155      -0.13516819
C        1.24798813      -0.02484832      -0.14533411
O        2.57370377      -0.26598559      -0.17711737
C        0.67839774       1.14525287       0.44318104
O       -0.61398889       1.16842378      -0.06023468
H       -2.88190347       0.29041335      -0.21519084
H       -2.46985073      -1.36040781      -0.36764835
H        0.57072332      -0.37060264       1.38011379
H        2.68079387      -1.22038714      -0.23450801
H        1.14551097       2.12045018       0.41713879
12
Frame=13 idx=009794 GeodesicLength=1.3509683890601427 rxn_smarts="[N:1]([c:2]1[c:3]([H:10])[c:4]([O:5][H:11])[c:6]([H:12])[o:7]1)([H:8])[H:9]>>[N:1]([C:2]1=[C:3]=[C:4]([O:5][H:11])[C:6]([H:10])([H:12])[O:7]1)([H:8])[H:9]"
N       -2.21190599      -0.40511410      -0.51315126
C       -0.88952068      -0.11896316      -0.39223681
C        0.18474821      -0.95263848      -0.12333416
C        1.24842910      -0.01676964      -0.18172893
O        2.57337101      -0.26074471      -0.19794455
C        0.68175537       1.13147305       0.45666520
O       -0.61521718       1.16686897      -0.05693479
H       -2.87893123       0.29842162      -0.24729487
H       -2.46686839      -1.36147346      -0.34201723
H        0.54385291      -0.37307944       1.40399981
H        2.68297663      -1.21579290      -0.23387401
H        1.14731024       2.10781226       0.42785158
12
Frame=14 idx=009794 GeodesicLength=1.4547298402843007 rxn_smarts="[N:1]([c:2]1[c:3]([H:10])[c:4]([O:5][H:11])[c:6]([H:12])[o:7]1)([H:8])[H:9]>>[N:1]([C:2]1=[C:3]=[C:4]([O:5][H:11])[C:6]([H:10])([H:12])[O:7]1)([H:8])[H:9]"
N       -2.20593154      -0.40998690      -0.50600426
C       -0.88607904      -0.11646366      -0.39846873
C        0.19188512      -0.94352025      -0.11026965
C        1.24831785      -0.00818298      -0.21967985
O        2.57229159      -0.25550801      -0.22018443
C        0.68644124       1.11672461       0.46923262
O       -0.61587423       1.16526797      -0.05300475
H       -2.87509354       0.30475817      -0.27886579
H       -2.46305553      -1.36240839      -0.31782671
H        0.51269644      -0.37433007       1.43007958
H        2.68432859      -1.21071275      -0.23370470
H        1.15007305       2.09436225       0.43869667
12
Frame=15 idx=009794 GeodesicLength=1.5584552331493837 rxn_smarts="[N:1]([c:2]1[c:3]([H:10])[c:4]([O:5][H:11])[c:6]([H:12])[o:7]1)([H:8])[H:9]>>[N:1]([C:2]1=[C:3]=[C:4]([O:5][H:11])[C:6]([H:10])([H:12])[O:7]1)([H:8])[H:9]"
N       -2.19932425      -0.41474277      -0.49846726
C       -0.88216750      -0.11420889      -0.40369778
C        0.20003735      -0.93362956      -0.09574598
C        1.24743879       0.00069570      -0.25880959
O        2.57051283      -0.24997092      -0.24469364
C        0.69252190       1.10080419       0.48132166
O       -0.61581609       1.16353028      -0.04815981
H       -2.87035295       0.30954856      -0.31201089
H       -2.45842187      -1.36278692      -0.29356142
H        0.47648974      -0.37439850       1.45850933
H        2.68511204      -1.20475357      -0.23475219
H        1.15397000       2.07991241       0.45006757
12
Frame=16 idx=009794 GeodesicLength=1.6622161855368969 rxn_smarts="[N:1]([c:2]1[c:3]([H:10])[c:4]([O:5][H:11])[c:6]([H:12])[o:7]1)([H:8])[H:9]>>[N:1]([C:2]1=[C:3]=[C:4]([O:5][H:11])[C:6]([H:10])([H:12])[O:7]1)([H:8])[H:9]"
N       -2.19202986      -0.41935771      -0.49074379
C       -0.87766150      -0.11223978      -0.40784140
C        0.20928256      -0.92293728      -0.07937716
C        1.24575210       0.00972560      -0.29853955
O        2.56797994      -0.24415214      -0.27194664
C        0.70006419       1.08370071       0.49311613
O       -0.61488362       1.16166138      -0.04266001
H       -2.86443461       0.31278365      -0.34596712
H       -2.45301883      -1.36296656      -0.26988333
H        0.43429523      -0.37273177       1.48938873
H        2.68543706      -1.19784143      -0.23737230
H        1.15921734       2.06435531       0.46182646
