16
Frame=0 idx=004637 GeodesicLength=0.0 rxn_smarts="[C:1]1([H:7])([H:8])[C:2]([H:9])([H:10])[C:3]([H:11])([H:12])[C:4]([H:13])=[C:5]([H:14])[C:6]1([H:15])[H:16]>>[C:1]([C:2]([C:3]([H:7])([H:11])[H:12])([H:9])[H:10])(=[C:6]([H:15])[H:16])[H:8].[C:4](#[C:5][H:14])[H:13]"
C       -0.05946621      -1.16884667      -0.23577068
C       -0.81584910      -0.76563522       1.00622695
C       -1.46402628       0.39460047       0.27412064
C        0.38361696       1.67650414      -0.32315115
C        1.39340385       0.92350181      -0.52304128
C        1.28833366      -0.69950777      -0.40534705
H       -0.72489900       0.20986560      -0.71326673
H       -0.48844000      -1.90676129      -0.90099316
H       -0.15149513      -0.44959330       1.81074473
H       -1.51487899      -1.50238213       1.39917814
H       -1.70876675       1.33461809       0.76070305
H       -2.36039958       0.02420472      -0.22953544
H        0.10866351       2.71574714      -0.33349944
H        2.41453050       1.20601782      -0.75180277
H        1.93354456      -0.88232398       0.46003949
H        1.76612799      -1.11000943      -1.29460525
16
Frame=1 idx=004637 GeodesicLength=0.10745134747060255 rxn_smarts="[C:1]1([H:7])([H:8])[C:2]([H:9])([H:10])[C:3]([H:11])([H:12])[C:4]([H:13])=[C:5]([H:14])[C:6]1([H:15])[H:16]>>[C:1]([C:2]([C:3]([H:7])([H:11])[H:12])([H:9])[H:10])(=[C:6]([H:15])[H:16])[H:8].[C:4](#[C:5][H:14])[H:13]"
C       -0.05493930      -1.17258052      -0.23785910
C       -0.82068464      -0.76850354       0.99861448
C       -1.46370397       0.40260811       0.27685337
C        0.38059331       1.69620571      -0.32726545
C        1.39340325       0.94366277      -0.50911267
C        1.29559578      -0.70821435      -0.39399285
H       -0.72797206       0.19794085      -0.73029561
H       -0.47322726      -1.92277968      -0.89629732
H       -0.16079400      -0.46249863       1.81074395
H       -1.52497905      -1.50603094       1.38083077
H       -1.71502733       1.32509362       0.79367268
H       -2.36557329       0.04438576      -0.22629488
H        0.12106063       2.73961462      -0.32904234
H        2.40036597       1.20469762      -0.81034934
H        1.93329787      -0.89164065       0.47658762
H        1.78258408      -1.12196076      -1.27679332
16
Frame=2 idx=004637 GeodesicLength=0.21482664273585148 rxn_smarts="[C:1]1([H:7])([H:8])[C:2]([H:9])([H:10])[C:3]([H:11])([H:12])[C:4]([H:13])=[C:5]([H:14])[C:6]1([H:15])[H:16]>>[C:1]([C:2]([C:3]([H:7])([H:11])[H:12])([H:9])[H:10])(=[C:6]([H:15])[H:16])[H:8].[C:4](#[C:5][H:14])[H:13]"
C       -0.05016858      -1.17617819      -0.24014283
C       -0.82514447      -0.77101997       0.99074871
C       -1.46298036       0.41099459       0.27962014
C        0.37804338       1.71634201      -0.33012491
C        1.39358161       0.96460217      -0.49648810
C        1.30304709      -0.71707979      -0.38270618
H       -0.73073619       0.18599395      -0.74741186
H       -0.45768456      -1.93886321      -0.89116242
H       -0.16985762      -0.47526380       1.81046814
H       -1.53475279      -1.50913841       1.36215458
H       -1.72157374       1.31465030       0.82626134
H       -2.36998085       0.06502027      -0.22340617
H        0.13393017       2.76364516      -0.32414808
H        2.38199154       1.20163489      -0.86814274
H        1.93305423      -0.90083187       0.49317161
H        1.79923113      -1.13450809      -1.25869125
16
Frame=3 idx=004637 GeodesicLength=0.3221134449990533 rxn_smarts="[C:1]1([H:7])([H:8])[C:2]([H:9])([H:10])[C:3]([H:11])([H:12])[C:4]([H:13])=[C:5]([H:14])[C:6]1([H:15])[H:16]>>[C:1]([C:2]([C:3]([H:7])([H:11])[H:12])([H:9])[H:10])(=[C:6]([H:15])[H:16])[H:8].[C:4](#[C:5][H:14])[H:13]"
C       -0.04523476      -1.17966339      -0.24270467
C       -0.82912002      -0.77314858       0.98263648
C       -1.46185937       0.41975585       0.28251777
C        0.37590594       1.73694755      -0.33165841
C        1.39369463       0.98621186      -0.48596097
C        1.31059097      -0.72620336      -0.37171698
H       -0.73333354       0.17399918      -0.76461562
H       -0.44198867      -1.95505381      -0.88554865
H       -0.17849580      -0.48781065       1.80981604
H       -1.54401743      -1.51165835       1.34327676
H       -1.72845059       1.30326196       0.85849713
H       -2.37363835       0.08604998      -0.22069073
H        0.14709998       2.78786606      -0.31939237
H        2.36016323       1.19707214      -0.92346741
H        1.93276720      -0.90982612       0.50952788
H        1.81591659      -1.14780035      -1.24051623
16
Frame=4 idx=004637 GeodesicLength=0.4294487736195175 rxn_smarts="[C:1]1([H:7])([H:8])[C:2]([H:9])([H:10])[C:3]([H:11])([H:12])[C:4]([H:13])=[C:5]([H:14])[C:6]1([H:15])[H:16]>>[C:1]([C:2]([C:3]([H:7])([H:11])[H:12])([H:9])[H:10])(=[C:6]([H:15])[H:16])[H:8].[C:4](#[C:5][H:14])[H:13]"
C       -0.04017307      -1.18306206      -0.24553819
C       -0.83265119      -0.77492783       0.97433619
C       -1.46040845       0.42886879       0.28558296
C        0.37414196       1.75808186      -0.33194503
C        1.39371823       1.00842794      -0.47768629
C        1.31825980      -0.73565509      -0.36102518
H       -0.73585810       0.16192613      -0.78194548
H       -0.42623308      -1.97133694      -0.87943331
H       -0.18671167      -0.50020053       1.80886718
H       -1.55284209      -1.51363268       1.32428721
H       -1.73576932       1.29089822       0.89030651
H       -2.37664082       0.10745562      -0.21815318
H        0.16057873       2.81238397      -0.31471319
H        2.33542419       1.19128082      -0.97631574
H        1.93250502      -0.91868124       0.52568979
H        1.83265986      -1.16182696      -1.22231426
16
Frame=5 idx=004637 GeodesicLength=0.5366282241766454 rxn_smarts="[C:1]1([H:7])([H:8])[C:2]([H:9])([H:10])[C:3]([H:11])([H:12])[C:4]([H:13])=[C:5]([H:14])[C:6]1([H:15])[H:16]>>[C:1]([C:2]([C:3]([H:7])([H:11])[H:12])([H:9])[H:10])(=[C:6]([H:15])[H:16])[H:8].[C:4](#[C:5][H:14])[H:13]"
C       -0.03500989      -1.18640584      -0.24865464
C       -0.83568287      -0.77639273       0.96579319
C       -1.45849744       0.43833117       0.28892903
C        0.37260384       1.77983043      -0.33110253
C        1.39343598       1.03123941      -0.47148059
C        1.32591598      -0.74548105      -0.35063251
H       -0.73834118       0.14971148      -0.79929694
H       -0.41044007      -1.98771334      -0.87279949
H       -0.19448857      -0.51249542       1.80750246
H       -1.56111810      -1.51508950       1.30507529
H       -1.74335553       1.27754345       0.92174328
H       -2.37879692       0.12925247      -0.21564262
H        0.17425728       2.83727916      -0.31070777
H        2.30816545       1.18439444      -1.02611856
H        1.93210294      -0.92751729       0.54153365
H        1.84924910      -1.17648682      -1.20414124
16
Frame=6 idx=004637 GeodesicLength=0.643913762083622 rxn_smarts="[C:1]1([H:7])([H:8])[C:2]([H:9])([H:10])[C:3]([H:11])([H:12])[C:4]([H:13])=[C:5]([H:14])[C:6]1([H:15])[H:16]>>[C:1]([C:2]([C:3]([H:7])([H:11])[H:12])([H:9])[H:10])(=[C:6]([H:15])[H:16])[H:8].[C:4](#[C:5][H:14])[H:13]"
C       -0.02974767      -1.18972114      -0.25202422
C       -0.83831530      -0.77758163       0.95710565
C       -1.45624299       0.44811748       0.29256494
C        0.37131035       1.80224249      -0.32926316
C        1.39299424       1.05463969      -0.46714471
C        1.33368267      -0.75572739      -0.34048353
H       -0.74084508       0.13732243      -0.81674714
H       -0.39466951      -2.00415479      -0.86565894
H       -0.20188919      -0.52475245       1.80589453
H       -1.56902652      -1.51606814       1.28576364
H       -1.75135713       1.26319094       0.95271091
H       -2.38027383       0.15142936      -0.21324480
H        0.18815242       2.86264796      -0.30712761
H        2.27868496       1.17659395      -1.07344337
H        1.93173817      -0.93649586       0.55716732
H        1.86580440      -1.19168291      -1.18606950
16
Frame=7 idx=004637 GeodesicLength=0.7512348028053428 rxn_smarts="[C:1]1([H:7])([H:8])[C:2]([H:9])([H:10])[C:3]([H:11])([H:12])[C:4]([H:13])=[C:5]([H:14])[C:6]1([H:15])[H:16]>>[C:1]([C:2]([C:3]([H:7])([H:11])[H:12])([H:9])[H:10])(=[C:6]([H:15])[H:16])[H:8].[C:4](#[C:5][H:14])[H:13]"
C       -0.02437679      -1.19302930      -0.25562704
C       -0.84054724      -0.77852665       0.94825365
C       -1.45357060       0.45822292       0.29653910
C        0.37022884       1.82537366      -0.32649387
C        1.39234472       1.07865127      -0.46443632
C        1.34152857      -0.76642320      -0.33050610
H       -0.74336084       0.12471552      -0.83425583
H       -0.37891662      -2.02063171      -0.85800653
H       -0.20895702      -0.53704171       1.80402328
H       -1.57656983      -1.51659429       1.26627134
H       -1.75968306       1.24783895       0.98316944
H       -2.38095628       0.17401668      -0.21094463
H        0.20223930       2.88854970      -0.30409828
H        2.24697280       1.16794430      -1.11843346
H        1.93135332      -0.94572944       0.57261597
H        1.88227072      -1.20733670      -1.16807071
16
Frame=8 idx=004637 GeodesicLength=0.8587897176328849 rxn_smarts="[C:1]1([H:7])([H:8])[C:2]([H:9])([H:10])[C:3]([H:11])([H:12])[C:4]([H:13])=[C:5]([H:14])[C:6]1([H:15])[H:16]>>[C:1]([C:2]([C:3]([H:7])([H:11])[H:12])([H:9])[H:10])(=[C:6]([H:15])[H:16])[H:8].[C:4](#[C:5][H:14])[H:13]"
C       -0.01887418      -1.19634513      -0.25946675
C       -0.84242495      -0.77928528       0.93929391
C       -1.45050996       0.46866873       0.30094036
C        0.36930803       1.84930159      -0.32286866
C        1.39151978       1.10330882      -0.46318117
C        1.34952644      -0.77760992      -0.32066798
H       -0.74593924       0.11189994      -0.85183813
H       -0.36318659      -2.03707326      -0.84991914
H       -0.21574105      -0.54951229       1.80200567
H       -1.58384361      -1.51671909       1.24661949
H       -1.76840024       1.23147861       1.01317736
H       -2.38089287       0.19711507      -0.20871987
H        0.21644903       2.91504919      -0.30190273
H        2.21322287       1.15848444      -1.16118261
H        1.93104241      -0.95538789       0.58793153
H        1.89874413      -1.22337354      -1.15022130
16
Frame=9 idx=004637 GeodesicLength=0.9660530163069816 rxn_smarts="[C:1]1([H:7])([H:8])[C:2]([H:9])([H:10])[C:3]([H:11])([H:12])[C:4]([H:13])=[C:5]([H:14])[C:6]1([H:15])[H:16]>>[C:1]([C:2]([C:3]([H:7])([H:11])[H:12])([H:9])[H:10])(=[C:6]([H:15])[H:16])[H:8].[C:4](#[C:5][H:14])[H:13]"
C       -0.01327185      -1.19969731      -0.26347664
C       -0.84384599      -0.77978921       0.93010869
C       -1.44684916       0.47937231       0.30568826
C        0.36863803       1.87397317      -0.31838323
C        1.39039604       1.12861607      -0.46319236
C        1.35748736      -0.78928747      -0.31089454
H       -0.74848622       0.09870953      -0.86941953
H       -0.34754154      -2.05353268      -0.84122604
H       -0.22220288      -0.56196804       1.79959699
H       -1.59067188      -1.51635552       1.22667704
H       -1.77720752       1.21411908       1.04240324
H       -2.37974982       0.22055757      -0.20662942
H        0.23085207       2.94211810      -0.30021486
H        2.17698531       1.14835308      -1.20168424
H        1.93056350      -0.96545505       0.60304675
H        1.91490456      -1.23973363      -1.13240010
16
Frame=10 idx=004637 GeodesicLength=1.073550302036635 rxn_smarts="[C:1]1([H:7])([H:8])[C:2]([H:9])([H:10])[C:3]([H:11])([H:12])[C:4]([H:13])=[C:5]([H:14])[C:6]1([H:15])[H:16]>>[C:1]([C:2]([C:3]([H:7])([H:11])[H:12])([H:9])[H:10])(=[C:6]([H:15])[H:16])[H:8].[C:4](#[C:5][H:14])[H:13]"
C       -0.00755695      -1.20312488      -0.26769409
C       -0.84488777      -0.78011716       0.92086803
C       -1.44275776       0.49038222       0.31093971
C        0.36804518       1.89950977      -0.31333787
C        1.38902804       1.15461860      -0.46432913
C        1.36557034      -0.80154680      -0.30129033
H       -0.75118637       0.08517551      -0.88708277
H       -0.33205118      -2.06992947      -0.83208725
H       -0.22833207      -0.57460323       1.79705067
H       -1.59720574      -1.51557503       1.20667267
H       -1.78632967       1.19580443       1.07101972
H       -2.37780133       0.24450681      -0.20456146
H        0.24520063       2.96983628      -0.29968216
H        2.13913026       1.13766329      -1.23940986
H        1.93020240      -0.97627197       0.61790383
H        1.93093199      -1.25632837      -1.11497971
16
Frame=11 idx=004637 GeodesicLength=1.1811190216634673 rxn_smarts="[C:1]1([H:7])([H:8])[C:2]([H:9])([H:10])[C:3]([H:11])([H:12])[C:4]([H:13])=[C:5]([H:14])[C:6]1([H:15])[H:16]>>[C:1]([C:2]([C:3]([H:7])([H:11])[H:12])([H:9])[H:10])(=[C:6]([H:15])[H:16])[H:8].[C:4](#[C:5][H:14])[H:13]"
C       -0.00174449      -1.20664830      -0.27209737
C       -0.84551367      -0.78026896       0.91154539
C       -1.43813324       0.50166718       0.31672516
C        0.36753247       1.92592991      -0.30775458
C        1.38734784       1.18135465      -0.46643470
C        1.37370477      -0.81441229      -0.29182634
H       -0.75403637       0.07122015      -0.90478474
H       -0.31677643      -2.08624428      -0.82248824
H       -0.23411855      -0.58741197       1.79430212
H       -1.60339672      -1.51436392       1.18655484
H       -1.79563362       1.17654040       1.09892327
H       -2.37489224       0.26894916      -0.20250220
H        0.25941916       2.99819905      -0.30044471
H        2.09965685       1.12652940      -1.27422671
H        1.92987721      -0.98792164       0.63247276
H        1.94670702      -1.27311852      -1.09796396
16
Frame=12 idx=004637 GeodesicLength=1.2887634328932949 rxn_smarts="[C:1]1([H:7])([H:8])[C:2]([H:9])([H:10])[C:3]([H:11])([H:12])[C:4]([H:13])=[C:5]([H:14])[C:6]1([H:15])[H:16]>>[C:1]([C:2]([C:3]([H:7])([H:11])[H:12])([H:9])[H:10])(=[C:6]([H:15])[H:16])[H:8].[C:4](#[C:5][H:14])[H:13]"
C        0.00416087      -1.21029415      -0.27667419
C       -0.84571089      -0.78024904       0.90216118
C       -1.43294333       0.51321447       0.32308566
C        0.36707907       1.95326990      -0.30169034
C        1.38532428       1.20886259      -0.46938146
C        1.38188191      -0.82793540      -0.28250592
H       -0.75706586       0.05678964      -0.92252157
H       -0.30178110      -2.10245221      -0.81244797
H       -0.23954959      -0.60040558       1.79135873
H       -1.60923761      -1.51271228       1.16635344
H       -1.80508837       1.15635232       1.12604802
H       -2.37096567       0.29390643      -0.20044210
H        0.27337553       3.02721897      -0.30266791
H        2.05872897       1.11507419      -1.30596322
H        1.92959828      -1.00055229       0.64672256
H        1.96219351      -1.29008757      -1.08143490
16
Frame=13 idx=004637 GeodesicLength=1.3964940533653227 rxn_smarts="[C:1]1([H:7])([H:8])[C:2]([H:9])([H:10])[C:3]([H:11])([H:12])[C:4]([H:13])=[C:5]([H:14])[C:6]1([H:15])[H:16]>>[C:1]([C:2]([C:3]([H:7])([H:11])[H:12])([H:9])[H:10])(=[C:6]([H:15])[H:16])[H:8].[C:4](#[C:5][H:14])[H:13]"
C        0.01015260      -1.21408684      -0.28141456
C       -0.84546428      -0.78005842       0.89273886
C       -1.42715621       0.52501243       0.33006660
C        0.36666695       1.98157115      -0.29517147
C        1.38293160       1.23718827      -0.47303951
C        1.39009497      -0.84217257      -0.27333766
H       -0.76030192       0.04183585      -0.94028765
H       -0.28714025      -2.11852269      -0.80199991
H       -0.24460693      -0.61358903       1.78823049
H       -1.61471876      -1.51060737       1.14610644
H       -1.81467759       1.13526447       1.15233171
H       -2.36595920       0.31940255      -0.19837445
H        0.28690712       3.05689378      -0.30655281
H        2.01653455       1.10342283      -1.33443525
H        1.92937909      -1.01432116       0.66061969
H        1.97735825      -1.30723324      -1.06548053
16
Frame=14 idx=004637 GeodesicLength=1.5043189068887777 rxn_smarts="[C:1]1([H:7])([H:8])[C:2]([H:9])([H:10])[C:3]([H:11])([H:12])[C:4]([H:13])=[C:5]([H:14])[C:6]1([H:15])[H:16]>>[C:1]([C:2]([C:3]([H:7])([H:11])[H:12])([H:9])[H:10])(=[C:6]([H:15])[H:16])[H:8].[C:4](#[C:5][H:14])[H:13]"
C        0.01622520      -1.21805094      -0.28630703
C       -0.84475487      -0.77969358       0.88330147
C       -1.42073626       0.53705053       0.33771110
C        0.36627010       2.01087733      -0.28823138
C        1.38013738       1.26638203      -0.47729844
C        1.39833674      -0.85718516      -0.26433118
H       -0.76377164       0.02630595      -0.95807838
H       -0.27293036      -2.13442792      -0.79118028
H       -0.24926977      -0.62695983       1.78492580
H       -1.61982544      -1.50803100       1.12585486
H       -1.82438857       1.11330719       1.17770253
H       -2.35979923       0.34546562      -0.19629772
H        0.29983712       3.08721589      -0.31225731
H        1.97326783       1.09169924      -1.35946835
H        1.92922930      -1.02938145       0.67413279
H        1.99217246      -1.32457392      -1.05017848
16
Frame=15 idx=004637 GeodesicLength=1.6122475267564451 rxn_smarts="[C:1]1([H:7])([H:8])[C:2]([H:9])([H:10])[C:3]([H:11])([H:12])[C:4]([H:13])=[C:5]([H:14])[C:6]1([H:15])[H:16]>>[C:1]([C:2]([C:3]([H:7])([H:11])[H:12])([H:9])[H:10])(=[C:6]([H:15])[H:16])[H:8].[C:4](#[C:5][H:14])[H:13]"
C        0.02237224      -1.22220980      -0.29134120
C       -0.84355964      -0.77914770       0.87387294
C       -1.41364396       0.54932008       0.34606449
C        0.36585804       2.04123772      -0.28090125
C        1.37690734       1.29650121      -0.48205271
C        1.40659942      -0.87304065      -0.25549969
H       -0.76750104       0.01014797      -0.97588840
H       -0.25923368      -2.15014060      -0.78003196
H       -0.25351236      -0.64051047       1.78145280
H       -1.62453809      -1.50496172       1.10564514
H       -1.83421391       1.09051520       1.20208406
H       -2.35240030       0.37212941      -0.19421285
H        0.31196017       3.11816688      -0.31993547
H        1.92914191       1.08002861      -1.38088048
H        1.92915562      -1.04589212       0.68722853
H        2.00660822      -1.34214402      -1.03560396
16
Frame=16 idx=004637 GeodesicLength=1.720288885850024 rxn_smarts="[C:1]1([H:7])([H:8])[C:2]([H:9])([H:10])[C:3]([H:11])([H:12])[C:4]([H:13])=[C:5]([H:14])[C:6]1([H:15])[H:16]>>[C:1]([C:2]([C:3]([H:7])([H:11])[H:12])([H:9])[H:10])(=[C:6]([H:15])[H:16])[H:8].[C:4](#[C:5][H:14])[H:13]"
C        0.02858811      -1.22658574      -0.29650477
C       -0.84185110      -0.77840966       0.86447669
C       -1.40583142       0.56181438       0.35517235
C        0.36539263       2.07270693      -0.27322822
C        1.37320178       1.32761187      -0.48721951
C        1.41487442      -0.88980997      -0.24685595
H       -0.77151485      -0.00669498      -0.99371141
H       -0.24613552      -2.16563443      -0.76860180
H       -0.25730625      -0.65422709       1.77781864
H       -1.62883272      -1.50137343       1.08552609
H       -1.84415312       1.06692536       1.22538853
H       -2.34365724       0.39943367      -0.19212771
H        0.32305382       3.14972099      -0.32968699
H        1.88437238       1.06852164      -1.39850349
H        1.92915945      -1.06400380       0.69987613
H        2.02063963      -1.35999573      -1.02181859
