10
Frame=0 idx=000142 GeodesicLength=0.0 rxn_smarts="[O:1]=[C:2]1[C:3]([H:7])([H:8])[C@@:4]2([H:9])[O:5][C@@:6]12[H:10]>>[O:1]=[C:2]1[C:3]([H:7])([H:8])[C:4][C@:6]1([O:5][H:9])[H:10]"
O       -0.24696728       2.26029776      -0.12835554
C       -0.13531787       1.07735534      -0.08129562
C       -1.09877618      -0.08478381       0.20681591
C        0.12653033      -0.94664028       0.53886257
O        0.90842154      -0.78248075      -1.02423466
C        1.05588531       0.13968653       0.05643218
H       -1.74795304      -0.45523470      -0.58348930
H       -1.69744470       0.12456872       1.09760989
H        0.76449497      -1.71549665      -0.43191619
H        2.07112693       0.38272785       0.34957075
10
Frame=1 idx=000142 GeodesicLength=0.04110112205086596 rxn_smarts="[O:1]=[C:2]1[C:3]([H:7])([H:8])[C@@:4]2([H:9])[O:5][C@@:6]12[H:10]>>[O:1]=[C:2]1[C:3]([H:7])([H:8])[C:4][C@:6]1([O:5][H:9])[H:10]"
O       -0.24806833       2.26263167      -0.12345109
C       -0.13625741       1.07945621      -0.08143541
C       -1.09958169      -0.08321503       0.20599125
C        0.12629859      -0.94542707       0.53220514
O        0.90590090      -0.78374588      -1.02317931
C        1.05533615       0.14210543       0.05437593
H       -1.74945864      -0.45109218      -0.58500619
H       -1.69718122       0.12348734       1.09807616
H        0.77211717      -1.72800492      -0.42493271
H        2.07089448       0.38380444       0.34735625
10
Frame=2 idx=000142 GeodesicLength=0.08219875106877716 rxn_smarts="[O:1]=[C:2]1[C:3]([H:7])([H:8])[C@@:4]2([H:9])[O:5][C@@:6]12[H:10]>>[O:1]=[C:2]1[C:3]([H:7])([H:8])[C:4][C@:6]1([O:5][H:9])[H:10]"
O       -0.24917046       2.26494373      -0.11853069
C       -0.13719793       1.08155577      -0.08158148
C       -1.10037404      -0.08165860       0.20515906
C        0.12607592      -0.94423368       0.52546921
O        0.90344836      -0.78497887      -1.02218973
C        1.05478662       0.14452567       0.05227849
H       -1.75096575      -0.44693396      -0.58652280
H       -1.69687696       0.12235907       1.09854986
H        0.77962586      -1.74045227      -0.41778331
H        2.07064837       0.38487314       0.34515138
10
Frame=3 idx=000142 GeodesicLength=0.12329027984655072 rxn_smarts="[O:1]=[C:2]1[C:3]([H:7])([H:8])[C@@:4]2([H:9])[O:5][C@@:6]12[H:10]>>[O:1]=[C:2]1[C:3]([H:7])([H:8])[C:4][C@:6]1([O:5][H:9])[H:10]"
O       -0.25027473       2.26723297      -0.11360405
C       -0.13813857       1.08365426      -0.08172663
C       -1.10115131      -0.08011550       0.20432036
C        0.12586404      -0.94305973       0.51865345
O        0.90106313      -0.78616931      -1.02127265
C        1.05423757       0.14694726       0.05014187
H       -1.75247156      -0.44276189      -0.58803754
H       -1.69653072       0.12118190       1.09903136
H        0.78701342      -1.75284178      -0.41046678
H        2.07038871       0.38593182       0.34296061
10
Frame=4 idx=000142 GeodesicLength=0.16437866099070336 rxn_smarts="[O:1]=[C:2]1[C:3]([H:7])([H:8])[C@@:4]2([H:9])[O:5][C@@:6]12[H:10]>>[O:1]=[C:2]1[C:3]([H:7])([H:8])[C:4][C@:6]1([O:5][H:9])[H:10]"
O       -0.25137995       2.26950247      -0.10864596
C       -0.13907948       1.08575344      -0.08187372
C       -1.10191344      -0.07858628       0.20347032
C        0.12566424      -0.94190000       0.51176181
O        0.89874111      -0.78732068      -1.02043127
C        1.05368967       0.14937149       0.04795908
H       -1.75397315      -0.43857545      -0.58955865
H       -1.69614708       0.11995228       1.09951330
H        0.79427909      -1.76518272      -0.40296115
H        2.07011899       0.38698544       0.34076622
10
Frame=5 idx=000142 GeodesicLength=0.20545931645533738 rxn_smarts="[O:1]=[C:2]1[C:3]([H:7])([H:8])[C@@:4]2([H:9])[O:5][C@@:6]12[H:10]>>[O:1]=[C:2]1[C:3]([H:7])([H:8])[C:4][C@:6]1([O:5][H:9])[H:10]"
O       -0.25248730       2.27174751      -0.10368040
C       -0.14001936       1.08785178      -0.08201358
C       -1.10265812      -0.07707242       0.20261236
C        0.12547892      -0.94075614       0.50478886
O        0.89648345      -0.78841611      -1.01967240
C        1.05314464       0.15179888       0.04573520
H       -1.75547182      -0.43437481      -0.59107826
H       -1.69572256       0.11866705       1.09999824
H        0.80141332      -1.77747502      -0.39527275
H        2.06983882       0.38802929       0.33858272
10
Frame=6 idx=000142 GeodesicLength=0.24653686027072264 rxn_smarts="[O:1]=[C:2]1[C:3]([H:7])([H:8])[C@@:4]2([H:9])[O:5][C@@:6]12[H:10]>>[O:1]=[C:2]1[C:3]([H:7])([H:8])[C:4][C@:6]1([O:5][H:9])[H:10]"
O       -0.25359545       2.27397342      -0.09867995
C       -0.14095921       1.08995187      -0.08215067
C       -1.10338558      -0.07557436       0.20174142
C        0.12530820      -0.93962445       0.49773705
O        0.89428531      -0.78946112      -1.01900107
C        1.05260175       0.15423002       0.04346274
H       -1.75696520      -0.43015820      -0.59260596
H       -1.69526040       0.11732334       1.10048079
H        0.80842058      -1.78972840      -0.38737659
H        2.06954999       0.38906787       0.33639225
10
Frame=7 idx=000142 GeodesicLength=0.2876126952588548 rxn_smarts="[O:1]=[C:2]1[C:3]([H:7])([H:8])[C@@:4]2([H:9])[O:5][C@@:6]12[H:10]>>[O:1]=[C:2]1[C:3]([H:7])([H:8])[C:4][C@:6]1([O:5][H:9])[H:10]"
O       -0.25470496       2.27618022      -0.09362486
C       -0.14189968       1.09205431      -0.08228835
C       -1.10409572      -0.07409186       0.20085312
C        0.12515293      -0.93850132       0.49060531
O        0.89214399      -0.79045607      -1.01842143
C        1.05206095       0.15666604       0.04113519
H       -1.75845256      -0.42592526      -0.59414579
H       -1.69476088       0.11592065       1.10095568
H        0.81530225      -1.80194882      -0.37925315
H        2.06925367       0.39010213       0.33418428
10
Frame=8 idx=000142 GeodesicLength=0.3286855168083384 rxn_smarts="[O:1]=[C:2]1[C:3]([H:7])([H:8])[C@@:4]2([H:9])[O:5][C@@:6]12[H:10]>>[O:1]=[C:2]1[C:3]([H:7])([H:8])[C:4][C@:6]1([O:5][H:9])[H:10]"
O       -0.25581567       2.27836682      -0.08852261
C       -0.14283956       1.09415934      -0.08242025
C       -1.10478646      -0.07262635       0.19994790
C        0.12501456      -0.93738665       0.48339014
O        0.89005733      -0.79139121      -1.01793993
C        1.05152284       0.15910794       0.03875397
H       -1.75993175      -0.42167824      -0.59569644
H       -1.69422130       0.11445586       1.10142275
H        0.82205033      -1.81413878      -0.37089812
H        2.06894968       0.39113126       0.33196259
10
Frame=9 idx=000142 GeodesicLength=0.3697559853934987 rxn_smarts="[O:1]=[C:2]1[C:3]([H:7])([H:8])[C@@:4]2([H:9])[O:5][C@@:6]12[H:10]>>[O:1]=[C:2]1[C:3]([H:7])([H:8])[C:4][C@:6]1([O:5][H:9])[H:10]"
O       -0.25692939       2.28053445      -0.08336989
C       -0.14377932       1.09626820      -0.08254426
C       -1.10545802      -0.07117814       0.19902482
C        0.12489486      -0.93628022       0.47608963
O        0.88802554      -0.79226183      -1.01756379
C        1.05098911       0.16155590       0.03631695
H       -1.76140323      -0.41741568      -0.59725968
H       -1.69364328       0.11292626       1.10188186
H        0.82866287      -1.82630309      -0.36229999
H        2.06864087       0.39215415       0.32972435
10
Frame=10 idx=000142 GeodesicLength=0.41082126297991317 rxn_smarts="[O:1]=[C:2]1[C:3]([H:7])([H:8])[C@@:4]2([H:9])[O:5][C@@:6]12[H:10]>>[O:1]=[C:2]1[C:3]([H:7])([H:8])[C:4][C@:6]1([O:5][H:9])[H:10]"
O       -0.25804487       2.28268164      -0.07816183
C       -0.14471790       1.09838077      -0.08265790
C       -1.10610805      -0.06974871       0.19808200
C        0.12479471      -0.93518010       0.46870022
O        0.88604545      -0.79306273      -1.01729769
C        1.05045948       0.16401146       0.03382211
H       -1.76286439      -0.41313871      -0.59883649
H       -1.69302370       0.11132790       1.10232950
H        0.83513281      -1.83844411      -0.35344617
H        2.06832647       0.39317259       0.32746625
10
Frame=11 idx=000142 GeodesicLength=0.45188588410540437 rxn_smarts="[O:1]=[C:2]1[C:3]([H:7])([H:8])[C@@:4]2([H:9])[O:5][C@@:6]12[H:10]>>[O:1]=[C:2]1[C:3]([H:7])([H:8])[C:4][C@:6]1([O:5][H:9])[H:10]"
O       -0.25916067       2.28481043      -0.07288087
C       -0.14565650       1.10049887      -0.08276204
C       -1.10673730      -0.06833791       0.19711557
C        0.12471494      -0.93408437       0.46122035
O        0.88411374      -0.79379308      -1.01714759
C        1.04993394       0.16647554       0.03126379
H       -1.76431556      -0.40884544      -0.60043161
H       -1.69236621       0.10965673       1.10276122
H        0.84146434      -1.85056642      -0.34431382
H        2.06800929       0.39418565       0.32517500
10
Frame=12 idx=000142 GeodesicLength=0.4929478723084828 rxn_smarts="[O:1]=[C:2]1[C:3]([H:7])([H:8])[C@@:4]2([H:9])[O:5][C@@:6]12[H:10]>>[O:1]=[C:2]1[C:3]([H:7])([H:8])[C:4][C@:6]1([O:5][H:9])[H:10]"
O       -0.26027892       2.28691889      -0.06753304
C       -0.14659415       1.10262206      -0.08285124
C       -1.10734445      -0.06694702       0.19612618
C        0.12465720      -0.93299364       0.45364474
O        0.88222973      -0.79444480      -1.01712179
C        1.04941400       0.16894831       0.02864192
H       -1.76575636      -0.40453485      -0.60204477
H       -1.69166779       0.10791016       1.10317872
H        0.84765092      -1.86267231      -0.33489578
H        2.06768984       0.39519319       0.32285506
10
Frame=13 idx=000142 GeodesicLength=0.5340029697069401 rxn_smarts="[O:1]=[C:2]1[C:3]([H:7])([H:8])[C@@:4]2([H:9])[O:5][C@@:6]12[H:10]>>[O:1]=[C:2]1[C:3]([H:7])([H:8])[C:4][C@:6]1([O:5][H:9])[H:10]"
O       -0.26140256       2.28900600      -0.06213078
C       -0.14752901       1.10475044      -0.08291838
C       -1.10792663      -0.06557745       0.19511497
C        0.12462344      -0.93190909       0.44596673
O        0.88039498      -0.79500684      -1.01722697
C        1.04890115       0.17143088       0.02595912
H       -1.76718410      -0.40020814      -0.60367358
H       -1.69092253       0.10608277       1.10358414
H        0.85367748      -1.87476332      -0.32518856
H        2.06736780       0.39619476       0.32051331
10
Frame=14 idx=000142 GeodesicLength=0.5750557276832154 rxn_smarts="[O:1]=[C:2]1[C:3]([H:7])([H:8])[C@@:4]2([H:9])[O:5][C@@:6]12[H:10]>>[O:1]=[C:2]1[C:3]([H:7])([H:8])[C:4][C@:6]1([O:5][H:9])[H:10]"
O       -0.26252899       2.29107259      -0.05665105
C       -0.14846232       1.10688499      -0.08296574
C       -1.10848497      -0.06422993       0.19407745
C        0.12461434      -0.93082878       0.43818387
O        0.87860490      -0.79547996      -1.01747036
C        1.04839543       0.17392391       0.02320743
H       -1.76860054      -0.39586218      -0.60532383
H       -1.69013442       0.10417123       1.10397192
H        0.85955039      -1.88684298      -0.31516435
H        2.06704618       0.39719110       0.31813466
10
Frame=15 idx=000142 GeodesicLength=0.6161073695531041 rxn_smarts="[O:1]=[C:2]1[C:3]([H:7])([H:8])[C@@:4]2([H:9])[O:5][C@@:6]12[H:10]>>[O:1]=[C:2]1[C:3]([H:7])([H:8])[C:4][C@:6]1([O:5][H:9])[H:10]"
O       -0.26365797       2.29311827      -0.05107185
C       -0.14939417       1.10902664      -0.08299563
C       -1.10901802      -0.06290474       0.19300899
C        0.12463121      -0.92974991       0.43029138
O        0.87685529      -0.79586591      -1.01785942
C        1.04789639       0.17642853       0.02037705
H       -1.77000439      -0.39149432      -0.60700030
H       -1.68930216       0.10217146       1.10433682
H        0.86526993      -1.89891339      -0.30479554
H        2.06672388       0.39818337       0.31570851
10
Frame=16 idx=000142 GeodesicLength=0.6571551514378625 rxn_smarts="[O:1]=[C:2]1[C:3]([H:7])([H:8])[C@@:4]2([H:9])[O:5][C@@:6]12[H:10]>>[O:1]=[C:2]1[C:3]([H:7])([H:8])[C:4][C@:6]1([O:5][H:9])[H:10]"
O       -0.26478725       2.29514105      -0.04538980
C       -0.15032394       1.11117475      -0.08300343
C       -1.10952545      -0.06160350       0.19190771
C        0.12467462      -0.92867279       0.42228436
O        0.87514516      -0.79615608      -1.01840069
C        1.04740518       0.17894510       0.01746944
H       -1.77139488      -0.38710642      -0.60870466
H       -1.68842551       0.10007852       1.10467634
H        0.87082739      -1.91097396      -0.29406671
H        2.06640468       0.39917333       0.31322743
