16
Frame=0 idx=004074 GeodesicLength=0.0 rxn_smarts="[C:1]([C@@:2]1([H:10])[C:3]([H:11])([H:12])[C@:4]1([C:5]([H:13])([H:14])[H:15])[O:6][H:16])([H:7])([H:8])[H:9]>>[C:1]([C@@:2]1([H:10])[C:3]([H:11])([H:12])[C:4]1=[O:6])([H:7])([H:8])[H:9].[C:5]([H:13])([H:14])([H:15])[H:16]"
C        1.48175700      -0.27924306       0.99116052
C        1.03268328      -0.04060132      -0.42481396
C        0.05963193      -1.02766604      -1.09654573
C       -0.31211338       0.39356528      -0.88048233
C       -1.52788911       0.57048603       0.60766780
O       -0.66202358       1.31313035      -1.73764616
H        2.36209030      -0.92484861       1.00666730
H        1.74823968       0.65873077       1.48381008
H        0.70853191      -0.76914017       1.58512767
H        1.79309765       0.37793304      -1.07843577
H        0.21392883      -1.31311092      -2.12995530
H       -0.32837345      -1.80762140      -0.45394573
H       -1.91204966      -0.43532429       0.72098426
H       -2.39067313       1.25527193       0.54309908
H       -0.89587858       0.90296548       1.42199395
H       -1.37095967       1.12547296      -0.55868565
16
Frame=1 idx=004074 GeodesicLength=0.11621703049589868 rxn_smarts="[C:1]([C@@:2]1([H:10])[C:3]([H:11])([H:12])[C@:4]1([C:5]([H:13])([H:14])[H:15])[O:6][H:16])([H:7])([H:8])[H:9]>>[C:1]([C@@:2]1([H:10])[C:3]([H:11])([H:12])[C:4]1=[O:6])([H:7])([H:8])[H:9].[C:5]([H:13])([H:14])([H:15])[H:16]"
C        1.50288501      -0.27357675       0.98660188
C        1.04409756      -0.03987640      -0.42711353
C        0.06952886      -1.03068594      -1.09098117
C       -0.30411430       0.38967259      -0.87521221
C       -1.55356345       0.56927958       0.60235663
O       -0.65016135       1.30738802      -1.73596017
H        2.38231885      -0.92046641       1.00009034
H        1.77231072       0.66623883       1.47408210
H        0.73157935      -0.76032360       1.58573504
H        1.80376166       0.37065122      -1.08687353
H        0.22386187      -1.32126108      -2.12295217
H       -0.31986503      -1.80702826      -0.44459918
H       -1.99499120      -0.41580697       0.69268291
H       -2.37351280       1.30639464       0.57303110
H       -0.93114163       0.83278596       1.44937316
H       -1.40299413       1.12661458      -0.58026120
16
Frame=2 idx=004074 GeodesicLength=0.2312348547740373 rxn_smarts="[C:1]([C@@:2]1([H:10])[C:3]([H:11])([H:12])[C@:4]1([C:5]([H:13])([H:14])[H:15])[O:6][H:16])([H:7])([H:8])[H:9]>>[C:1]([C@@:2]1([H:10])[C:3]([H:11])([H:12])[C:4]1=[O:6])([H:7])([H:8])[H:9].[C:5]([H:13])([H:14])([H:15])[H:16]"
C        1.52402401      -0.26676565       0.98200586
C        1.05569239      -0.03939027      -0.42954899
C        0.07924710      -1.03403210      -1.08466905
C       -0.29609922       0.38540801      -0.86953838
C       -1.57895716       0.56767997       0.59726379
O       -0.63953961       1.30118198      -1.73321996
H        2.40327096      -0.91386568       0.99394068
H        1.79512219       0.67535309       1.46392926
H        0.75536293      -0.75107732       1.58649940
H        1.81419601       0.36312066      -1.09567077
H        0.23296993      -1.32994981      -2.11512617
H       -0.31155062      -1.80635272      -0.43417970
H       -2.08110989      -0.39078504       0.66005601
H       -2.34832887       1.35721664       0.60567397
H       -0.96938347       0.75419302       1.47426859
H       -1.43491668       1.12806523      -0.60168453
16
Frame=3 idx=004074 GeodesicLength=0.3456563982464722 rxn_smarts="[C:1]([C@@:2]1([H:10])[C:3]([H:11])([H:12])[C@:4]1([C:5]([H:13])([H:14])[H:15])[O:6][H:16])([H:7])([H:8])[H:9]>>[C:1]([C@@:2]1([H:10])[C:3]([H:11])([H:12])[C:4]1=[O:6])([H:7])([H:8])[H:9].[C:5]([H:13])([H:14])([H:15])[H:16]"
C        1.54477995      -0.25872494       0.97747825
C        1.06739606      -0.03927349      -0.43232274
C        0.08889046      -1.03796990      -1.07788982
C       -0.28817154       0.38066386      -0.86382087
C       -1.60398065       0.56553839       0.59259717
O       -0.63049609       1.29442683      -1.72995308
H        2.42464312      -0.90503759       0.98855879
H        1.81610800       0.68633408       1.45339649
H        0.77943469      -0.74126794       1.58762781
H        1.82436874       0.35532555      -1.10505107
H        0.24149973      -1.33946635      -2.10687320
H       -0.30323256      -1.80600722      -0.42289266
H       -2.16930612      -0.35947751       0.62415937
H       -2.31455566       1.40637809       0.64158870
H       -1.01136004       0.66730346       1.49556367
H       -1.46601809       1.13125470      -0.62216681
16
Frame=4 idx=004074 GeodesicLength=0.45859807456017065 rxn_smarts="[C:1]([C@@:2]1([H:10])[C:3]([H:11])([H:12])[C@:4]1([C:5]([H:13])([H:14])[H:15])[O:6][H:16])([H:7])([H:8])[H:9]>>[C:1]([C@@:2]1([H:10])[C:3]([H:11])([H:12])[C:4]1=[O:6])([H:7])([H:8])[H:9].[C:5]([H:13])([H:14])([H:15])[H:16]"
C        1.56464923      -0.24939337       0.97304847
C        1.07905154      -0.03961158      -0.43540332
C        0.09837233      -1.04248838      -1.07083764
C       -0.28036323       0.37525904      -0.85820913
C       -1.62826321       0.56253362       0.58836033
O       -0.62309913       1.28689424      -1.72609651
H        2.44562647      -0.89414968       0.98425110
H        1.83516266       0.69913129       1.44236977
H        0.80302135      -0.73031867       1.58905183
H        1.83419173       0.34722158      -1.11471195
H        0.24942869      -1.34969154      -2.09829622
H       -0.29496442      -1.80600156      -0.41115190
H       -2.25802619      -0.32128940       0.58622065
H       -2.27226941       1.45117080       0.68111186
H       -1.05682810       0.57368750       1.51125179
H       -1.49569031       1.13704612      -0.64095913
16
Frame=5 idx=004074 GeodesicLength=0.5706560650885275 rxn_smarts="[C:1]([C@@:2]1([H:10])[C:3]([H:11])([H:12])[C@:4]1([C:5]([H:13])([H:14])[H:15])[O:6][H:16])([H:7])([H:8])[H:9]>>[C:1]([C@@:2]1([H:10])[C:3]([H:11])([H:12])[C:4]1=[O:6])([H:7])([H:8])[H:9].[C:5]([H:13])([H:14])([H:15])[H:16]"
C        1.58318485      -0.23886258       0.96877082
C        1.09063153      -0.04047820      -0.43893761
C        0.10792144      -1.04774404      -1.06386152
C       -0.27269614       0.36908365      -0.85308347
C       -1.65179748       0.55857286       0.58463936
O       -0.61747139       1.27854707      -1.72207944
H        2.46557269      -0.88168194       0.98134366
H        1.85214296       0.71365497       1.43073925
H        0.82530853      -0.71785179       1.59087241
H        1.84378026       0.33890163      -1.12469312
H        0.25726052      -1.36067826      -2.08979582
H       -0.28649679      -1.80666833      -0.39932853
H       -2.34561951      -0.27605701       0.54830404
H       -2.22192371       1.48976324       0.72454381
H       -1.10607999       0.47514201       1.52019137
H       -1.52371776       1.14635672      -0.65762520
16
Frame=6 idx=004074 GeodesicLength=0.6816472620368503 rxn_smarts="[C:1]([C@@:2]1([H:10])[C:3]([H:11])([H:12])[C@:4]1([C:5]([H:13])([H:14])[H:15])[O:6][H:16])([H:7])([H:8])[H:9]>>[C:1]([C@@:2]1([H:10])[C:3]([H:11])([H:12])[C:4]1=[O:6])([H:7])([H:8])[H:9].[C:5]([H:13])([H:14])([H:15])[H:16]"
C        1.60016861      -0.22731748       0.96473373
C        1.10210170      -0.04190083      -0.44287776
C        0.11761277      -1.05370199      -1.05725339
C       -0.26513220       0.36206750      -0.84858736
C       -1.67449584       0.55363525       0.58132716
O       -0.61359835       1.26936704      -1.71786665
H        2.48382677      -0.86836628       0.98008101
H        1.86754851       0.72955059       1.41847351
H        0.84561071      -0.70328898       1.59313958
H        1.85319706       0.33038714      -1.13476666
H        0.26518430      -1.37227462      -2.08168753
H       -0.27773992      -1.80802347      -0.38786704
H       -2.43056679      -0.22388162       0.51234323
H       -2.16526236       1.51971226       0.77150233
H       -1.15839624       0.37446675       1.52123551
H       -1.55005873       1.15956875      -0.67192965
16
Frame=7 idx=004074 GeodesicLength=0.7919515173856584 rxn_smarts="[C:1]([C@@:2]1([H:10])[C:3]([H:11])([H:12])[C@:4]1([C:5]([H:13])([H:14])[H:15])[O:6][H:16])([H:7])([H:8])[H:9]>>[C:1]([C@@:2]1([H:10])[C:3]([H:11])([H:12])[C:4]1=[O:6])([H:7])([H:8])[H:9].[C:5]([H:13])([H:14])([H:15])[H:16]"
C        1.61536723      -0.21491012       0.96091089
C        1.11344891      -0.04383074      -0.44723691
C        0.12768103      -1.06044423      -1.05119091
C       -0.25760796       0.35417036      -0.84488127
C       -1.69645659       0.54780359       0.57834372
O       -0.61147435       1.25940342      -1.71357323
H        2.49984746      -0.85474119       0.98055169
H        1.88156075       0.74661897       1.40542117
H        0.86336421      -0.68636603       1.59576086
H        1.86249489       0.32188715      -1.14484028
H        0.27362940      -1.38447167      -2.07414059
H       -0.26848407      -1.81027792      -0.37699517
H       -2.51158958      -0.16524943       0.48008003
H       -2.10316602       1.53996251       0.82166258
H       -1.21373443       0.27364263       1.51407681
H       -1.57488088       1.17680270      -0.68394938
16
Frame=8 idx=004074 GeodesicLength=0.9016174622970655 rxn_smarts="[C:1]([C@@:2]1([H:10])[C:3]([H:11])([H:12])[C@:4]1([C:5]([H:13])([H:14])[H:15])[O:6][H:16])([H:7])([H:8])[H:9]>>[C:1]([C@@:2]1([H:10])[C:3]([H:11])([H:12])[C:4]1=[O:6])([H:7])([H:8])[H:9].[C:5]([H:13])([H:14])([H:15])[H:16]"
C        1.62907975      -0.20189610       0.95737620
C        1.12479774      -0.04623806      -0.45190133
C        0.13812773      -1.06779991      -1.04574944
C       -0.25005320       0.34540137      -0.84193562
C       -1.71786295       0.54124938       0.57543665
O       -0.61107305       1.24862993      -1.70905341
H        2.51367295      -0.84140488       0.98280771
H        1.89510656       0.76435373       1.39163249
H        0.87850731      -0.66683451       1.59875295
H        1.87188253       0.31338992      -1.15476055
H        0.28257495      -1.39701522      -2.06726298
H       -0.25881104      -1.81317401      -0.36683698
H       -2.58806500      -0.10057967       0.45284419
H       -2.03806257       1.54916672       0.87388503
H       -1.27138209       0.17484915       1.49861245
H       -1.59843960       1.19790216      -0.69384735
16
Frame=9 idx=004074 GeodesicLength=1.0106777793304276 rxn_smarts="[C:1]([C@@:2]1([H:10])[C:3]([H:11])([H:12])[C@:4]1([C:5]([H:13])([H:14])[H:15])[O:6][H:16])([H:7])([H:8])[H:9]>>[C:1]([C@@:2]1([H:10])[C:3]([H:11])([H:12])[C:4]1=[O:6])([H:7])([H:8])[H:9].[C:5]([H:13])([H:14])([H:15])[H:16]"
C        1.64120941      -0.18846257       0.95391454
C        1.13608257      -0.04911429      -0.45680603
C        0.14929600      -1.07580042      -1.04075823
C       -0.24241053       0.33577202      -0.83965116
C       -1.73885685       0.53423034       0.57241380
O       -0.61250611       1.23711032      -1.70408840
H        2.52508621      -0.82870255       0.98659530
H        1.90805519       0.78249703       1.37678872
H        0.89100390      -0.64473706       1.60173834
H        1.88115140       0.30491641      -1.16440685
H        0.29246136      -1.40992744      -2.06074147
H       -0.24827000      -1.81671619      -0.35725122
H       -2.65904313      -0.03042421       0.43137314
H       -1.97092531       1.54716293       0.92755001
H       -1.33139743       0.07932620       1.47504067
H       -1.62093668       1.22286949      -0.70171115
16
Frame=10 idx=004074 GeodesicLength=1.119467135444781 rxn_smarts="[C:1]([C@@:2]1([H:10])[C:3]([H:11])([H:12])[C@:4]1([C:5]([H:13])([H:14])[H:15])[O:6][H:16])([H:7])([H:8])[H:9]>>[C:1]([C@@:2]1([H:10])[C:3]([H:11])([H:12])[C:4]1=[O:6])([H:7])([H:8])[H:9].[C:5]([H:13])([H:14])([H:15])[H:16]"
C        1.65223905      -0.17470838       0.95070192
C        1.14751967      -0.05234842      -0.46191100
C        0.16101600      -1.08440124      -1.03635107
C       -0.23453746       0.32532769      -0.83803635
C       -1.75965030       0.52702075       0.56914963
O       -0.61557550       1.22483635      -1.69866987
H        2.53451888      -0.81670504       0.99194975
H        1.92123760       0.80085925       1.36131071
H        0.90112038      -0.62027705       1.60486168
H        1.89067518       0.29662227      -1.17386353
H        0.30305487      -1.42317438      -2.05489659
H       -0.23734325      -1.82081040      -0.34829048
H       -2.72451830       0.04455646       0.41675566
H       -1.90372013       1.53389380       0.98137004
H       -1.39344268      -0.01196527       1.44386279
H       -1.64259401       1.25127359      -0.70794329
16
Frame=11 idx=004074 GeodesicLength=1.2283878396529808 rxn_smarts="[C:1]([C@@:2]1([H:10])[C:3]([H:11])([H:12])[C@:4]1([C:5]([H:13])([H:14])[H:15])[O:6][H:16])([H:7])([H:8])[H:9]>>[C:1]([C@@:2]1([H:10])[C:3]([H:11])([H:12])[C:4]1=[O:6])([H:7])([H:8])[H:9].[C:5]([H:13])([H:14])([H:15])[H:16]"
C        1.66229871      -0.16072093       0.94765336
C        1.15916562      -0.05591929      -0.46720136
C        0.17343878      -1.09366280      -1.03241333
C       -0.22636894       0.31408867      -0.83705070
C       -1.78047375       0.51988722       0.56559303
O       -0.62030771       1.21189141      -1.69271328
H        2.54217244      -0.80536759       0.99867599
H        1.93461009       0.81933673       1.34519318
H        0.90912538      -0.59375637       1.60791701
H        1.90045482       0.28854380      -1.18319577
H        0.31449379      -1.43684227      -2.04960982
H       -0.22595622      -1.82544484      -0.33975086
H       -2.78396207       0.12351683       0.40921046
H       -1.83702021       1.50971302       1.03481932
H       -1.45803737      -0.09826315       1.40568888
H       -1.66363337       1.28299958      -0.71281611
16
Frame=12 idx=004074 GeodesicLength=1.3368581072652694 rxn_smarts="[C:1]([C@@:2]1([H:10])[C:3]([H:11])([H:12])[C@:4]1([C:5]([H:13])([H:14])[H:15])[O:6][H:16])([H:7])([H:8])[H:9]>>[C:1]([C@@:2]1([H:10])[C:3]([H:11])([H:12])[C:4]1=[O:6])([H:7])([H:8])[H:9].[C:5]([H:13])([H:14])([H:15])[H:16]"
C        1.67153693      -0.14665192       0.94462417
C        1.17097390      -0.05982186      -0.47254109
C        0.18667098      -1.10350149      -1.02868383
C       -0.21781979       0.30212457      -0.83643123
C       -1.80124191       0.51323220       0.56157154
O       -0.62674663       1.19828542      -1.68563884
H        2.54828114      -0.79467236       1.00643745
H        1.94802430       0.83766631       1.32845525
H        0.91544149      -0.56558797       1.61058991
H        1.91029453       0.28062035      -1.19223940
H        0.32688263      -1.45088491      -2.04449726
H       -0.21399627      -1.83039370      -0.33144188
H       -2.83684333       0.20608978       0.40948095
H       -1.77230769       1.47517030       1.08656588
H       -1.52483199      -0.17928414       1.36028928
H       -1.68431828       1.31760941      -0.71654090
16
Frame=13 idx=004074 GeodesicLength=1.44588378987393 rxn_smarts="[C:1]([C@@:2]1([H:10])[C:3]([H:11])([H:12])[C@:4]1([C:5]([H:13])([H:14])[H:15])[O:6][H:16])([H:7])([H:8])[H:9]>>[C:1]([C@@:2]1([H:10])[C:3]([H:11])([H:12])[C:4]1=[O:6])([H:7])([H:8])[H:9].[C:5]([H:13])([H:14])([H:15])[H:16]"
C        1.68060646      -0.13246363       0.94177595
C        1.18326979      -0.06402879      -0.47797548
C        0.20045485      -1.11388285      -1.02512697
C       -0.20884049       0.28947101      -0.83627360
C       -1.82248613       0.50712433       0.55710201
O       -0.63473614       1.18414608      -1.67766788
H        2.55363147      -0.78437319       1.01531858
H        1.96234241       0.85585220       1.31130539
H        0.92064670      -0.53589828       1.61314263
H        1.92068583       0.27279388      -1.20132145
H        0.33970419      -1.46530417      -2.03971678
H       -0.20205627      -1.83545517      -0.32303539
H       -2.88335372       0.29101378       0.41694703
H       -1.71020366       1.43025503       1.13658232
H       -1.59482692      -0.25428631       1.30849979
H       -1.70483837       1.35503608      -0.71955617
16
Frame=14 idx=004074 GeodesicLength=1.554040743026766 rxn_smarts="[C:1]([C@@:2]1([H:10])[C:3]([H:11])([H:12])[C@:4]1([C:5]([H:13])([H:14])[H:15])[O:6][H:16])([H:7])([H:8])[H:9]>>[C:1]([C@@:2]1([H:10])[C:3]([H:11])([H:12])[C:4]1=[O:6])([H:7])([H:8])[H:9].[C:5]([H:13])([H:14])([H:15])[H:16]"
C        1.68909035      -0.11817738       0.93869961
C        1.19568102      -0.06856979      -0.48329897
C        0.21502854      -1.12479356      -1.02127159
C       -0.19930641       0.27622797      -0.83611173
C       -1.84361226       0.50203978       0.55211311
O       -0.64419539       1.16956922      -1.66768351
H        2.55771514      -0.77440583       1.02472442
H        1.97659292       0.87385438       1.29338583
H        0.92486457      -0.50486464       1.61491278
H        1.93088631       0.26487745      -1.21003880
H        0.35325414      -1.48021386      -2.03444831
H       -0.18965981      -1.84047486      -0.31431858
H       -2.92217804       0.37791745       0.43243075
H       -1.65143010       1.37569277       1.18377565
H       -1.66745142      -0.32342701       1.24901190
H       -1.72527956       1.39474791      -0.72188257
16
Frame=15 idx=004074 GeodesicLength=1.6634719575735561 rxn_smarts="[C:1]([C@@:2]1([H:10])[C:3]([H:11])([H:12])[C@:4]1([C:5]([H:13])([H:14])[H:15])[O:6][H:16])([H:7])([H:8])[H:9]>>[C:1]([C@@:2]1([H:10])[C:3]([H:11])([H:12])[C:4]1=[O:6])([H:7])([H:8])[H:9].[C:5]([H:13])([H:14])([H:15])[H:16]"
C        1.69828078      -0.10394005       0.93580831
C        1.20891332      -0.07344500      -0.48869317
C        0.23007167      -1.13612860      -1.01720251
C       -0.18920348       0.26260586      -0.83623268
C       -1.86560168       0.49805369       0.54687370
O       -0.65494304       1.15511638      -1.65633914
H        2.56222286      -0.76478627       1.03496841
H        1.99244773       0.89149979       1.27513703
H        0.92910687      -0.47285155       1.61672602
H        1.94199303       0.25676152      -1.21914587
H        0.36688811      -1.49549679      -2.02923383
H       -0.17765864      -1.84520616      -0.30479457
H       -2.95443329       0.46518044       0.45485683
H       -1.59741460       1.31150635       1.22835513
H       -1.74406996      -0.38539193       1.18346490
H       -1.74659969       1.43652233      -0.72454855
16
Frame=16 idx=004074 GeodesicLength=1.7713738923428681 rxn_smarts="[C:1]([C@@:2]1([H:10])[C:3]([H:11])([H:12])[C@:4]1([C:5]([H:13])([H:14])[H:15])[O:6][H:16])([H:7])([H:8])[H:9]>>[C:1]([C@@:2]1([H:10])[C:3]([H:11])([H:12])[C:4]1=[O:6])([H:7])([H:8])[H:9].[C:5]([H:13])([H:14])([H:15])[H:16]"
C        1.70718612      -0.08939205       0.93257661
C        1.22219910      -0.07860860      -0.49376514
C        0.24542783      -1.14779007      -1.01240743
C       -0.17830127       0.24867870      -0.83595478
C       -1.88706791       0.49548025       0.54137775
O       -0.66628778       1.14072396      -1.64194712
H        2.56548579      -0.75515515       1.04540630
H        2.00871500       0.90909494       1.25607175
H        0.93299535      -0.43926918       1.61759854
H        1.95275302       0.24816499      -1.22775303
H        0.38036012      -1.51129085      -2.02302065
H       -0.16594715      -1.84929921      -0.29456066
H       -2.97790145       0.55191654       0.48521785
H       -1.54759485       1.23796170       1.26955525
H       -1.82351851      -0.44030504       1.10920459
H       -1.76850339       1.47908907      -0.72759983
