13
Frame=0 idx=008820 GeodesicLength=0.0 rxn_smarts="[N:1]([c:2]1[c:3]([O:4][H:10])[n:5]([H:11])[c:6]([H:12])[c:7]1[H:13])([H:8])[H:9]>>[N:1](=[C:2]1/[C@:3]([O:4][H:10])([H:9])[N:5]([H:11])[C:6]([H:12])=[C:7]1[H:13])\[H:8]"
N       -1.97157676       0.38270362      -0.53592000
C       -0.58131554       0.37747425      -0.04362751
C       -0.05959764      -0.92959963       0.04747685
O       -0.80425936      -2.00007591      -0.09533698
N        1.27340979      -0.90030478       0.14538838
C        1.68705188       0.43541050       0.09019688
C        0.60756688       1.23176237      -0.07178739
H       -2.38045767       1.29725941      -0.37873504
H       -1.30353442       0.43102011       0.85067089
H       -1.68115273      -1.61032646      -0.33664418
H        1.86802589      -1.70415359       0.22837622
H        2.72732928       0.68077095       0.22526751
H        0.61851046       2.30805919      -0.12532564
13
Frame=1 idx=008820 GeodesicLength=0.11050308947730128 rxn_smarts="[N:1]([c:2]1[c:3]([O:4][H:10])[n:5]([H:11])[c:6]([H:12])[c:7]1[H:13])([H:8])[H:9]>>[N:1](=[C:2]1/[C@:3]([O:4][H:10])([H:9])[N:5]([H:11])[C:6]([H:12])=[C:7]1[H:13])\[H:8]"
N       -1.97222535       0.39351053      -0.51662836
C       -0.58148216       0.38186415      -0.05557968
C       -0.06858569      -0.92634015       0.08350567
O       -0.79508852      -2.00410255      -0.11748117
N        1.26827271      -0.89594486       0.17893267
C        1.68554990       0.43428241       0.07824333
C        0.60734041       1.23283172      -0.08411722
H       -2.36809103       1.31707002      -0.38138307
H       -1.31270029       0.40218618       0.87159585
H       -1.67213344      -1.62334214      -0.36572361
H        1.86321374      -1.70162936       0.23775364
H        2.72707980       0.68019374       0.20363538
H        0.61884992       2.30942032      -0.13275343
13
Frame=2 idx=008820 GeodesicLength=0.221030994837256 rxn_smarts="[N:1]([c:2]1[c:3]([O:4][H:10])[n:5]([H:11])[c:6]([H:12])[c:7]1[H:13])([H:8])[H:9]>>[N:1](=[C:2]1/[C@:3]([O:4][H:10])([H:9])[N:5]([H:11])[C:6]([H:12])=[C:7]1[H:13])\[H:8]"
N       -1.97336340       0.40492862      -0.49510514
C       -0.58166854       0.38589109      -0.06809909
C       -0.07766164      -0.92274982       0.11350575
O       -0.78481770      -2.00686903      -0.13954305
N        1.26291749      -0.89094838       0.21019873
C        1.68366920       0.43257544       0.06611007
C        0.60707470       1.23363239      -0.09751283
H       -2.35605968       1.33671155      -0.38129566
H       -1.32124516       0.37184395       0.89298712
H       -1.66165183      -1.63583714      -0.39666767
H        1.85692887      -1.69820466       0.25519184
H        2.72659661       0.67850882       0.18071197
H        0.61928108       2.31051718      -0.14048204
13
Frame=3 idx=008820 GeodesicLength=0.3315728405190179 rxn_smarts="[N:1]([c:2]1[c:3]([O:4][H:10])[n:5]([H:11])[c:6]([H:12])[c:7]1[H:13])([H:8])[H:9]>>[N:1](=[C:2]1/[C@:3]([O:4][H:10])([H:9])[N:5]([H:11])[C:6]([H:12])=[C:7]1[H:13])\[H:8]"
N       -1.97469504       0.41684341      -0.47170080
C       -0.58188255       0.38967265      -0.08131958
C       -0.08680168      -0.91892031       0.13872825
O       -0.77396381      -2.00869781      -0.16083522
N        1.25741620      -0.88540620       0.23872139
C        1.68147026       0.43051670       0.05455616
C        0.60680752       1.23421694      -0.11185282
H       -2.34425836       1.35610195      -0.37940887
H       -1.32943322       0.34025105       0.91462793
H       -1.65016822      -1.64776906      -0.42820069
H        1.84987238      -1.69414620       0.27741813
H        2.72579302       0.67596769       0.15835114
H        0.61984350       2.31136920      -0.14908501
13
Frame=4 idx=008820 GeodesicLength=0.442124779809294 rxn_smarts="[N:1]([c:2]1[c:3]([O:4][H:10])[n:5]([H:11])[c:6]([H:12])[c:7]1[H:13])([H:8])[H:9]>>[N:1](=[C:2]1/[C@:3]([O:4][H:10])([H:9])[N:5]([H:11])[C:6]([H:12])=[C:7]1[H:13])\[H:8]"
N       -1.97587949       0.42917769      -0.44683559
C       -0.58209794       0.39324239      -0.09534642
C       -0.09601443      -0.91487569       0.16044482
O       -0.76285343      -2.00983519      -0.18076074
N        1.25177399      -0.87940589       0.26501377
C        1.67901189       0.42830266       0.04429009
C        0.60656898       1.23461507      -0.12687718
H       -2.33251882       1.37515633      -0.37673722
H       -1.33762156       0.30766106       0.93630870
H       -1.63800711      -1.65920728      -0.45930228
H        1.84240880      -1.68962770       0.30103932
H        2.72469016       0.67280478       0.13757801
H        0.62053898       2.31199178      -0.15881528
13
Frame=5 idx=008820 GeodesicLength=0.552677051642113 rxn_smarts="[N:1]([c:2]1[c:3]([O:4][H:10])[n:5]([H:11])[c:6]([H:12])[c:7]1[H:13])([H:8])[H:9]>>[N:1](=[C:2]1/[C@:3]([O:4][H:10])([H:9])[N:5]([H:11])[C:6]([H:12])=[C:7]1[H:13])\[H:8]"
N       -1.97666613       0.44195564      -0.42067226
C       -0.58226778       0.39658215      -0.11038581
C       -0.10528427      -0.91062665       0.17939655
O       -0.75170843      -2.01046840      -0.19914524
N        1.24602584      -0.87305891       0.28922306
C        1.67637582       0.42609035       0.03551186
C        0.60639163       1.23484034      -0.14251787
H       -2.32071710       1.39384919      -0.37381358
H       -1.34596326       0.27416206       0.95792037
H       -1.62552696      -1.67026854      -0.48915686
H        1.83470943      -1.68478152       0.32414272
H        2.72328124       0.66932446       0.11937439
H        0.62134996       2.31239982      -0.16987733
13
Frame=6 idx=008820 GeodesicLength=0.663227486358485 rxn_smarts="[N:1]([c:2]1[c:3]([O:4][H:10])[n:5]([H:11])[c:6]([H:12])[c:7]1[H:13])([H:8])[H:9]>>[N:1](=[C:2]1/[C@:3]([O:4][H:10])([H:9])[N:5]([H:11])[C:6]([H:12])=[C:7]1[H:13])\[H:8]"
N       -1.97681634       0.45527540      -0.39330071
C       -0.58235988       0.39966832      -0.12664082
C       -0.11461295      -0.90616730       0.19605982
O       -0.74063152      -2.01072211      -0.21612838
N        1.24016988      -0.86642022       0.31162984
C        1.67361807       0.42398490       0.02815034
C        0.60627963       1.23493396      -0.15855992
H       -2.30876681       1.41218123      -0.37093320
H       -1.35462690       0.23967708       0.97938830
H       -1.61296390      -1.68107617      -0.51745875
H        1.82682371      -1.67966237       0.34626862
H        2.72165340       0.66568147       0.10355220
H        0.62223361       2.31264581      -0.18202734
13
Frame=7 idx=008820 GeodesicLength=0.7737679357053048 rxn_smarts="[N:1]([c:2]1[c:3]([O:4][H:10])[n:5]([H:11])[c:6]([H:12])[c:7]1[H:13])([H:8])[H:9]>>[N:1](=[C:2]1/[C@:3]([O:4][H:10])([H:9])[N:5]([H:11])[C:6]([H:12])=[C:7]1[H:13])\[H:8]"
N       -1.97609073       0.46926345      -0.36471069
C       -0.58233931       0.40245839      -0.14436342
C       -0.12400414      -0.90147664       0.21074771
O       -0.72969357      -2.01069049      -0.23184290
N        1.23420237      -0.85952916       0.33241325
C        1.67078016       0.42206733       0.02205396
C        0.60623937       1.23492979      -0.17489637
H       -2.29659051       1.43016140      -0.36828667
H       -1.36373350       0.20409441       1.00065331
H       -1.60054590      -1.69177534      -0.54394632
H        1.81877189      -1.67430939       0.36717074
H        2.71984534       0.66203201       0.09004877
H        0.62315854       2.31277423      -0.19504136
13
Frame=8 idx=008820 GeodesicLength=0.88429406557062 rxn_smarts="[N:1]([c:2]1[c:3]([O:4][H:10])[n:5]([H:11])[c:6]([H:12])[c:7]1[H:13])([H:8])[H:9]>>[N:1](=[C:2]1/[C@:3]([O:4][H:10])([H:9])[N:5]([H:11])[C:6]([H:12])=[C:7]1[H:13])\[H:8]"
N       -1.97422334       0.48408011      -0.33479946
C       -0.58218070       0.40490371      -0.16381580
C       -0.13347229      -0.89652116       0.22367324
O       -0.71894383      -2.01044331      -0.24642259
N        1.22810678      -0.85240129       0.35173397
C        1.66788661       0.42038826       0.01701012
C        0.60627159       1.23485475      -0.19147287
H       -2.28412784       1.44779782      -0.36595847
H       -1.37339869       0.16724823       1.02168205
H       -1.58845331      -1.70250822      -0.56849674
H        1.81054681      -1.66873714       0.38681767
H        2.71788042       0.65851823       0.07880063
H        0.62410779       2.31281999      -0.20875174
13
Frame=9 idx=008820 GeodesicLength=0.9947950471597247 rxn_smarts="[N:1]([c:2]1[c:3]([O:4][H:10])[n:5]([H:11])[c:6]([H:12])[c:7]1[H:13])([H:8])[H:9]>>[N:1](=[C:2]1/[C@:3]([O:4][H:10])([H:9])[N:5]([H:11])[C:6]([H:12])=[C:7]1[H:13])\[H:8]"
N       -1.97088044       0.49992567      -0.30337898
C       -0.58186908       0.40695551      -0.18524359
C       -0.14304368      -0.89125233       0.23499532
O       -0.70842919      -2.01002747      -0.25996373
N        1.22185308      -0.84503742       0.36972761
C        1.66494612       0.41897295       0.01279997
C        0.60636794       1.23471125      -0.20831051
H       -2.27131387       1.46508399      -0.36395137
H       -1.38373885       0.12891428       1.04246689
H       -1.57681836      -1.71338895      -0.59109730
H        1.80212254      -1.66294813       0.40523026
H        2.71573278       0.65530231       0.06984393
H        0.62507101       2.31278834      -0.22311851
13
Frame=10 idx=008820 GeodesicLength=1.1052618479506473 rxn_smarts="[N:1]([c:2]1[c:3]([O:4][H:10])[n:5]([H:11])[c:6]([H:12])[c:7]1[H:13])([H:8])[H:9]>>[N:1](=[C:2]1/[C@:3]([O:4][H:10])([H:9])[N:5]([H:11])[C:6]([H:12])=[C:7]1[H:13])\[H:8]"
N       -1.96567484       0.51702636      -0.27015243
C       -0.58141068       0.40858313      -0.20881985
C       -0.15275956      -0.88560583       0.24482842
O       -0.69815174      -2.00945153      -0.27264360
N        1.21539012      -0.83740137       0.38660347
C        1.66195740       0.41784864       0.00925850
C        0.60652815       1.23451733      -0.22542942
H       -2.25813936       1.48199131      -0.36219782
H       -1.39499539       0.08873350       1.06299481
H       -1.56568940      -1.72448496      -0.61189133
H        1.79343997      -1.65690930       0.42267141
H        2.71341547       0.65245216       0.06297514
H        0.62608986       2.31270058      -0.23819729
13
Frame=11 idx=008820 GeodesicLength=1.2156969157656872 rxn_smarts="[N:1]([c:2]1[c:3]([O:4][H:10])[n:5]([H:11])[c:6]([H:12])[c:7]1[H:13])([H:8])[H:9]>>[N:1](=[C:2]1/[C@:3]([O:4][H:10])([H:9])[N:5]([H:11])[C:6]([H:12])=[C:7]1[H:13])\[H:8]"
N       -1.95813511       0.53566278      -0.23469286
C       -0.58085111       0.40980399      -0.23458774
C       -0.16268916      -0.87949831       0.25329222
O       -0.68807479      -2.00867361      -0.28470304
N        1.20863959      -0.82941214       0.40267540
C        1.65891399       0.41702841       0.00629900
C        0.60675266       1.23426593      -0.24290321
H       -2.24465042       1.49844644      -0.36049960
H       -1.40753307       0.04618686       1.08326108
H       -1.55499672      -1.73577350      -0.63128588
H        1.78441579      -1.65054174       0.43960835
H        2.71096294       0.64995463       0.05781091
H        0.62724541       2.31255026      -0.25427462
13
Frame=12 idx=008820 GeodesicLength=1.326092750294276 rxn_smarts="[N:1]([c:2]1[c:3]([O:4][H:10])[n:5]([H:11])[c:6]([H:12])[c:7]1[H:13])([H:8])[H:9]>>[N:1](=[C:2]1/[C@:3]([O:4][H:10])([H:9])[N:5]([H:11])[C:6]([H:12])=[C:7]1[H:13])\[H:8]"
N       -1.94776625       0.55617923      -0.19632887
C       -0.58030222       0.41068722      -0.26242935
C       -0.17293254      -0.87284470       0.26050246
O       -0.67817592      -2.00766892      -0.29647181
N        1.20155047      -0.82095747       0.41828499
C        1.65588855       0.41651659       0.00381037
C        0.60710041       1.23393524      -0.26099107
H       -2.23105663       1.51432659      -0.35851831
H       -1.42190110       0.00063356       1.10324022
H       -1.54466857      -1.74720730      -0.64987545
H        1.77500666      -1.64376831       0.45659367
H        2.70851905       0.64781572       0.05417969
H        0.62873810       2.31235255      -0.27199652
13
Frame=13 idx=008820 GeodesicLength=1.4364180045105768 rxn_smarts="[N:1]([c:2]1[c:3]([O:4][H:10])[n:5]([H:11])[c:6]([H:12])[c:7]1[H:13])([H:8])[H:9]>>[N:1](=[C:2]1/[C@:3]([O:4][H:10])([H:9])[N:5]([H:11])[C:6]([H:12])=[C:7]1[H:13])\[H:8]"
N       -1.93327287       0.57879402      -0.15482934
C       -0.57951507       0.41163180      -0.29160455
C       -0.18359498      -0.86537855       0.26692315
O       -0.66773026      -2.00582267      -0.30842393
N        1.19356244      -0.81166270       0.43473965
C        1.65225143       0.41652829       0.00288968
C        0.60734264       1.23364501      -0.27915782
H       -2.21718028       1.52923264      -0.35591020
H       -1.43925310      -0.04931672       1.12219191
H       -1.53352362      -1.75816464      -0.66878334
H        1.76452932      -1.63613954       0.47533863
H        2.70592440       0.64455473       0.04790277
H        0.63045994       2.31209833      -0.29127661
13
Frame=14 idx=008820 GeodesicLength=1.5467484482978753 rxn_smarts="[N:1]([c:2]1[c:3]([O:4][H:10])[n:5]([H:11])[c:6]([H:12])[c:7]1[H:13])([H:8])[H:9]>>[N:1](=[C:2]1/[C@:3]([O:4][H:10])([H:9])[N:5]([H:11])[C:6]([H:12])=[C:7]1[H:13])\[H:8]"
N       -1.91431182       0.60405413      -0.10823143
C       -0.57917292       0.41263753      -0.32219614
C       -0.19480642      -0.85714882       0.27223532
O       -0.65723704      -2.00325699      -0.32086907
N        1.18485609      -0.80153190       0.45130083
C        1.64863560       0.41665405       0.00163857
C        0.60798856       1.23290806      -0.29953469
H       -2.20359899       1.54305257      -0.35054503
H       -1.45988519      -0.10447621       1.14002130
H       -1.52203261      -1.76851003      -0.68847939
H        1.75313352      -1.62771681       0.49561088
H        2.70306252       0.64197422       0.04470056
H        0.63336869       2.31136020      -0.31565170
13
Frame=15 idx=008820 GeodesicLength=1.6568291960698591 rxn_smarts="[N:1]([c:2]1[c:3]([O:4][H:10])[n:5]([H:11])[c:6]([H:12])[c:7]1[H:13])([H:8])[H:9]>>[N:1](=[C:2]1/[C@:3]([O:4][H:10])([H:9])[N:5]([H:11])[C:6]([H:12])=[C:7]1[H:13])\[H:8]"
N       -1.88968388       0.63216691      -0.05607896
C       -0.57931060       0.41420673      -0.35331395
C       -0.20676423      -0.84788297       0.27695436
O       -0.64588400      -1.99959665      -0.33430255
N        1.17497427      -0.78999034       0.46938116
C        1.64473178       0.41701316       0.00079560
C        0.60910541       1.23168729      -0.32235909
H       -2.19059902       1.55551542      -0.34043849
H       -1.48575464      -0.16602496       1.15476729
H       -1.50894910      -1.77791452      -0.71031541
H        1.74027971      -1.61793815       0.51957382
H        2.70011587       0.63869536       0.04102627
H        0.63773843       2.31006272      -0.34569005
13
Frame=16 idx=008820 GeodesicLength=1.7668031502091013 rxn_smarts="[N:1]([c:2]1[c:3]([O:4][H:10])[n:5]([H:11])[c:6]([H:12])[c:7]1[H:13])([H:8])[H:9]>>[N:1](=[C:2]1/[C@:3]([O:4][H:10])([H:9])[N:5]([H:11])[C:6]([H:12])=[C:7]1[H:13])\[H:8]"
N       -1.85822619       0.66314326       0.00273499
C       -0.58035024       0.41676339      -0.38419234
C       -0.21973285      -0.83740891       0.28151147
O       -0.63309153      -1.99449609      -0.34902999
N        1.16355192      -0.77642171       0.48992220
C        1.64049239       0.41749671       0.00003636
C        0.61091628       1.22958198      -0.34894397
H       -2.17826121       1.56648057      -0.32211926
H       -1.51886928      -0.23498623       1.16390882
H       -1.49315932      -1.78596450      -0.73577812
H        1.72552044      -1.60611366       0.54919035
H        2.69713059       0.63423883       0.03619592
H        0.64407898       2.30768636      -0.38343644
