11
Frame=0 idx=002409 GeodesicLength=0.0 rxn_smarts="[C:1]1([H:6])([H:7])[C@@:2]2([H:8])[C:3]([H:9])([H:10])[O:4][C@@:5]12[H:11]>>[C:1]1([H:6])([H:7])[C@@:2]2([H:8])[C-:3]=[O+:4][C@@:5]12[H:11].[H:9][H:10]"
C       -1.03824119      -0.51080756      -0.15676022
C       -0.04284797       0.11584519       0.80977632
C        1.27809581       0.38514872       0.15106065
O        0.71054664       0.86754365      -1.00892429
C       -0.58251038       0.86295391      -0.39119402
H       -2.04252061      -0.60170627       0.23887240
H       -0.71114599      -1.31130412      -0.81207373
H       -0.24543507       0.23235479       1.86313836
H        1.69096903      -1.26832026      -0.24007194
H        2.15544718      -0.53602533       0.00789572
H       -1.17235743       1.76431727      -0.46171921
11
Frame=1 idx=002409 GeodesicLength=0.051305552076505834 rxn_smarts="[C:1]1([H:6])([H:7])[C@@:2]2([H:8])[C:3]([H:9])([H:10])[O:4][C@@:5]12[H:11]>>[C:1]1([H:6])([H:7])[C@@:2]2([H:8])[C-:3]=[O+:4][C@@:5]12[H:11].[H:9][H:10]"
C       -1.04483765      -0.50825986      -0.15672432
C       -0.04612766       0.11641022       0.80750001
C        1.27392834       0.37310503       0.14145205
O        0.70376918       0.86673643      -1.01274836
C       -0.58721319       0.86572484      -0.39026680
H       -2.04801444      -0.59909741       0.24174532
H       -0.72135853      -1.30726909      -0.81552886
H       -0.24472083       0.23181566       1.86171464
H        1.70964785      -1.26822271      -0.24223909
H        2.18163723      -0.53844484       0.02498023
H       -1.17671031       1.76750172      -0.45988483
11
Frame=2 idx=002409 GeodesicLength=0.10268200483447085 rxn_smarts="[C:1]1([H:6])([H:7])[C@@:2]2([H:8])[C:3]([H:9])([H:10])[O:4][C@@:5]12[H:11]>>[C:1]1([H:6])([H:7])[C@@:2]2([H:8])[C-:3]=[O+:4][C@@:5]12[H:11].[H:9][H:10]"
C       -1.05163974      -0.50565291      -0.15671011
C       -0.04934674       0.11684262       0.80504614
C        1.26962321       0.36047126       0.13131655
O        0.69685327       0.86586617      -1.01675046
C       -0.59194159       0.86849504      -0.38936838
H       -2.05364534      -0.59630371       0.24477544
H       -0.73200720      -1.30318637      -0.81906677
H       -0.24372296       0.23113290       1.86013966
H        1.72929091      -1.26791397      -0.24455569
H        2.20750617      -0.54053036       0.04306873
H       -1.18096997       1.77077933      -0.45789511
11
Frame=3 idx=002409 GeodesicLength=0.1540862800552622 rxn_smarts="[C:1]1([H:6])([H:7])[C@@:2]2([H:8])[C:3]([H:9])([H:10])[O:4][C@@:5]12[H:11]>>[C:1]1([H:6])([H:7])[C@@:2]2([H:8])[C-:3]=[O+:4][C@@:5]12[H:11].[H:9][H:10]"
C       -1.05865733      -0.50298328      -0.15671845
C       -0.05249910       0.11712082       0.80240817
C        1.26516576       0.34721370       0.12064633
O        0.68980932       0.86491314      -1.02092565
C       -0.59668307       0.87126003      -0.38849587
H       -2.05942000      -0.59330870       0.24796772
H       -0.74312240      -1.29905105      -0.82269435
H       -0.24243256       0.23028315       1.85840431
H        1.74994883      -1.26738744      -0.24694937
H        2.23299924      -0.54221457       0.06209935
H       -1.18510869       1.77415419      -0.45574218
11
Frame=4 idx=002409 GeodesicLength=0.2054813788935106 rxn_smarts="[C:1]1([H:6])([H:7])[C@@:2]2([H:8])[C:3]([H:9])([H:10])[O:4][C@@:5]12[H:11]>>[C:1]1([H:6])([H:7])[C@@:2]2([H:8])[C-:3]=[O+:4][C@@:5]12[H:11].[H:9][H:10]"
C       -1.06590587      -0.50024722      -0.15674995
C       -0.05558173       0.11721736       0.79958009
C        1.26053774       0.33329024       0.10943617
O        0.68264993       0.86384729      -1.02526829
C       -0.60142245       0.87401348      -0.38764553
H       -2.06535067      -0.59009015       0.25132642
H       -0.75474449      -1.29485926      -0.82641796
H       -0.24084445       0.22923842       1.85649956
H        1.77167452      -1.26662377      -0.24934040
H        2.25807794      -0.54341836       0.08199810
H       -1.18909045       1.77763197      -0.45341821
11
Frame=5 idx=002409 GeodesicLength=0.2568546158159451 rxn_smarts="[C:1]1([H:6])([H:7])[C@@:2]2([H:8])[C:3]([H:9])([H:10])[O:4][C@@:5]12[H:11]>>[C:1]1([H:6])([H:7])[C@@:2]2([H:8])[C-:3]=[O+:4][C@@:5]12[H:11].[H:9][H:10]"
C       -1.07339865      -0.49744102      -0.15680482
C       -0.05859198       0.11710646       0.79655849
C        1.25572271       0.31866239       0.09768429
O        0.67539106       0.86263799      -1.02977313
C       -0.60614252       0.87674788      -0.38681370
H       -2.07144944      -0.58662748       0.25485393
H       -0.76690909      -1.29060668      -0.83024317
H       -0.23895575       0.22797122       1.85441951
H        1.79450453      -1.26561427      -0.25165556
H        2.28270918      -0.54405410       0.10268954
H       -1.19288005       1.78121762      -0.45091538
11
Frame=6 idx=002409 GeodesicLength=0.3081750888075917 rxn_smarts="[C:1]1([H:6])([H:7])[C@@:2]2([H:8])[C:3]([H:9])([H:10])[O:4][C@@:5]12[H:11]>>[C:1]1([H:6])([H:7])[C@@:2]2([H:8])[C-:3]=[O+:4][C@@:5]12[H:11].[H:9][H:10]"
C       -1.08116074      -0.49455905      -0.15688276
C       -0.06153162       0.11674811       0.79333762
C        1.25069712       0.30326722       0.08538868
O        0.66804945       0.86123381      -1.03443204
C       -0.61082270       0.87945208      -0.38599649
H       -2.07773888      -0.58288499       0.25855525
H       -0.77967699      -1.28628869      -0.83417612
H       -0.23676605       0.22644111       1.85215517
H        1.81849150      -1.26431671      -0.25380928
H        2.30688148      -0.54400971       0.12408796
H       -1.19642256       1.78491682      -0.44822799
11
Frame=7 idx=002409 GeodesicLength=0.3594821105568914 rxn_smarts="[C:1]1([H:6])([H:7])[C@@:2]2([H:8])[C:3]([H:9])([H:10])[O:4][C@@:5]12[H:11]>>[C:1]1([H:6])([H:7])[C@@:2]2([H:8])[C-:3]=[O+:4][C@@:5]12[H:11].[H:9][H:10]"
C       -1.08921614      -0.49159653      -0.15698280
C       -0.06440458       0.11610520       0.78991300
C        1.24543668       0.28705055       0.07254808
O        0.66064314       0.85958529      -1.03924081
C       -0.61544212       0.88211461      -0.38519011
H       -2.08424112      -0.57883020       0.26243441
H       -0.79310509      -1.28190055      -0.83821947
H       -0.23427797       0.22460923       1.84969771
H        1.84367168      -1.26268617      -0.25573113
H        2.33060382      -0.54318843       0.14612039
H       -1.19966831       1.78873700      -0.44534928
11
Frame=8 idx=002409 GeodesicLength=0.41073032186792946 rxn_smarts="[C:1]1([H:6])([H:7])[C@@:2]2([H:8])[C:3]([H:9])([H:10])[O:4][C@@:5]12[H:11]>>[C:1]1([H:6])([H:7])[C@@:2]2([H:8])[C-:3]=[O+:4][C@@:5]12[H:11].[H:9][H:10]"
C       -1.09759538      -0.48854222      -0.15710614
C       -0.06721565       0.11512732       0.78628038
C        1.23991983       0.26992704       0.05915410
O        0.65319061       0.85762188      -1.04419629
C       -0.61997315       0.88471774      -0.38438963
H       -2.09098151      -0.57441364       0.26649622
H       -0.80726473      -1.27742864      -0.84238587
H       -0.23149244       0.22242130       1.84704402
H        1.87009073      -1.26068114      -0.25732623
H        2.35386795      -0.54142845       0.16869760
H       -1.20254625       1.79267880      -0.44226816
11
Frame=9 idx=002409 GeodesicLength=0.46181651901602006 rxn_smarts="[C:1]1([H:6])([H:7])[C@@:2]2([H:8])[C:3]([H:9])([H:10])[O:4][C@@:5]12[H:11]>>[C:1]1([H:6])([H:7])[C@@:2]2([H:8])[C-:3]=[O+:4][C@@:5]12[H:11].[H:9][H:10]"
C       -1.10636566      -0.48538564      -0.15724861
C       -0.06997960       0.11371608       0.78241452
C        1.23409094       0.25172485       0.04516404
O        0.64570591       0.85522038      -1.04932481
C       -0.62437340       0.88723247      -0.38359075
H       -2.09801995      -0.56955444       0.27075704
H       -0.82231450      -1.27286170      -0.84667452
H       -0.22840279       0.21978474       1.84416074
H        1.89787065      -1.25803578      -0.25846478
H        2.37671724      -0.53860631       0.19176583
H       -1.20492884       1.79676536      -0.43895869
11
Frame=10 idx=002409 GeodesicLength=0.5128073291772435 rxn_smarts="[C:1]1([H:6])([H:7])[C@@:2]2([H:8])[C:3]([H:9])([H:10])[O:4][C@@:5]12[H:11]>>[C:1]1([H:6])([H:7])[C@@:2]2([H:8])[C-:3]=[O+:4][C@@:5]12[H:11].[H:9][H:10]"
C       -1.11553834      -0.48211689      -0.15741410
C       -0.07269232       0.11184189       0.77832168
C        1.22793227       0.23238902       0.03059078
O        0.63822466       0.85233557      -1.05460035
C       -0.62861397       0.88964632      -0.38278810
H       -2.10536634      -0.56421636       0.27521491
H       -0.83828315      -1.26818959      -0.85110001
H       -0.22500971       0.21665796       1.84105739
H        1.92699895      -1.25484425      -0.25909728
H        2.39911003      -0.53449568       0.21523216
H       -1.20676209       1.80099200      -0.43541709
11
Frame=11 idx=002409 GeodesicLength=0.5637077496546838 rxn_smarts="[C:1]1([H:6])([H:7])[C@@:2]2([H:8])[C:3]([H:9])([H:10])[O:4][C@@:5]12[H:11]>>[C:1]1([H:6])([H:7])[C@@:2]2([H:8])[C-:3]=[O+:4][C@@:5]12[H:11].[H:9][H:10]"
C       -1.12516141      -0.47872448      -0.15760203
C       -0.07535966       0.10942640       0.77399128
C        1.22139638       0.21177664       0.01541895
O        0.63077937       0.84886721      -1.06002150
C       -0.63264795       0.89193536      -0.38197502
H       -2.11306620      -0.55832878       0.27987592
H       -0.85528366      -1.26340362      -0.85566807
H       -0.22130898       0.21295844       1.83771919
H        1.95753073      -1.25100306      -0.25913230
H        2.42105243      -0.52887717       0.23902016
H       -1.20793106       1.80537305      -0.43162658
11
Frame=12 idx=002409 GeodesicLength=0.6146341496246839 rxn_smarts="[C:1]1([H:6])([H:7])[C@@:2]2([H:8])[C:3]([H:9])([H:10])[O:4][C@@:5]12[H:11]>>[C:1]1([H:6])([H:7])[C@@:2]2([H:8])[C-:3]=[O+:4][C@@:5]12[H:11].[H:9][H:10]"
C       -1.13527612      -0.47519622      -0.15781162
C       -0.07798913       0.10639570       0.76941338
C        1.21443486       0.18976398      -0.00036036
O        0.62340335       0.84471646      -1.06558657
C       -0.63643066       0.89407429      -0.38114630
H       -2.12115775      -0.55182342       0.28474713
H       -0.87341754      -1.25848565      -0.86038210
H       -0.21730107       0.20860272       1.83413185
H        1.98949461      -1.24642422      -0.25849813
H        2.44256742      -0.52154192       0.26306491
H       -1.20832798       1.80991827      -0.42757219
11
Frame=13 idx=002409 GeodesicLength=0.6655187652511769 rxn_smarts="[C:1]1([H:6])([H:7])[C@@:2]2([H:8])[C:3]([H:9])([H:10])[O:4][C@@:5]12[H:11]>>[C:1]1([H:6])([H:7])[C@@:2]2([H:8])[C-:3]=[O+:4][C@@:5]12[H:11].[H:9][H:10]"
C       -1.14595293      -0.47150826      -0.15804657
C       -0.08058850       0.10262902       0.76457219
C        1.20698740       0.16611420      -0.01678728
O        0.61614016       0.83973022      -1.07130204
C       -0.63989148       0.89602372      -0.38029173
H       -2.12970116      -0.54458687       0.28983702
H       -0.89285127      -1.25341203      -0.86526267
H       -0.21297371       0.20345834       1.83027991
H        2.02297257      -1.24095407      -0.25704426
H        2.46363360      -0.51213819       0.28726156
H       -1.20777467       1.81464393      -0.42321614
11
Frame=14 idx=002409 GeodesicLength=0.7164017212657703 rxn_smarts="[C:1]1([H:6])([H:7])[C@@:2]2([H:8])[C:3]([H:9])([H:10])[O:4][C@@:5]12[H:11]>>[C:1]1([H:6])([H:7])[C@@:2]2([H:8])[C-:3]=[O+:4][C@@:5]12[H:11].[H:9][H:10]"
C       -1.15726280      -0.46763576      -0.15830671
C       -0.08316873       0.09799110       0.75944953
C        1.19898547       0.14058034      -0.03389596
O        0.60904264       0.83373043      -1.07716888
C       -0.64294720       0.89773587      -0.37940164
H       -2.13875848      -0.53649176       0.29515982
H       -0.91376304      -1.24814992      -0.87032086
H       -0.20831996       0.19737587       1.82614268
H        2.05803034      -1.23440290      -0.25465763
H        2.48422783      -0.50029304       0.31152661
H       -1.20606607       1.81955976      -0.41852696
11
Frame=15 idx=002409 GeodesicLength=0.7673182989987906 rxn_smarts="[C:1]1([H:6])([H:7])[C@@:2]2([H:8])[C:3]([H:9])([H:10])[O:4][C@@:5]12[H:11]>>[C:1]1([H:6])([H:7])[C@@:2]2([H:8])[C-:3]=[O+:4][C@@:5]12[H:11].[H:9][H:10]"
C       -1.16928310      -0.46354808      -0.15859543
C       -0.08573813       0.09232249       0.75402771
C        1.19035058       0.11286270      -0.05172850
O        0.60217711       0.82650906      -1.08318930
C       -0.64549394       0.89915392      -0.37846204
H       -2.14839464      -0.52738926       0.30072608
H       -0.93635154      -1.24265883      -0.87557604
H       -0.20332772       0.19017468       1.82170151
H        2.09472459      -1.22655734      -0.25118607
H        2.50429333      -0.48554729       0.33574117
H       -1.20295654       1.82467796      -0.41345909
11
Frame=16 idx=002409 GeodesicLength=0.8183039249436601 rxn_smarts="[C:1]1([H:6])([H:7])[C@@:2]2([H:8])[C:3]([H:9])([H:10])[O:4][C@@:5]12[H:11]>>[C:1]1([H:6])([H:7])[C@@:2]2([H:8])[C-:3]=[O+:4][C@@:5]12[H:11].[H:9][H:10]"
C       -1.18209149      -0.45921137      -0.15891432
C       -0.08830448       0.08543663       0.74829307
C        1.18099920       0.08261435      -0.07031475
O        0.59563995       0.81781378      -1.08935330
C       -0.64739853       0.90020438      -0.37745623
H       -2.15867801      -0.51710781       0.30654272
H       -0.96082829      -1.23689247      -0.88104276
H       -0.19799009       0.18164806       1.81694221
H        2.13308164      -1.21714070      -0.24648544
H        2.52371816      -0.46737105       0.35975423
H       -1.19814805       1.83000620      -0.40796544
