14
Frame=0 idx=010693 GeodesicLength=0.0 rxn_smarts="[C:1]([C@@:2]([C:3]([C:4](=[O:5])[H:14])([H:12])[H:13])([C:6]#[N:7])[H:11])([H:8])([H:9])[H:10]>>[C:1]([C:2]([O+:5]=[C:4]([C:3]([H:11])([H:12])[H:13])[H:14])=[C:6]=[N-:7])([H:8])([H:9])[H:10]"
C       -1.15655819      -0.79790883       0.82918813
C       -1.15502775       0.54362907       0.19774812
C        1.11158348       0.67846178      -0.53653685
C        1.90875136      -0.20720290       0.35430329
O        1.95039210      -1.40273308       0.22828098
C       -1.72567064       0.62137151      -1.09501883
N       -2.25081392       0.77740134      -2.11297237
H       -2.22312244      -0.98074471       1.02075189
H       -0.64325549      -0.80406082       1.78886859
H       -0.80305851      -1.62458833       0.20556713
H        0.14891327       1.05174110       0.10391893
H        0.82956332       0.19285776      -1.46458549
H        1.55940378       1.65974704      -0.70193842
H        2.44889969       0.29202906       1.18242485
14
Frame=1 idx=010693 GeodesicLength=0.15093704263154722 rxn_smarts="[C:1]([C@@:2]([C:3]([C:4](=[O:5])[H:14])([H:12])[H:13])([C:6]#[N:7])[H:11])([H:8])([H:9])[H:10]>>[C:1]([C:2]([O+:5]=[C:4]([C:3]([H:11])([H:12])[H:13])[H:14])=[C:6]=[N-:7])([H:8])([H:9])[H:10]"
C       -1.18373443      -0.83235902       0.83734938
C       -1.11131175       0.50323495       0.19994561
C        1.11532309       0.70558491      -0.54961231
C        1.91890807      -0.17433347       0.34074786
O        1.86417065      -1.37592042       0.27480386
C       -1.69434563       0.60304324      -1.08770758
N       -2.19676715       0.76334494      -2.11619468
H       -2.25293465      -0.95459778       1.05940653
H       -0.65474282      -0.88349390       1.78710974
H       -0.90086836      -1.67777103       0.20302798
H        0.16409737       1.09169579       0.12515579
H        0.85361824       0.22405085      -1.48652462
H        1.56675516       1.68458775      -0.71920182
H        2.51183220       0.32293317       1.13169426
14
Frame=2 idx=010693 GeodesicLength=0.2978868953923638 rxn_smarts="[C:1]([C@@:2]([C:3]([C:4](=[O:5])[H:14])([H:12])[H:13])([C:6]#[N:7])[H:11])([H:8])([H:9])[H:10]>>[C:1]([C:2]([O+:5]=[C:4]([C:3]([H:11])([H:12])[H:13])[H:14])=[C:6]=[N-:7])([H:8])([H:9])[H:10]"
C       -1.21143090      -0.86537036       0.84537150
C       -1.06488798       0.45928186       0.19956832
C        1.11991390       0.73231784      -0.56237819
C        1.92798965      -0.14429386       0.32672910
O        1.78409673      -1.34196068       0.32180354
C       -1.66129048       0.58081668      -1.08212712
N       -2.15026839       0.75055587      -2.11530225
H       -2.27937252      -0.92569661       1.09602758
H       -0.67051580      -0.96194297       1.78475715
H       -0.99742821      -1.72546742       0.20416269
H        0.17680868       1.12891652       0.14257429
H        0.88086568       0.25609919      -1.50872860
H        1.57449988       1.70974071      -0.73215685
H        2.57101975       0.34700323       1.07969881
14
Frame=3 idx=010693 GeodesicLength=0.4415124007942735 rxn_smarts="[C:1]([C@@:2]([C:3]([C:4](=[O:5])[H:14])([H:12])[H:13])([C:6]#[N:7])[H:11])([H:8])([H:9])[H:10]>>[C:1]([C:2]([O+:5]=[C:4]([C:3]([H:11])([H:12])[H:13])[H:14])=[C:6]=[N-:7])([H:8])([H:9])[H:10]"
C       -1.23869976      -0.89609617       0.85348373
C       -1.01644670       0.41284045       0.19737141
C        1.12494463       0.75880357      -0.57482231
C        1.93603356      -0.11726779       0.31197706
O        1.71013406      -1.30285172       0.36661457
C       -1.62706448       0.55603887      -1.07775961
N       -2.10935664       0.73613259      -2.11211345
H       -2.30122735      -0.89385735       1.13160467
H       -0.68899114      -1.03909118       1.78181414
H       -1.09232478      -1.76681295       0.20777375
H        0.18663320       1.16329184       0.15715463
H        0.90986276       0.28946062      -1.53116722
H        1.58231659       1.73549461      -0.74110135
H        2.62418605       0.36391461       1.02917000
14
Frame=4 idx=010693 GeodesicLength=0.5820617118836071 rxn_smarts="[C:1]([C@@:2]([C:3]([C:4](=[O:5])[H:14])([H:12])[H:13])([C:6]#[N:7])[H:11])([H:8])([H:9])[H:10]>>[C:1]([C:2]([O+:5]=[C:4]([C:3]([H:11])([H:12])[H:13])[H:14])=[C:6]=[N-:7])([H:8])([H:9])[H:10]"
C       -1.26493123      -0.92429182       0.86077169
C       -0.96712848       0.36464640       0.19374169
C        1.12974055       0.78392175      -0.58662094
C        1.94310151      -0.09258923       0.29772826
O        1.64289213      -1.25931881       0.41153117
C       -1.59252981       0.53004954      -1.07414883
N       -2.07344685       0.72164489      -2.10687450
H       -2.31762435      -0.85981817       1.16608405
H       -0.70923665      -1.11560365       1.77682091
H       -1.18536472      -1.80109055       0.21176093
H        0.19307670       1.19409362       0.16964297
H        0.93933786       0.32178720      -1.55254612
H        1.58919696       1.76049104      -0.74742712
H        2.67291638       0.37607780       0.97953584
14
Frame=5 idx=010693 GeodesicLength=0.7196186353663896 rxn_smarts="[C:1]([C@@:2]([C:3]([C:4](=[O:5])[H:14])([H:12])[H:13])([C:6]#[N:7])[H:11])([H:8])([H:9])[H:10]>>[C:1]([C:2]([O+:5]=[C:4]([C:3]([H:11])([H:12])[H:13])[H:14])=[C:6]=[N-:7])([H:8])([H:9])[H:10]"
C       -1.28934189      -0.94992473       0.86634795
C       -0.91798928       0.31552881       0.18857592
C        1.13392166       0.80651046      -0.59764420
C        1.94926188      -0.06968192       0.28538772
O        1.58276491      -1.21188170       0.45950125
C       -1.55821778       0.50356414      -1.07162421
N       -2.04397530       0.70997519      -2.09902407
H       -2.32775753      -0.82487200       1.19907714
H       -0.73049690      -1.19151507       1.76859816
H       -1.27569095      -1.82807461       0.21456252
H        0.19593435       1.22095069       0.18028591
H        0.96874675       0.35054042      -1.57201373
H        1.59453852       1.78340592      -0.75263232
H        2.71830156       0.38547441       0.93060197
14
Frame=6 idx=010693 GeodesicLength=0.854576455700145 rxn_smarts="[C:1]([C@@:2]([C:3]([C:4](=[O:5])[H:14])([H:12])[H:13])([C:6]#[N:7])[H:11])([H:8])([H:9])[H:10]>>[C:1]([C:2]([O+:5]=[C:4]([C:3]([H:11])([H:12])[H:13])[H:14])=[C:6]=[N-:7])([H:8])([H:9])[H:10]"
C       -1.31135085      -0.97294283       0.86994809
C       -0.87016464       0.26669516       0.18235353
C        1.13684904       0.82619749      -0.60767649
C        1.95414261      -0.04825490       0.27553073
O        1.52914235      -1.16088990       0.51167347
C       -1.52512935       0.47781861      -1.06971568
N       -2.01873681       0.70067354      -2.08973855
H       -2.33102540      -0.79015074       1.23129293
H       -0.75177761      -1.26689817       1.75620332
H       -1.36309185      -1.84736368       0.21518148
H        0.19509424       1.24409977       0.18982733
H        0.99712109       0.37489939      -1.58910031
H        1.59778695       1.80371083      -0.75733880
H        2.76114024       0.39240542       0.88155896
14
Frame=7 idx=010693 GeodesicLength=0.9871446251058139 rxn_smarts="[C:1]([C@@:2]([C:3]([C:4](=[O:5])[H:14])([H:12])[H:13])([C:6]#[N:7])[H:11])([H:8])([H:9])[H:10]>>[C:1]([C:2]([O+:5]=[C:4]([C:3]([H:11])([H:12])[H:13])[H:14])=[C:6]=[N-:7])([H:8])([H:9])[H:10]"
C       -1.33038326      -0.99364812       0.87097474
C       -0.82414699       0.21871419       0.17443550
C        1.13877859       0.84231846      -0.61683061
C        1.95762859      -0.02771030       0.26954587
O        1.48150314      -1.10582004       0.57048025
C       -1.49305837       0.45239572      -1.06956159
N       -2.00084664       0.69644695      -2.07754131
H       -2.32701412      -0.75683060       1.26264191
H       -0.77234630      -1.34169526       1.73858007
H       -1.44708128      -1.85937188       0.21309778
H        0.19066808       1.26390779       0.19760373
H        1.02528644       0.39314835      -1.60352196
H        1.59927673       1.82056685      -0.76262128
H        2.80173540       0.39757788       0.83271691
14
Frame=8 idx=010693 GeodesicLength=1.1180756969112084 rxn_smarts="[C:1]([C@@:2]([C:3]([C:4](=[O:5])[H:14])([H:12])[H:13])([C:6]#[N:7])[H:11])([H:8])([H:9])[H:10]>>[C:1]([C:2]([O+:5]=[C:4]([C:3]([H:11])([H:12])[H:13])[H:14])=[C:6]=[N-:7])([H:8])([H:9])[H:10]"
C       -1.34602127      -1.01171554       0.87056583
C       -0.78055281       0.17332221       0.16661363
C        1.13890306       0.85588779      -0.62518870
C        1.95900244      -0.00875060       0.26552613
O        1.43771107      -1.04747924       0.63172023
C       -1.46360486       0.42981635      -1.06861907
N       -1.98209007       0.69037061      -2.06678465
H       -2.31495764      -0.72525135       1.29586385
H       -0.79060272      -1.41656459       1.71505730
H       -1.52848480      -1.86277237       0.20866396
H        0.18316950       1.28148773       0.20513946
H        1.05111027       0.40779934      -1.61589037
H        1.59893169       1.83471139      -0.76802670
H        2.83748614       0.39913828       0.78535911
14
Frame=9 idx=010693 GeodesicLength=1.2475833331215198 rxn_smarts="[C:1]([C@@:2]([C:3]([C:4](=[O:5])[H:14])([H:12])[H:13])([C:6]#[N:7])[H:11])([H:8])([H:9])[H:10]>>[C:1]([C:2]([O+:5]=[C:4]([C:3]([H:11])([H:12])[H:13])[H:14])=[C:6]=[N-:7])([H:8])([H:9])[H:10]"
C       -1.35813141      -1.02801279       0.86792312
C       -0.73929707       0.13023389       0.15738987
C        1.13815248       0.86632391      -0.63296495
C        1.95827867       0.00946248       0.26550645
O        1.39688320      -0.98398317       0.69932030
C       -1.43562048       0.40813256      -1.06941182
N       -1.96897148       0.68734672      -2.05448951
H       -2.29451700      -0.69653000       1.33060896
H       -0.80622662      -1.49162454       1.68427942
H       -1.60744578      -1.85880666       0.20214677
H        0.17260553       1.29738842       0.21064707
H        1.07678424       0.41682146      -1.62594976
H        1.59773069       1.84551459      -0.77449677
H        2.86977504       0.39773314       0.73949083
14
Frame=10 idx=010693 GeodesicLength=1.3763624316704866 rxn_smarts="[C:1]([C@@:2]([C:3]([C:4](=[O:5])[H:14])([H:12])[H:13])([C:6]#[N:7])[H:11])([H:8])([H:9])[H:10]>>[C:1]([C:2]([O+:5]=[C:4]([C:3]([H:11])([H:12])[H:13])[H:14])=[C:6]=[N-:7])([H:8])([H:9])[H:10]"
C       -1.36658825      -1.04241749       0.86407704
C       -0.70076170       0.09084934       0.14828831
C        1.13605370       0.87471898      -0.64013614
C        1.95462218       0.02622954       0.26790798
O        1.35669520      -0.91538682       0.76953710
C       -1.41026223       0.38934204      -1.06975453
N       -1.95505440       0.68110107      -2.04468982
H       -2.26475780      -0.67142863       1.36944706
H       -0.81798345      -1.56734370       1.64502947
H       -1.68486070      -1.84607882       0.19453885
H        0.15937603       1.31283456       0.21514225
H        1.10073567       0.42267365      -1.63413737
H        1.59604655       1.85370642      -0.78127693
H        2.89673920       0.39119986       0.69602673
14
Frame=11 idx=010693 GeodesicLength=1.5046684221993283 rxn_smarts="[C:1]([C@@:2]([C:3]([C:4](=[O:5])[H:14])([H:12])[H:13])([C:6]#[N:7])[H:11])([H:8])([H:9])[H:10]>>[C:1]([C:2]([O+:5]=[C:4]([C:3]([H:11])([H:12])[H:13])[H:14])=[C:6]=[N-:7])([H:8])([H:9])[H:10]"
C       -1.37130949      -1.05548056       0.85896743
C       -0.66505738       0.05571591       0.13921352
C        1.13300559       0.88109976      -0.64692276
C        1.94756990       0.04128941       0.27311284
O        1.31544276      -0.83998967       0.84352993
C       -1.38724795       0.37292563      -1.07035727
N       -1.94219623       0.67307799      -2.03682758
H       -2.22550571      -0.65181779       1.41218780
H       -0.82519210      -1.64283698       1.59639982
H       -1.75983208      -1.82536784       0.18691685
H        0.14364475       1.32888995       0.21765899
H        1.12352074       0.42498393      -1.64058792
H        1.59490268       1.85908127      -0.78862040
H        2.91825452       0.37842899       0.65532875
14
Frame=12 idx=010693 GeodesicLength=1.6328716725728003 rxn_smarts="[C:1]([C@@:2]([C:3]([C:4](=[O:5])[H:14])([H:12])[H:13])([C:6]#[N:7])[H:11])([H:8])([H:9])[H:10]>>[C:1]([C:2]([O+:5]=[C:4]([C:3]([H:11])([H:12])[H:13])[H:14])=[C:6]=[N-:7])([H:8])([H:9])[H:10]"
C       -1.37210518      -1.06755922       0.85262989
C       -0.63227390       0.02547766       0.13011173
C        1.12956823       0.88567108      -0.65349607
C        1.93643582       0.05406515       0.28120733
O        1.27117357      -0.75611931       0.92062466
C       -1.36589494       0.35768336      -1.07226222
N       -1.93304075       0.66467868      -2.02932471
H       -2.17733258      -0.63945506       1.45747553
H       -0.82698679      -1.71570321       1.53860590
H       -1.83015597      -1.79819068       0.18073503
H        0.12545686       1.34660590       0.21692084
H        1.14592967       0.42408147      -1.64544679
H        1.59564751       1.86149232      -0.79620629
H        2.93357842       0.35727188       0.61842519
14
Frame=13 idx=010693 GeodesicLength=1.7619105888179056 rxn_smarts="[C:1]([C@@:2]([C:3]([C:4](=[O:5])[H:14])([H:12])[H:13])([C:6]#[N:7])[H:11])([H:8])([H:9])[H:10]>>[C:1]([C:2]([O+:5]=[C:4]([C:3]([H:11])([H:12])[H:13])[H:14])=[C:6]=[N-:7])([H:8])([H:9])[H:10]"
C       -1.36913449      -1.07823842       0.84632753
C       -0.60315085       0.00216216       0.12321573
C        1.12494285       0.88929051      -0.65991053
C        1.91980878       0.06376274       0.29095251
O        1.22263982      -0.66629005       0.99471863
C       -1.34762409       0.34592623      -1.07279783
N       -1.92030778       0.65120804      -2.02693667
H       -2.11974904      -0.63605136       1.50753620
H       -0.82155108      -1.78466947       1.47066086
H       -1.89572743      -1.76414934       0.17780322
H        0.10543080       1.36765286       0.21391827
H        1.16569990       0.42147059      -1.64914616
H        1.59872450       1.86117904      -0.80359598
H        2.93999809       0.32674648       0.58725422
14
Frame=14 idx=010693 GeodesicLength=1.892088517459098 rxn_smarts="[C:1]([C@@:2]([C:3]([C:4](=[O:5])[H:14])([H:12])[H:13])([C:6]#[N:7])[H:11])([H:8])([H:9])[H:10]>>[C:1]([C:2]([O+:5]=[C:4]([C:3]([H:11])([H:12])[H:13])[H:14])=[C:6]=[N-:7])([H:8])([H:9])[H:10]"
C       -1.36240289      -1.08756816       0.84020482
C       -0.57710032      -0.01445413       0.11776046
C        1.12061991       0.89147133      -0.66688310
C        1.89859955       0.07063329       0.30276797
O        1.17021157      -0.57396165       1.06130726
C       -1.33063979       0.33541204      -1.07423673
N       -1.91219827       0.63699442      -2.02402073
H       -2.05542068      -0.64161046       1.55826434
H       -0.80982265      -1.84648565       1.39560422
H       -1.95365984      -1.72607534       0.17919357
H        0.08455303       1.39206512       0.20689058
H        1.18508913       0.41620235      -1.65219803
H        1.60542834       1.85769146      -0.81160306
H        2.93674292       0.28968538       0.56694845
14
Frame=15 idx=010693 GeodesicLength=2.023865467844939 rxn_smarts="[C:1]([C@@:2]([C:3]([C:4](=[O:5])[H:14])([H:12])[H:13])([C:6]#[N:7])[H:11])([H:8])([H:9])[H:10]>>[C:1]([C:2]([O+:5]=[C:4]([C:3]([H:11])([H:12])[H:13])[H:14])=[C:6]=[N-:7])([H:8])([H:9])[H:10]"
C       -1.35253351      -1.09559620       0.83460051
C       -0.55413517      -0.02432000       0.11439202
C        1.11669813       0.89203557      -0.67453976
C        1.87349929       0.07537919       0.31634152
O        1.11480332      -0.48199489       1.11808921
C       -1.31492125       0.32641983      -1.07599515
N       -1.90868294       0.62335075      -2.01953615
H       -1.98720156      -0.65612038       1.60749744
H       -0.79299271      -1.89947727       1.31590743
H       -2.00246241      -1.68624608       0.18469440
H        0.06372986       1.41980268       0.19622997
H        1.20396319       0.40765996      -1.65454896
H        1.61550771       1.85082439      -0.82072282
H        2.92472806       0.24828245       0.55759034
14
Frame=16 idx=010693 GeodesicLength=2.1571566179094663 rxn_smarts="[C:1]([C@@:2]([C:3]([C:4](=[O:5])[H:14])([H:12])[H:13])([C:6]#[N:7])[H:11])([H:8])([H:9])[H:10]>>[C:1]([C:2]([O+:5]=[C:4]([C:3]([H:11])([H:12])[H:13])[H:14])=[C:6]=[N-:7])([H:8])([H:9])[H:10]"
C       -1.34037348      -1.10249249       0.82966470
C       -0.53411307      -0.02827614       0.11322378
C        1.11298281       0.89095651      -0.68276752
C        1.84541221       0.07832693       0.33078366
O        1.05785279      -0.39244935       1.16457427
C       -1.30065735       0.31913255      -1.07746058
N       -1.90812505       0.61146876      -2.01352344
H       -1.91753600      -0.67839573       1.65360297
H       -0.77242374      -1.94261266       1.23447283
H       -2.04183249      -1.64712797       0.19387606
H        0.04343520       1.45012174       0.18291195
H        1.22195595       0.39605741      -1.65618797
H        1.62809661       1.84074497      -0.83060326
H        2.90532563       0.20454548       0.55743255
