16
Frame=0 idx=010638 GeodesicLength=0.0 rxn_smarts="[C:1]([C@@:2]1([H:11])[N:3]([H:12])[C:4](=[O:5])[C@:6]1([C:7]([H:14])([H:15])[H:16])[H:13])([H:8])([H:9])[H:10]>>[C:1]([C@@:2]([N:3]=[C:4]=[O:5])([C:6](=[C:7]([H:14])[H:15])[H:13])[H:11])([H:8])([H:9])[H:10].[H:12][H:16]"
C        1.27166840      -1.33612620       0.07407435
C        0.32140693      -0.46575616       0.86835664
N        0.77682949       0.94503853       1.05815300
C       -0.44716691       1.46415719       0.96660553
O       -1.08336122       2.43450788       1.21154393
C       -0.99757776       0.01024572       0.24352358
C       -1.05605258       0.16525820      -1.15616075
H        1.50160183      -0.91802199      -0.90708101
H        0.85550982      -2.33684673      -0.06269283
H        2.21397325      -1.42966066       0.61458056
H        0.14595289      -0.93151483       1.84188305
H        0.67988660       1.22755385      -0.69429935
H       -1.94473055      -0.17667414       0.74454041
H       -1.85401375       0.76458194      -1.58427173
H       -0.58364202      -0.53613057      -1.83627650
H        0.19971559       1.11938790      -1.38247891
16
Frame=1 idx=010638 GeodesicLength=0.1154981925911861 rxn_smarts="[C:1]([C@@:2]1([H:11])[N:3]([H:12])[C:4](=[O:5])[C@:6]1([C:7]([H:14])([H:15])[H:16])[H:13])([H:8])([H:9])[H:10]>>[C:1]([C@@:2]([N:3]=[C:4]=[O:5])([C:6](=[C:7]([H:14])[H:15])[H:13])[H:11])([H:8])([H:9])[H:10].[H:12][H:16]"
C        1.27322610      -1.33274086       0.07613989
C        0.31889097      -0.46674989       0.87008273
N        0.76981373       0.94489237       1.05460137
C       -0.44920131       1.47053726       0.98060508
O       -1.07592080       2.44802753       1.22066974
C       -1.00053177       0.00163983       0.23970820
C       -1.05854769       0.16141003      -1.15998648
H        1.51321484      -0.91028819      -0.90056930
H        0.85826157      -2.33264604      -0.06886615
H        2.21279827      -1.42883731       0.62122329
H        0.14396365      -0.93585124       1.84199484
H        0.69483093       1.24632776      -0.69080796
H       -1.94429042      -0.19223219       0.74402109
H       -1.84705183       0.77613632      -1.58405391
H       -0.61895864      -0.55735278      -1.84360825
H        0.20950238       1.10772741      -1.40115420
16
Frame=2 idx=010638 GeodesicLength=0.23099434752743037 rxn_smarts="[C:1]([C@@:2]1([H:11])[N:3]([H:12])[C:4](=[O:5])[C@:6]1([C:7]([H:14])([H:15])[H:16])[H:13])([H:8])([H:9])[H:10]>>[C:1]([C@@:2]([N:3]=[C:4]=[O:5])([C:6](=[C:7]([H:14])[H:15])[H:13])[H:11])([H:8])([H:9])[H:10].[H:12][H:16]"
C        1.27482516      -1.32919670       0.07816233
C        0.31632263      -0.46770383       0.87175078
N        0.76249589       0.94484551       1.05089787
C       -0.45134825       1.47689993       0.99503962
O       -1.06820655       2.46171392       1.22984616
C       -1.00353855      -0.00719211       0.23574889
C       -1.06087604       0.15729396      -1.16398252
H        1.52501866      -0.90231064      -0.89388074
H        0.86111289      -2.32820211      -0.07533189
H        2.21155682      -1.42794582       0.62792891
H        0.14198983      -0.94018431       1.84202931
H        0.71014049       1.26564881      -0.68696165
H       -1.94387498      -0.20803399       0.74325748
H       -1.83938333       0.78761382      -1.58391721
H       -0.65588970      -0.57857970      -1.85045786
H        0.21965503       1.09533326      -1.42012949
16
Frame=3 idx=010638 GeodesicLength=0.346482969208683 rxn_smarts="[C:1]([C@@:2]1([H:11])[N:3]([H:12])[C:4](=[O:5])[C@:6]1([C:7]([H:14])([H:15])[H:16])[H:13])([H:8])([H:9])[H:10]>>[C:1]([C@@:2]([N:3]=[C:4]=[O:5])([C:6](=[C:7]([H:14])[H:15])[H:13])[H:11])([H:8])([H:9])[H:10].[H:12][H:16]"
C        1.27646828      -1.32549227       0.08014870
C        0.31369922      -0.46861684       0.87335848
N        0.75486079       0.94490023       1.04703109
C       -0.45359641       1.48324960       1.00990234
O       -1.06020719       2.47555035       1.23907226
C       -1.00659519      -0.01625853       0.23163785
C       -1.06303503       0.15286634      -1.16816126
H        1.53703793      -0.89407576      -0.88698812
H        0.86405896      -2.32349868      -0.08211302
H        2.21023757      -1.42700396       0.63471873
H        0.14002909      -0.94450680       1.84198674
H        0.72588351       1.28550256      -0.68271422
H       -1.94347799      -0.22407915       0.74225254
H       -1.83100020       0.79894296      -1.58386697
H       -0.69446856      -0.59969295      -1.85679520
H        0.23010519       1.08221289      -1.43946994
16
Frame=4 idx=010638 GeodesicLength=0.4619593082016291 rxn_smarts="[C:1]([C@@:2]1([H:11])[N:3]([H:12])[C:4](=[O:5])[C@:6]1([C:7]([H:14])([H:15])[H:16])[H:13])([H:8])([H:9])[H:10]>>[C:1]([C@@:2]([N:3]=[C:4]=[O:5])([C:6](=[C:7]([H:14])[H:15])[H:13])[H:11])([H:8])([H:9])[H:10].[H:12][H:16]"
C        1.27815932      -1.32162306       0.08210589
C        0.31101711      -0.46948708       0.87490285
N        0.74689011       0.94505884       1.04299362
C       -0.45593440       1.48959311       1.02518265
O       -1.05191894       2.48951492       1.24835588
C       -1.00969917      -0.02556780       0.22736678
C       -1.06502637       0.14808158      -1.17253559
H        1.54929405      -0.88556756      -0.87986406
H        0.86710014      -2.31851702      -0.08923099
H        2.20883096      -1.42602308       0.64161208
H        0.13807742      -0.94881203       1.84186605
H        0.74214274       1.30588320      -0.67800355
H       -1.94309304      -0.24036726       0.74101018
H       -1.82189209       0.81005991      -1.58390726
H       -0.73473761      -0.62057242      -1.86258887
H        0.24078977       1.06834574      -1.45926566
16
Frame=5 idx=010638 GeodesicLength=0.5774189047269527 rxn_smarts="[C:1]([C@@:2]1([H:11])[N:3]([H:12])[C:4](=[O:5])[C@:6]1([C:7]([H:14])([H:15])[H:16])[H:13])([H:8])([H:9])[H:10]>>[C:1]([C@@:2]([N:3]=[C:4]=[O:5])([C:6](=[C:7]([H:14])[H:15])[H:13])[H:11])([H:8])([H:9])[H:10].[H:12][H:16]"
C        1.27990315      -1.31758139       0.08404026
C        0.30827180      -0.47031160       0.87637982
N        0.73856241       0.94532420       1.03878065
C       -0.45835122       1.49593955       1.04086677
O       -1.04334694       2.50358075       1.25771483
C       -1.01284876      -0.03512838       0.22292707
C       -1.06685708       0.14289212      -1.17711878
H        1.56180502      -0.87676741      -0.87248148
H        0.87024164      -2.31323571      -0.09670623
H        2.20732905      -1.42500830       0.64862601
H        0.13612999      -0.95309326       1.84166477
H        0.75901467       1.32679667      -0.67275061
H       -1.94271373      -0.25689827       0.73953558
H       -1.81204480       0.82090884      -1.58404148
H       -0.77674739      -0.64109332      -1.86780500
H        0.25165218       1.05367549      -1.47963219
16
Frame=6 idx=010638 GeodesicLength=0.6928642186951836 rxn_smarts="[C:1]([C@@:2]1([H:11])[N:3]([H:12])[C:4](=[O:5])[C@:6]1([C:7]([H:14])([H:15])[H:16])[H:13])([H:8])([H:9])[H:10]>>[C:1]([C@@:2]([N:3]=[C:4]=[O:5])([C:6](=[C:7]([H:14])[H:15])[H:13])[H:11])([H:8])([H:9])[H:10].[H:12][H:16]"
C        1.28170547      -1.31335600       0.08595712
C        0.30545800      -0.47108602       0.87778389
N        0.72985289       0.94570017       1.03438879
C       -0.46083732       1.50230012       1.05693885
O       -1.03450776       2.51771581       1.26717955
C       -1.01604326      -0.04494869       0.21830993
C       -1.06853986       0.13724859      -1.18192454
H        1.57458437      -0.86765442      -0.86481491
H        0.87349353      -2.30763057      -0.10455742
H        2.20572617      -1.42395730       0.65577367
H        0.13418189      -0.95734314       1.84137881
H        0.77660845       1.34826517      -0.66685610
H       -1.94233382      -0.27367294       0.73783522
H       -1.80143647       0.83144427      -1.58427313
H       -0.82055852      -0.66112624      -1.87240525
H        0.26264623       1.03810119      -1.50071448
16
Frame=7 idx=010638 GeodesicLength=0.8082970476501898 rxn_smarts="[C:1]([C@@:2]1([H:11])[N:3]([H:12])[C:4](=[O:5])[C@:6]1([C:7]([H:14])([H:15])[H:16])[H:13])([H:8])([H:9])[H:10]>>[C:1]([C@@:2]([N:3]=[C:4]=[O:5])([C:6](=[C:7]([H:14])[H:15])[H:13])[H:11])([H:8])([H:9])[H:10].[H:12][H:16]"
C        1.28357270      -1.30893212       0.08786049
C        0.30257008      -0.47180428       0.87910791
N        0.72073323       0.94619254       1.02981352
C       -0.46338532       1.50868713       1.07338115
O       -1.02542954       2.53188417       1.27679130
C       -1.01928352      -0.05503855       0.21350708
C       -1.07009534       0.13109870      -1.18696597
H        1.58764208      -0.85820428      -0.85684008
H        0.87686989      -2.30167415      -0.11280280
H        2.20401810      -1.42286169       0.66306514
H        0.13222997      -0.96155255       1.84100300
H        0.79504473       1.37033034      -0.66020044
H       -1.94194731      -0.29069398       0.73591821
H       -1.79003600       0.84163097      -1.58460455
H       -0.86623779      -0.68052817      -1.87634972
H        0.27373404       1.02146592      -1.52268426
16
Frame=8 idx=010638 GeodesicLength=0.9237244774459079 rxn_smarts="[C:1]([C@@:2]1([H:11])[N:3]([H:12])[C:4](=[O:5])[C@:6]1([C:7]([H:14])([H:15])[H:16])[H:13])([H:8])([H:9])[H:10]>>[C:1]([C@@:2]([N:3]=[C:4]=[O:5])([C:6](=[C:7]([H:14])[H:15])[H:13])[H:11])([H:8])([H:9])[H:10].[H:12][H:16]"
C        1.28551322      -1.30429282       0.08975231
C        0.29960273      -0.47245908       0.88034381
N        0.71117000       0.94681093       1.02504964
C       -0.46599203       1.51511502       1.09017698
O       -1.01615373       2.54605116       1.28660320
C       -1.02257239      -0.06540941       0.20851107
C       -1.07155366       0.12438793      -1.19225691
H        1.60098476      -0.84839010      -0.84853645
H        0.88039124      -2.29533871      -0.12146081
H        2.20220413      -1.42170798       0.67050698
H        0.13027479      -0.96571169       1.84053325
H        0.81445331       1.39306066      -0.65263974
H       -1.94154868      -0.30796629       0.73379747
H       -1.77780078       0.85144648      -1.58503897
H       -0.91386013      -0.69913976      -1.87960017
H        0.28488722       1.00354366      -1.54574168
16
Frame=9 idx=010638 GeodesicLength=1.0391988422722709 rxn_smarts="[C:1]([C@@:2]1([H:11])[N:3]([H:12])[C:4](=[O:5])[C@:6]1([C:7]([H:14])([H:15])[H:16])[H:13])([H:8])([H:9])[H:10]>>[C:1]([C@@:2]([N:3]=[C:4]=[O:5])([C:6](=[C:7]([H:14])[H:15])[H:13])[H:11])([H:8])([H:9])[H:10].[H:12][H:16]"
C        1.28753147      -1.29940740       0.09163165
C        0.29654540      -0.47303973       0.88147621
N        0.70112777       0.94755651       1.02009042
C       -0.46865373       1.52159274       1.10730796
O       -1.00672794       2.56016686       1.29667457
C       -1.02591521      -0.07607028       0.20331469
C       -1.07295191       0.11706060      -1.19780449
H        1.61461108      -0.83817295      -0.83988074
H        0.88407776      -2.28857850      -0.13054993
H        2.20028095      -1.42046296       0.67809541
H        0.12830983      -0.96980883       1.83995036
H        0.83500458       1.41652638      -0.64397879
H       -1.94113394      -0.32549565       0.73148448
H       -1.76466977       0.86086782      -1.58557789
H       -0.96350105      -0.71679824      -1.88208536
H        0.29606472       0.98406362      -1.57014855
16
Frame=10 idx=010638 GeodesicLength=1.1546911367967623 rxn_smarts="[C:1]([C@@:2]1([H:11])[N:3]([H:12])[C:4](=[O:5])[C@:6]1([C:7]([H:14])([H:15])[H:16])[H:13])([H:8])([H:9])[H:10]>>[C:1]([C@@:2]([N:3]=[C:4]=[O:5])([C:6](=[C:7]([H:14])[H:15])[H:13])[H:11])([H:8])([H:9])[H:10].[H:12][H:16]"
C        1.28963810      -1.29425318       0.09349464
C        0.29339361      -0.47353543       0.88249460
N        0.69056119       0.94844918       1.01492085
C       -0.47137838       1.52813601       1.12476093
O       -0.99722109       2.57420039       1.30708059
C       -1.02932069      -0.08703955       0.19791476
C       -1.07434519       0.10905676      -1.20362010
H        1.62851980      -0.82751677      -0.83086114
H        0.88795989      -2.28136282      -0.14009123
H        2.19825317      -1.41910246       0.68582807
H        0.12634747      -0.97382883       1.83925436
H        0.85685212       1.44085575      -0.63401751
H       -1.94069848      -0.34329574       0.72900418
H       -1.75056746       0.86989595      -1.58622639
H       -1.01523833      -0.73328967      -1.88377629
H        0.30724428       0.96263040      -1.59616033
16
Frame=11 idx=010638 GeodesicLength=1.270204961228005 rxn_smarts="[C:1]([C@@:2]1([H:11])[N:3]([H:12])[C:4](=[O:5])[C@:6]1([C:7]([H:14])([H:15])[H:16])[H:13])([H:8])([H:9])[H:10]>>[C:1]([C@@:2]([N:3]=[C:4]=[O:5])([C:6](=[C:7]([H:14])[H:15])[H:13])[H:11])([H:8])([H:9])[H:10].[H:12][H:16]"
C        1.29184062      -1.28879185       0.09533243
C        0.29013824      -0.47393118       0.88338017
N        0.67941975       0.94950284       1.00952089
C       -0.47417670       1.53475388       1.14252510
O       -0.98770987       2.58810877       1.31790194
C       -1.03280174      -0.09833432       0.19230875
C       -1.07579889       0.10031628      -1.20970779
H        1.64270163      -0.81636938      -0.82146482
H        0.89206926      -2.27364142      -0.15010940
H        2.19612453      -1.41758059       0.69369054
H        0.12439658      -0.97775391       1.83842974
H        0.88019086       1.46619071      -0.62248827
H       -1.94024016      -0.36138353       0.72638063
H       -1.73538879       0.87853568      -1.58698825
H       -1.06915798      -0.74839276      -1.88461279
H        0.31839266       0.93877077      -1.62409889
16
Frame=12 idx=010638 GeodesicLength=1.3857461568793972 rxn_smarts="[C:1]([C@@:2]1([H:11])[N:3]([H:12])[C:4](=[O:5])[C@:6]1([C:7]([H:14])([H:15])[H:16])[H:13])([H:8])([H:9])[H:10]>>[C:1]([C@@:2]([N:3]=[C:4]=[O:5])([C:6](=[C:7]([H:14])[H:15])[H:13])[H:11])([H:8])([H:9])[H:10].[H:12][H:16]"
C        1.29414792      -1.28297650       0.09712915
C        0.28676936      -0.47420898       0.88411067
N        0.66764184       0.95073738       1.00386517
C       -0.47706884       1.54145474       1.16059596
O       -0.97828640       2.60185282       1.32923058
C       -1.03637617      -0.10997450       0.18649689
C       -1.07739464       0.09077824      -1.21606913
H        1.65714177      -0.80466496      -0.81168685
H        0.89644536      -2.26535743      -0.16063514
H        2.19390288      -1.41583872       0.70165854
H        0.12247205      -0.98156476       1.83745955
H        0.90524866       1.49271388      -0.60905812
H       -1.93975831      -0.37978206       0.72364460
H       -1.71899363       0.88680515      -1.58787144
H       -1.12535482      -0.76185510      -1.88453177
H        0.32946298       0.91188080      -1.65433866
16
Frame=13 idx=010638 GeodesicLength=1.5013161326581181 rxn_smarts="[C:1]([C@@:2]1([H:11])[N:3]([H:12])[C:4](=[O:5])[C@:6]1([C:7]([H:14])([H:15])[H:16])[H:13])([H:8])([H:9])[H:10]>>[C:1]([C@@:2]([N:3]=[C:4]=[O:5])([C:6](=[C:7]([H:14])[H:15])[H:13])[H:11])([H:8])([H:9])[H:10].[H:12][H:16]"
C        1.29657021      -1.27674661       0.09886027
C        0.28327707      -0.47434571       0.88465857
N        0.65515253       0.95217911       0.99792003
C       -0.48008576       1.54824317       1.17897466
O       -0.96905884       2.61539296       1.34116775
C       -1.04006723      -0.12198395       0.18048124
C       -1.07923323       0.08038135      -1.22270163
H        1.67181753      -0.79231750      -0.80153007
H        0.90113588      -2.25644103      -0.17170712
H        2.19160107      -1.41379944       0.70969610
H        0.12059843      -0.98523730       1.83632275
H        0.93229642       1.52065401      -0.59330645
H       -1.93925283      -0.39852204       0.72083155
H       -1.70119392       0.89473580      -1.58888763
H       -1.18394127      -0.77337964      -1.88347007
H        0.34038395       0.88118681      -1.68730993
16
Frame=14 idx=010638 GeodesicLength=1.6169366305078183 rxn_smarts="[C:1]([C@@:2]1([H:11])[N:3]([H:12])[C:4](=[O:5])[C@:6]1([C:7]([H:14])([H:15])[H:16])[H:13])([H:8])([H:9])[H:10]>>[C:1]([C@@:2]([N:3]=[C:4]=[O:5])([C:6](=[C:7]([H:14])[H:15])[H:13])[H:11])([H:8])([H:9])[H:10].[H:12][H:16]"
C        1.29912014      -1.27002139       0.10048674
C        0.27964880      -0.47431094       0.88498808
N        0.64185955       0.95386343       0.99164343
C       -0.48327318       1.55512313       1.19767409
O       -0.96015922       2.62869083       1.35383219
C       -1.04390585      -0.13438636       0.17426587
C       -1.08143092       0.06906299      -1.22960082
H        1.68670111      -0.77920920      -0.79100890
H        0.90619835      -2.24680196      -0.18338422
H        2.18923829      -1.41136051       0.71774775
H        0.11880536      -0.98874481       1.83498899
H        0.96166978       1.55028989      -0.57468417
H       -1.93872781      -0.41764200       0.71798188
H       -1.68172541       0.90237190      -1.59006267
H       -1.24507224      -0.78263988      -1.88133708
H        0.35105325       0.84571488      -1.72353116
16
Frame=15 idx=010638 GeodesicLength=1.7326372171708642 rxn_smarts="[C:1]([C@@:2]1([H:11])[N:3]([H:12])[C:4](=[O:5])[C@:6]1([C:7]([H:14])([H:15])[H:16])[H:13])([H:8])([H:9])[H:10]>>[C:1]([C@@:2]([N:3]=[C:4]=[O:5])([C:6](=[C:7]([H:14])[H:15])[H:13])[H:11])([H:8])([H:9])[H:10].[H:12][H:16]"
C        1.30181480      -1.26269239       0.10195215
C        0.27587277      -0.47406374       0.88505336
N        0.62764746       0.95583937       0.98497779
C       -0.48669617       1.56209368       1.21671547
O       -0.95174970       2.64170441       1.36735385
C       -1.04793050      -0.14721024       0.16785521
C       -1.08412535       0.05675763      -1.23675915
H        1.70175471      -0.76517894      -0.78015186
H        0.91170417      -2.23632127      -0.19574840
H        2.18684413      -1.40838510       0.72573580
H        0.11713873      -0.99205245       1.83341838
H        0.99378323       1.58196092      -0.55247675
H       -1.93818710      -0.43719370       0.71513952
H       -1.66021383       0.90977310      -1.59143936
H       -1.30896355      -0.78923199      -1.87802782
H        0.36130619       0.80420070      -1.76359819
16
Frame=16 idx=010638 GeodesicLength=1.8484666097078157 rxn_smarts="[C:1]([C@@:2]1([H:11])[N:3]([H:12])[C:4](=[O:5])[C@:6]1([C:7]([H:14])([H:15])[H:16])[H:13])([H:8])([H:9])[H:10]>>[C:1]([C@@:2]([N:3]=[C:4]=[O:5])([C:6](=[C:7]([H:14])[H:15])[H:13])[H:11])([H:8])([H:9])[H:10].[H:12][H:16]"
C        1.30467768      -1.25461172       0.10317446
C        0.27193772      -0.47354780       0.88479460
N        0.61237025       0.95817539       0.97784222
C       -0.49044505       1.56914904       1.23613052
O       -0.94403591       2.65438509       1.38187243
C       -1.05218921      -0.16049022       0.16125349
C       -1.08747522       0.04339334      -1.24416774
H        1.71692406      -0.75000579      -0.76901197
H        0.91774366      -2.22483981      -0.20891320
H        2.18446456      -1.40468344       0.73354708
H        0.11566451      -0.99511346       1.83155764
H        1.02915667       1.61606180      -0.52574057
H       -1.93763478      -0.45724671       0.71235300
H       -1.63611785       0.91700854      -1.59309000
H       -1.37592026      -0.79264255      -1.87341011
H        0.37087915       0.75500829      -1.80819186
