15
Frame=0 idx=008040 GeodesicLength=0.0 rxn_smarts="[C:1]([C@@:2]1([H:11])[C:3]([H:12])([H:13])[N:4]([H:14])[C@:5]1([C:6]#[N:7])[H:15])([H:8])([H:9])[H:10]>>[C:1]([N+:4]1([H:14])[C:3]([H:12])([H:13])[C-:2]([H:11])[C@@:5]1([C:6]#[N:7])[H:15])([H:8])([H:9])[H:10]"
C        0.84463637      -0.52818022      -1.28346452
C        0.74033086       0.37735256       0.90711660
C        0.05154043       1.46440988       0.11804084
N       -0.73112869       0.34275979      -0.47088872
C       -0.60379039      -0.31852348       0.85161169
C       -0.73259286      -1.77364054       0.87491275
N       -0.84234215      -2.91538143       0.89358972
H        0.22704505      -0.74567942      -2.15128429
H        1.61610908       0.19810608      -1.49517573
H        1.22683731      -1.42936141      -0.82632136
H        1.28409400       0.53719406       1.83309995
H        0.59762629       2.07713552      -0.59904398
H       -0.64514652       2.09407294       0.69392109
H       -1.66195126       0.50694828      -0.85971171
H       -1.37126753       0.11278738       1.51359763
15
Frame=1 idx=008040 GeodesicLength=0.05282106628738382 rxn_smarts="[C:1]([C@@:2]1([H:11])[C:3]([H:12])([H:13])[N:4]([H:14])[C@:5]1([C:6]#[N:7])[H:15])([H:8])([H:9])[H:10]>>[C:1]([N+:4]1([H:14])[C:3]([H:12])([H:13])[C-:2]([H:11])[C@@:5]1([C:6]#[N:7])[H:15])([H:8])([H:9])[H:10]"
C        0.84857168      -0.52587802      -1.26998942
C        0.74338470       0.37669512       0.89413761
C        0.04623379       1.46648817       0.11377401
N       -0.74543535       0.34456297      -0.46187965
C       -0.60268984      -0.31883999       0.85824894
C       -0.73351730      -1.77410117       0.87237028
N       -0.85326777      -2.91501230       0.88466456
H        0.24578246      -0.71899856      -2.15403068
H        1.64029058       0.18245461      -1.47047985
H        1.22248655      -1.44462939      -0.84026235
H        1.28468427       0.54513209       1.81983666
H        0.58085066       2.07367736      -0.61703466
H       -0.63833001       2.10705540       0.69182137
H       -1.67538387       0.49671966      -0.85403298
H       -1.36366053       0.10467405       1.53285615
15
Frame=2 idx=008040 GeodesicLength=0.1055390461024146 rxn_smarts="[C:1]([C@@:2]1([H:11])[C:3]([H:12])([H:13])[N:4]([H:14])[C@:5]1([C:6]#[N:7])[H:15])([H:8])([H:9])[H:10]>>[C:1]([N+:4]1([H:14])[C:3]([H:12])([H:13])[C-:2]([H:11])[C@@:5]1([C:6]#[N:7])[H:15])([H:8])([H:9])[H:10]"
C        0.85251545      -0.52361504      -1.25667197
C        0.74614223       0.37609359       0.88147603
C        0.04105143       1.46849989       0.10947703
N       -0.75968601       0.34644531      -0.45262636
C       -0.60153098      -0.31921988       0.86486160
C       -0.73431692      -1.77459489       0.86963481
N       -0.86422299      -2.91453732       0.87583842
H        0.26465169      -0.69225417      -2.15585330
H        1.66365046       0.16653368      -1.44591228
H        1.21807508      -1.45897180      -0.85479958
H        1.28500413       0.55303341       1.80681232
H        0.56426909       2.06973526      -0.63488782
H       -0.63123300       2.12023097       0.68912248
H       -1.68849174       0.48635915      -0.84845332
H       -1.35587792       0.09626184       1.55198193
15
Frame=3 idx=008040 GeodesicLength=0.1581459434512615 rxn_smarts="[C:1]([C@@:2]1([H:11])[C:3]([H:12])([H:13])[N:4]([H:14])[C@:5]1([C:6]#[N:7])[H:15])([H:8])([H:9])[H:10]>>[C:1]([N+:4]1([H:14])[C:3]([H:12])([H:13])[C-:2]([H:11])[C@@:5]1([C:6]#[N:7])[H:15])([H:8])([H:9])[H:10]"
C        0.85645963      -0.52139974      -1.24350826
C        0.74860792       0.37552916       0.86911748
C        0.03599176       1.47043974       0.10516178
N       -0.77387720       0.34842591      -0.44311920
C       -0.60032883      -0.31965299       0.87143560
C       -0.73502620      -1.77509148       0.86668399
N       -0.87513644      -2.91393252       0.86712616
H        0.28360858      -0.66553928      -2.15675732
H        1.68617061       0.15038778      -1.42151783
H        1.21363661      -1.47237765      -0.86988168
H        1.28503805       0.56086191       1.79401595
H        0.54789015       2.06531344      -0.65257020
H       -0.62385205       2.13358311       0.68583892
H       -1.70124362       0.47589522      -0.84297798
H       -1.34793895       0.08755739       1.57095260
15
Frame=4 idx=008040 GeodesicLength=0.21066855293395684 rxn_smarts="[C:1]([C@@:2]1([H:11])[C:3]([H:12])([H:13])[N:4]([H:14])[C@:5]1([C:6]#[N:7])[H:15])([H:8])([H:9])[H:10]>>[C:1]([N+:4]1([H:14])[C:3]([H:12])([H:13])[C-:2]([H:11])[C@@:5]1([C:6]#[N:7])[H:15])([H:8])([H:9])[H:10]"
C        0.86039991      -0.51924832      -1.23049040
C        0.75080728       0.37501313       0.85705939
C        0.03104165       1.47232439       0.10081925
N       -0.78802081       0.35050927      -0.43335863
C       -0.59907797      -0.32014390       0.87798406
C       -0.73565330      -1.77560674       0.86354700
N       -0.88601998      -2.91322281       0.85852067
H        0.30266623      -0.63879317      -2.15678428
H        1.70790019       0.13398933      -1.39723562
H        1.20911444      -1.48489223      -0.88553055
H        1.28482023       0.56864805       1.78145445
H        0.53167899       2.06045258      -0.67009724
H       -0.61619842       2.14711839       0.68194913
H       -1.71363943       0.46530059      -0.83763504
H       -1.33981901       0.07855144       1.58979781
15
Frame=5 idx=008040 GeodesicLength=0.2631082800661283 rxn_smarts="[C:1]([C@@:2]1([H:11])[C:3]([H:12])([H:13])[N:4]([H:14])[C@:5]1([C:6]#[N:7])[H:15])([H:8])([H:9])[H:10]>>[C:1]([N+:4]1([H:14])[C:3]([H:12])([H:13])[C-:2]([H:11])[C@@:5]1([C:6]#[N:7])[H:15])([H:8])([H:9])[H:10]"
C        0.86432647      -0.51717970      -1.21761353
C        0.75275025       0.37454329       0.84529219
C        0.02620388       1.47416457       0.09645560
N       -0.80211772       0.35272065      -0.42333666
C       -0.59779412      -0.32068634       0.88450688
C       -0.73623008      -1.77613145       0.86022194
N       -0.89683450      -2.91242048       0.84999828
H        0.32178101      -0.61210658      -2.15593282
H        1.72882805       0.11737319      -1.37310658
H        1.20455981      -1.49651236      -0.90170831
H        1.28434563       0.57638393       1.76912592
H        0.51564151       2.05517905      -0.68745045
H       -0.60826020       2.16083121       0.67745879
H       -1.72565795       0.45459449      -0.83242878
H       -1.33154204       0.06924653       1.60851753
15
Frame=6 idx=008040 GeodesicLength=0.31541672201437354 rxn_smarts="[C:1]([C@@:2]1([H:11])[C:3]([H:12])([H:13])[N:4]([H:14])[C@:5]1([C:6]#[N:7])[H:15])([H:8])([H:9])[H:10]>>[C:1]([N+:4]1([H:14])[C:3]([H:12])([H:13])[C-:2]([H:11])[C@@:5]1([C:6]#[N:7])[H:15])([H:8])([H:9])[H:10]"
C        0.86821892      -0.51518754      -1.20487440
C        0.75443609       0.37408742       0.83381153
C        0.02147212       1.47594830       0.09208563
N       -0.81617873       0.35507523      -0.41305548
C       -0.59648524      -0.32126961       0.89098016
C       -0.73679620      -1.77662998       0.85667083
N       -0.90745077      -2.91148920       0.84158593
H        0.34091308      -0.58558328      -2.15423633
H        1.74892016       0.10057335      -1.34915938
H        1.19995457      -1.50721072      -0.91831783
H        1.28360843       0.58401231       1.75703872
H        0.49978525       2.04948768      -0.70459795
H       -0.60003596       2.17470050       0.67239475
H       -1.73726622       0.44383109      -0.82739632
H       -1.32309551       0.05965445       1.62707012
15
Frame=7 idx=008040 GeodesicLength=0.3676534663356317 rxn_smarts="[C:1]([C@@:2]1([H:11])[C:3]([H:12])([H:13])[N:4]([H:14])[C@:5]1([C:6]#[N:7])[H:15])([H:8])([H:9])[H:10]>>[C:1]([N+:4]1([H:14])[C:3]([H:12])([H:13])[C-:2]([H:11])[C@@:5]1([C:6]#[N:7])[H:15])([H:8])([H:9])[H:10]"
C        0.87207181      -0.51329310      -1.19226340
C        0.75588841       0.37367025       0.82260013
C        0.01683917       1.47769668       0.08769548
N       -0.83020431       0.35758193      -0.40248966
C       -0.59515112      -0.32189821       0.89743348
C       -0.73735150      -1.77712080       0.85294602
N       -0.91795763      -2.91047098       0.83322133
H        0.36008667      -0.55918448      -2.15171302
H        1.76822084       0.08358579      -1.32533911
H        1.19531596      -1.51702738      -0.93539790
H        1.28263464       0.59158297       1.74516371
H        0.48407072       2.04341395      -0.72157142
H       -0.59152677       2.18873636       0.66672018
H       -1.74845795       0.43296706      -0.82251234
H       -1.31447893       0.04975997       1.64550654
15
Frame=8 idx=008040 GeodesicLength=0.41983837593537465 rxn_smarts="[C:1]([C@@:2]1([H:11])[C:3]([H:12])([H:13])[N:4]([H:14])[C@:5]1([C:6]#[N:7])[H:15])([H:8])([H:9])[H:10]>>[C:1]([N+:4]1([H:14])[C:3]([H:12])([H:13])[C-:2]([H:11])[C@@:5]1([C:6]#[N:7])[H:15])([H:8])([H:9])[H:10]"
C        0.87588710      -0.51150034      -1.17977683
C        0.75712455       0.37329717       0.81165189
C        0.01228309       1.47940493       0.08328168
N       -0.84421626       0.36023395      -0.39162101
C       -0.59377811      -0.32256974       0.90388228
C       -0.73787686      -1.77759375       0.84907133
N       -0.92841362      -2.90933636       0.82485756
H        0.37933060      -0.53288086      -2.14841466
H        1.78678254       0.06638164      -1.30160785
H        1.19061752      -1.52597106      -0.95294311
H        1.28144645       0.59912531       1.73349829
H        0.46844482       2.03695103      -0.73839214
H       -0.58274684       2.20292770       0.66042982
H       -1.75922960       0.42197036      -0.81777592
H       -1.30565537       0.03956001       1.66385868
15
Frame=9 idx=008040 GeodesicLength=0.4719545995542932 rxn_smarts="[C:1]([C@@:2]1([H:11])[C:3]([H:12])([H:13])[N:4]([H:14])[C@:5]1([C:6]#[N:7])[H:15])([H:8])([H:9])[H:10]>>[C:1]([N+:4]1([H:14])[C:3]([H:12])([H:13])[C-:2]([H:11])[C@@:5]1([C:6]#[N:7])[H:15])([H:8])([H:9])[H:10]"
C        0.87964592      -0.50981327      -1.16740665
C        0.75813998       0.37295471       0.80095200
C        0.00780591       1.48107749       0.07885018
N       -0.85821716       0.36305627      -0.38044453
C       -0.59238056      -0.32328116       0.91031213
C       -0.73841357      -1.77803916       0.84502325
N       -0.93874372      -2.90809667       0.81651130
H        0.39860320      -0.50674682      -2.14434172
H        1.80457910       0.04899620      -1.27800073
H        1.18588235      -1.53402275      -0.97088145
H        1.28003182       0.60660795       1.72202932
H        0.45291375       2.03011873      -0.75503621
H       -0.57367410       2.21725903       0.65352844
H       -1.76954121       0.41087424      -0.81319683
H       -1.29663173       0.02905522       1.68210150
15
Frame=10 idx=008040 GeodesicLength=0.5240281830731524 rxn_smarts="[C:1]([C@@:2]1([H:11])[C:3]([H:12])([H:13])[N:4]([H:14])[C@:5]1([C:6]#[N:7])[H:15])([H:8])([H:9])[H:10]>>[C:1]([N+:4]1([H:14])[C:3]([H:12])([H:13])[C-:2]([H:11])[C@@:5]1([C:6]#[N:7])[H:15])([H:8])([H:9])[H:10]"
C        0.88333489      -0.50823620      -1.15515392
C        0.75895317       0.37264951       0.79049368
C        0.00339149       1.48271502       0.07439626
N       -0.87222393       0.36604968      -0.36893517
C       -0.59095391      -0.32402899       0.91674423
C       -0.73896153      -1.77844977       0.84083381
N       -0.94898307      -2.90674316       0.80812871
H        0.41794809      -0.48076224      -2.13954066
H        1.82163934       0.03140553      -1.25445150
H        1.18109033      -1.54119642      -0.98922820
H        1.27842144       0.61405751       1.71074487
H        0.43743429       2.02291204      -0.77152760
H       -0.56432733       2.23172715       0.64599259
H       -1.77938337       0.39966024      -0.80877054
H       -1.28737990       0.01824010       1.70027344
15
Frame=11 idx=008040 GeodesicLength=0.5760858648956201 rxn_smarts="[C:1]([C@@:2]1([H:11])[C:3]([H:12])([H:13])[N:4]([H:14])[C@:5]1([C:6]#[N:7])[H:15])([H:8])([H:9])[H:10]>>[C:1]([N+:4]1([H:14])[C:3]([H:12])([H:13])[C-:2]([H:11])[C@@:5]1([C:6]#[N:7])[H:15])([H:8])([H:9])[H:10]"
C        0.88694893      -0.50676849      -1.14301791
C        0.75957181       0.37238685       0.78026260
C       -0.00097832       1.48431706       0.06991165
N       -0.88625090       0.36921370      -0.35707227
C       -0.58948952      -0.32481617       0.92318922
C       -0.73951260      -1.77882614       0.83651868
N       -0.95918528      -2.90526647       0.79969512
H        0.43740942      -0.45487794      -2.13404845
H        1.83800239       0.01357729      -1.23091512
H        1.17621638      -1.54749562      -1.00798367
H        1.27662660       0.62149921       1.69962435
H        0.42195465       2.01533225      -0.78788690
H       -0.55470815       2.24631841       0.63780782
H       -1.78873682       0.38830311      -0.80448212
H       -1.27786859       0.00710296       1.71839698
15
Frame=12 idx=008040 GeodesicLength=0.6281561803036743 rxn_smarts="[C:1]([C@@:2]1([H:11])[C:3]([H:12])([H:13])[N:4]([H:14])[C@:5]1([C:6]#[N:7])[H:15])([H:8])([H:9])[H:10]>>[C:1]([N+:4]1([H:14])[C:3]([H:12])([H:13])[C-:2]([H:11])[C@@:5]1([C:6]#[N:7])[H:15])([H:8])([H:9])[H:10]"
C        0.89047624      -0.50541123      -1.13099256
C        0.76000562       0.37217561       0.77024623
C       -0.00532193       1.48588129       0.06538705
N       -0.90031325       0.37254734      -0.34482895
C       -0.58797636      -0.32564268       0.92966065
C       -0.74005285      -1.77916486       0.83210170
N       -0.96940110      -2.90364930       0.79114887
H        0.45702707      -0.42907150      -2.12788449
H        1.85368929      -0.00452098      -1.20733667
H        1.17124543      -1.55291860      -1.02714769
H        1.27466088       0.62896194       1.68864760
H        0.40642391       2.00737063      -0.80413534
H       -0.54482187       2.26102367       0.62894610
H       -1.79758037       0.37678587      -0.80030821
H       -1.26806072      -0.00436721       1.73649570
15
Frame=13 idx=008040 GeodesicLength=0.6802199474709366 rxn_smarts="[C:1]([C@@:2]1([H:11])[C:3]([H:12])([H:13])[N:4]([H:14])[C@:5]1([C:6]#[N:7])[H:15])([H:8])([H:9])[H:10]>>[C:1]([N+:4]1([H:14])[C:3]([H:12])([H:13])[C-:2]([H:11])[C@@:5]1([C:6]#[N:7])[H:15])([H:8])([H:9])[H:10]"
C        0.89390951      -0.50416131      -1.11908309
C        0.76026009       0.37200576       0.76043516
C       -0.00964433       1.48740954       0.06082871
N       -0.91441687       0.37606923      -0.33219304
C       -0.58641938      -0.32651025       0.93615458
C       -0.74060206      -1.77946265       0.82757307
N       -0.97964806      -2.90188483       0.78249017
H        0.47677654      -0.40343816      -2.12105662
H        1.86866690      -0.02283606      -1.18376736
H        1.16624348      -1.55742894      -1.04665276
H        1.27252614       0.63642337       1.67781184
H        0.39083621       1.99903686      -0.82025632
H       -0.53466674       2.27582177       0.61940781
H       -1.80587504       0.36513378      -0.79625594
H       -1.25794638      -0.01617812       1.75456377
15
Frame=14 idx=008040 GeodesicLength=0.7323090915049171 rxn_smarts="[C:1]([C@@:2]1([H:11])[C:3]([H:12])([H:13])[N:4]([H:14])[C@:5]1([C:6]#[N:7])[H:15])([H:8])([H:9])[H:10]>>[C:1]([N+:4]1([H:14])[C:3]([H:12])([H:13])[C-:2]([H:11])[C@@:5]1([C:6]#[N:7])[H:15])([H:8])([H:9])[H:10]"
C        0.89723650      -0.50302329      -1.10728403
C        0.76034179       0.37189077       0.75081573
C       -0.01396553       1.48890017       0.05622601
N       -0.92857823       0.37977559      -0.31913374
C       -0.58480695      -0.32741832       0.94268499
C       -0.74114649      -1.77971856       0.82295400
N       -0.98998650      -2.89995516       0.77363705
H        0.49669797      -0.37795722      -2.11358212
H        1.88295667      -0.04140438      -1.16015160
H        1.16121401      -1.56102876      -1.06648859
H        1.27023598       0.64391893       1.66709310
H        0.37513074       1.99031887      -0.83627326
H       -0.52424385       2.29070651       0.60916163
H       -1.81360099       0.35333381      -0.79228278
H       -1.24748510      -0.02833896       1.77262361
15
Frame=15 idx=008040 GeodesicLength=0.7843994243021112 rxn_smarts="[C:1]([C@@:2]1([H:11])[C:3]([H:12])([H:13])[N:4]([H:14])[C@:5]1([C:6]#[N:7])[H:15])([H:8])([H:9])[H:10]>>[C:1]([N+:4]1([H:14])[C:3]([H:12])([H:13])[C-:2]([H:11])[C@@:5]1([C:6]#[N:7])[H:15])([H:8])([H:9])[H:10]"
C        0.90044269      -0.50199574      -1.09560280
C        0.76024864       0.37181398       0.74138006
C       -0.01828871       1.49035080       0.05158613
N       -0.94280584       0.38369147      -0.30564026
C       -0.58315389      -0.32836363       0.94924512
C       -0.74172667      -1.77991783       0.81822655
N       -1.00036273      -2.89785807       0.76459703
H        0.51676417      -0.35272735      -2.10547563
H        1.89651867      -0.06017860      -1.13653195
H        1.15621422      -1.56368896      -1.08658207
H        1.26778967       0.65141211       1.65648979
H        0.35930754       1.98121562      -0.85216751
H       -0.51355087       2.30565129       0.59820422
H       -1.82071761       0.34144803      -0.78839041
H       -1.23667926      -0.04085311       1.79066172
15
Frame=16 idx=008040 GeodesicLength=0.8365250077299912 rxn_smarts="[C:1]([C@@:2]1([H:11])[C:3]([H:12])([H:13])[N:4]([H:14])[C@:5]1([C:6]#[N:7])[H:15])([H:8])([H:9])[H:10]>>[C:1]([N+:4]1([H:14])[C:3]([H:12])([H:13])[C-:2]([H:11])[C@@:5]1([C:6]#[N:7])[H:15])([H:8])([H:9])[H:10]"
C        0.90352283      -0.50107170      -1.08404330
C        0.75998869       0.37178357       0.73211185
C       -0.02263568       1.49175892       0.04689611
N       -0.95711335       0.38781165      -0.29168611
C       -0.58144834      -0.32935383       0.95584317
C       -0.74232900      -1.78006842       0.81340304
N       -1.01085828      -2.89557918       0.75533954
H        0.53703298      -0.32771375      -2.09676518
H        1.90938076      -0.07919186      -1.11285728
H        1.15125141      -1.56540626      -1.10692620
H        1.26519832       0.65893119       1.64597763
H        0.34330711       1.97171981      -0.86796043
H       -0.50259951       2.32064063       0.58649964
H       -1.82721047       0.32948147      -0.78452501
H       -1.22548748      -0.05374224       1.80869250
