16
Frame=0 idx=009862 GeodesicLength=0.0 rxn_smarts="[O:1]([C@@:2]1([H:9])[C:3]([H:10])([H:11])[C@:4]2([C:5]([H:12])([H:13])[N:6]2[H:14])[C:7]1([H:15])[H:16])[H:8]>>[O:1]([C@@:2]1([H:9])[C:3]([H:10])([H:11])[N:6]([H:14])[C:5]([H:12])([H:13])[C:4][C:7]1([H:15])[H:16])[H:8]"
O       -2.06324349      -0.81848082       1.22007959
C       -1.25278041      -0.67247530       0.08530622
C       -0.91936141       0.78372574      -0.32578059
C        0.60170730      -0.17062767      -0.89760793
C        1.81754078       0.62223471      -0.78413289
N        0.81223847       1.36859462      -0.04466559
C        0.18580266      -1.18781759       0.13242440
H       -1.55504539      -0.58826843       2.00088970
H       -1.78428367      -1.14555935      -0.74125586
H       -1.18351333       1.44768231       0.50701682
H       -1.35917627       1.16993807      -1.23713236
H        2.21125577       1.11996981      -1.66619144
H        2.59342493       0.23041183      -0.12587481
H        0.93204595       1.14460868       0.94212080
H        0.31544935      -2.21849272      -0.19887758
H        0.64793872      -1.08544388       1.13368148
16
Frame=1 idx=009862 GeodesicLength=0.06431014261212947 rxn_smarts="[O:1]([C@@:2]1([H:9])[C:3]([H:10])([H:11])[C@:4]2([C:5]([H:12])([H:13])[N:6]2[H:14])[C:7]1([H:15])[H:16])[H:8]>>[O:1]([C@@:2]1([H:9])[C:3]([H:10])([H:11])[N:6]([H:14])[C:5]([H:12])([H:13])[C:4][C:7]1([H:15])[H:16])[H:8]"
O       -2.04839651      -0.80306093       1.23744305
C       -1.25474083      -0.67105442       0.08844506
C       -0.91468172       0.77836453      -0.33610224
C        0.62195918      -0.17940438      -0.88068388
C        1.81927962       0.63720584      -0.77173266
N        0.81028982       1.36589186      -0.02126945
C        0.17826306      -1.20233076       0.12661754
H       -1.53135171      -0.55436058       2.00667689
H       -1.80380396      -1.14847807      -0.72409502
H       -1.20807932       1.45866141       0.47292376
H       -1.34095452       1.14560456      -1.26257557
H        2.18772574       1.13625095      -1.66463142
H        2.60964423       0.25251395      -0.12708364
H        0.93519096       1.14375706       0.96462841
H        0.29636754      -2.22412847      -0.23681731
H        0.64328843      -1.13543256       1.12825645
16
Frame=2 idx=009862 GeodesicLength=0.1286652557624703 rxn_smarts="[O:1]([C@@:2]1([H:9])[C:3]([H:10])([H:11])[C@:4]2([C:5]([H:12])([H:13])[N:6]2[H:14])[C:7]1([H:15])[H:16])[H:8]>>[O:1]([C@@:2]1([H:9])[C:3]([H:10])([H:11])[N:6]([H:14])[C:5]([H:12])([H:13])[C:4][C:7]1([H:15])[H:16])[H:8]"
O       -2.03260437      -0.78676158       1.25506080
C       -1.25666470      -0.66954241       0.09172929
C       -0.90973405       0.77280458      -0.34662041
C        0.64257654      -0.18842529      -0.86264625
C        1.82051886       0.65225804      -0.75887493
N        0.80789278       1.36309604       0.00233789
C        0.17045145      -1.21701174       0.12049726
H       -1.50607567      -0.52070595       2.01194055
H       -1.82384148      -1.15087608      -0.70599850
H       -1.23203696       1.46890040       0.43712717
H       -1.32191404       1.12035084      -1.28791225
H        2.16345187       1.15174478      -1.66241980
H        2.62552786       0.27607523      -0.12791087
H        0.93825112       1.14342401       0.98741732
H        0.27674499      -2.22862940      -0.27546976
H        0.63745579      -1.18670148       1.12174250
16
Frame=3 idx=009862 GeodesicLength=0.19308550706503885 rxn_smarts="[O:1]([C@@:2]1([H:9])[C:3]([H:10])([H:11])[C@:4]2([C:5]([H:12])([H:13])[N:6]2[H:14])[C:7]1([H:15])[H:16])[H:8]>>[O:1]([C@@:2]1([H:9])[C:3]([H:10])([H:11])[N:6]([H:14])[C:5]([H:12])([H:13])[C:4][C:7]1([H:15])[H:16])[H:8]"
O       -2.01587016      -0.76962080       1.27284056
C       -1.25855199      -0.66793444       0.09515212
C       -0.90450303       0.76704025      -0.35728971
C        0.66355697      -0.19770441      -0.84337578
C        1.82122259       0.66734391      -0.74558390
N        0.80503263       1.36026412       0.02607795
C        0.16236476      -1.23182083       0.11408573
H       -1.47922710      -0.48744418       2.01664744
H       -1.84433152      -1.15268763      -0.68697393
H       -1.25526640       1.47828641       0.39974056
H       -1.30203785       1.09414850      -1.31303992
H        2.13844782       1.16624225      -1.65962259
H        2.64099892       0.30113858      -0.12834806
H        0.94122797       1.14378659       1.01043242
H        0.25664938      -2.23182661      -0.31484878
H        0.63028702      -1.23921171       1.11410588
16
Frame=4 idx=009862 GeodesicLength=0.25758005130392914 rxn_smarts="[O:1]([C@@:2]1([H:9])[C:3]([H:10])([H:11])[C@:4]2([C:5]([H:12])([H:13])[N:6]2[H:14])[C:7]1([H:15])[H:16])[H:8]>>[O:1]([C@@:2]1([H:9])[C:3]([H:10])([H:11])[N:6]([H:14])[C:5]([H:12])([H:13])[C:4][C:7]1([H:15])[H:16])[H:8]"
O       -1.99823209      -0.75172647       1.29066827
C       -1.26040676      -0.66623125       0.09869880
C       -0.89897564       0.76107960      -0.36805033
C        0.68488900      -0.20725118      -0.82274294
C        1.82136059       0.68240589      -0.73190475
N        0.80172076       1.35746325       0.04986543
C        0.15400320      -1.24670876       0.10741433
H       -1.45087158      -0.45474260       2.02076408
H       -1.86518604      -1.15385976      -0.66707070
H       -1.27765331       1.48671495       0.36093320
H       -1.28132850       1.06702937      -1.33783544
H        2.11272842       1.17950706      -1.65633899
H        2.65598664       0.32771930      -0.12842655
H        0.94414753       1.14503865       1.03360553
H        0.23620336      -2.23355932      -0.35492288
H        0.62161442      -1.29287872       1.10534293
16
Frame=5 idx=009862 GeodesicLength=0.3221480231809634 rxn_smarts="[O:1]([C@@:2]1([H:9])[C:3]([H:10])([H:11])[C@:4]2([C:5]([H:12])([H:13])[N:6]2[H:14])[C:7]1([H:15])[H:16])[H:8]>>[O:1]([C@@:2]1([H:9])[C:3]([H:10])([H:11])[N:6]([H:14])[C:5]([H:12])([H:13])[C:4][C:7]1([H:15])[H:16])[H:8]"
O       -1.97974807      -0.73319101       1.30842110
C       -1.26223422      -0.66443281       0.10235084
C       -0.89314101       0.75494380      -0.37882871
C        0.70655382      -0.21706075      -0.80060919
C        1.82090863       0.69737826      -0.71789222
N        0.79799006       1.35477303       0.07360891
C        0.14537070      -1.26161677       0.10051741
H       -1.42112245      -0.42280587       2.02425652
H       -1.88630604      -1.15434669      -0.64636629
H       -1.29909058       1.49409126       0.32091122
H       -1.25979933       1.03905843      -1.36216466
H        2.08630200       1.19127495      -1.65268323
H        2.67042457       0.35580886      -0.12820716
H        0.94705206       1.14739078       1.05684844
H        0.21557305      -2.23367561      -0.39563805
H        0.61126681      -1.34758985       1.09547506
16
Frame=6 idx=009862 GeodesicLength=0.38681867895569827 rxn_smarts="[O:1]([C@@:2]1([H:9])[C:3]([H:10])([H:11])[C@:4]2([C:5]([H:12])([H:13])[N:6]2[H:14])[C:7]1([H:15])[H:16])[H:8]>>[O:1]([C@@:2]1([H:9])[C:3]([H:10])([H:11])[N:6]([H:14])[C:5]([H:12])([H:13])[C:4][C:7]1([H:15])[H:16])[H:8]"
O       -1.96045712      -0.71413177       1.32600258
C       -1.26403308      -0.66253766       0.10609914
C       -0.88699401       0.74864243      -0.38954671
C        0.72852884      -0.22713123      -0.77682087
C        1.81984042       0.71218435      -0.70359749
N        0.79384886       1.35228211       0.09721734
C        0.13648199      -1.27649331       0.09341986
H       -1.39004714      -0.39180388       2.02711127
H       -1.90758869      -1.15409372      -0.62491765
H       -1.31950963       1.50034351       0.27983739
H       -1.23745600       1.01025232      -1.38588606
H        2.05923481       1.20127514      -1.64875453
H        2.68422264       0.38539006      -0.12772464
H        0.94994305       1.15107795       1.08008879
H        0.19489097      -2.23196385      -0.43696149
H        0.59909408      -1.40329245       1.08443309
16
Frame=7 idx=009862 GeodesicLength=0.451605939762859 rxn_smarts="[O:1]([C@@:2]1([H:9])[C:3]([H:10])([H:11])[C@:4]2([C:5]([H:12])([H:13])[N:6]2[H:14])[C:7]1([H:15])[H:16])[H:8]>>[O:1]([C@@:2]1([H:9])[C:3]([H:10])([H:11])[N:6]([H:14])[C:5]([H:12])([H:13])[C:4][C:7]1([H:15])[H:16])[H:8]"
O       -1.94041668      -0.69469520       1.34331251
C       -1.26580475      -0.66054841       0.10993019
C       -0.88053620       0.74219805      -0.40011908
C        0.75077551      -0.23745007      -0.75122089
C        1.81813497       0.72674027      -0.68907583
N        0.78932352       1.35009570       0.12059365
C        0.12735823      -1.29127449       0.08614842
H       -1.35775866      -0.36193826       2.02931711
H       -1.92891878      -1.15306464      -0.60281093
H       -1.33884300       1.50540456       0.23790730
H       -1.21431919       0.98067201      -1.40883879
H        2.03159697       1.20921018      -1.64466303
H        2.69729605       0.41640474      -0.12704811
H        0.95283337       1.15635309       1.10323705
H        0.17433999      -2.22821453      -0.47882575
H        0.58493866      -1.45989301       1.07215617
16
Frame=8 idx=009862 GeodesicLength=0.5165142890827003 rxn_smarts="[O:1]([C@@:2]1([H:9])[C:3]([H:10])([H:11])[C@:4]2([C:5]([H:12])([H:13])[N:6]2[H:14])[C:7]1([H:15])[H:16])[H:8]>>[O:1]([C@@:2]1([H:9])[C:3]([H:10])([H:11])[N:6]([H:14])[C:5]([H:12])([H:13])[C:4][C:7]1([H:15])[H:16])[H:8]"
O       -1.91969045      -0.67505944       1.36025881
C       -1.26754635      -0.65846842       0.11382957
C       -0.87377807       0.73564768      -0.41044620
C        0.77324459      -0.24798913      -0.72366049
C        1.81578007       0.74094419      -0.67439850
N        0.78444870       1.34832131       0.14363793
C        0.11803174      -1.30589077       0.07871967
H       -1.32437883      -0.33341369       2.03087262
H       -1.95017205      -1.15123087      -0.58014617
H       -1.35706750       1.50921993       0.19532358
H       -1.19042556       0.95041232      -1.43085813
H        2.00349207       1.21477553      -1.64050523
H        2.70955347       0.44875695      -0.12625802
H        0.95572834       1.16347695       1.12619306
H        0.15411991      -2.22222947      -0.52111829
H        0.56865992      -1.51727308       1.05855578
16
Frame=9 idx=009862 GeodesicLength=0.5814356962854982 rxn_smarts="[O:1]([C@@:2]1([H:9])[C:3]([H:10])([H:11])[C@:4]2([C:5]([H:12])([H:13])[N:6]2[H:14])[C:7]1([H:15])[H:16])[H:8]>>[O:1]([C@@:2]1([H:9])[C:3]([H:10])([H:11])[N:6]([H:14])[C:5]([H:12])([H:13])[C:4][C:7]1([H:15])[H:16])[H:8]"
O       -1.89816627      -0.65537179       1.37683561
C       -1.26922553      -0.65631555       0.11778842
C       -0.86672704       0.72899253      -0.42052737
C        0.79583970      -0.25858465      -0.69389346
C        1.81280749       0.75471619      -0.65950634
N        0.77923357       1.34709126       0.16615338
C        0.10856989      -1.32030043       0.07098576
H       -1.28987000      -0.30642929       2.03174438
H       -1.97125566      -1.14858450      -0.55697760
H       -1.37426408       1.51174949       0.15234706
H       -1.16587128       0.91962082      -1.45180551
H        1.97512159       1.21759897      -1.63611633
H        2.72094276       0.48237641      -0.12538493
H        0.95853664       1.17286491       1.14861232
H        0.13426646      -2.21399057      -0.56363631
H        0.55006175      -1.57543379       1.04338091
16
Frame=10 idx=009862 GeodesicLength=0.6465339802903675 rxn_smarts="[O:1]([C@@:2]1([H:9])[C:3]([H:10])([H:11])[C@:4]2([C:5]([H:12])([H:13])[N:6]2[H:14])[C:7]1([H:15])[H:16])[H:8]>>[O:1]([C@@:2]1([H:9])[C:3]([H:10])([H:11])[N:6]([H:14])[C:5]([H:12])([H:13])[C:4][C:7]1([H:15])[H:16])[H:8]"
O       -1.87601727      -0.63583762       1.39297054
C       -1.27087456      -0.65408408       0.12181977
C       -0.85943061       0.72229302      -0.43020184
C        0.81849530      -0.26931797      -0.66180628
C        1.80917145       0.76788378      -0.64451950
N        0.77372572       1.34650383       0.18811786
C        0.09898296      -1.33438973       0.06307232
H       -1.25443766      -0.28111557       2.03200471
H       -1.99205965      -1.14514320      -0.53339964
H       -1.39038506       1.51298915       0.10910762
H       -1.14065760       0.88832967      -1.47155439
H        1.94652065       1.21734661      -1.63175453
H        2.73132195       0.51704325      -0.12448720
H        0.96128928       1.18467287       1.17056045
H        0.11524782      -2.20303524      -0.60652845
H        0.52910728      -1.63413879       1.02659855
16
Frame=11 idx=009862 GeodesicLength=0.7118316901434467 rxn_smarts="[O:1]([C@@:2]1([H:9])[C:3]([H:10])([H:11])[C@:4]2([C:5]([H:12])([H:13])[N:6]2[H:14])[C:7]1([H:15])[H:16])[H:8]>>[O:1]([C@@:2]1([H:9])[C:3]([H:10])([H:11])[N:6]([H:14])[C:5]([H:12])([H:13])[C:4][C:7]1([H:15])[H:16])[H:8]"
O       -1.85327751      -0.61664858       1.40864591
C       -1.27249626      -0.65178596       0.12591975
C       -0.85193887       0.71558890      -0.43939759
C        0.84108865      -0.28012379      -0.62722954
C        1.80487174       0.78029642      -0.62945716
N        0.76794936       1.34668140       0.20942799
C        0.08932574      -1.34806662       0.05494583
H       -1.21818321      -0.25759637       2.03167659
H       -2.01248874      -1.14095049      -0.50949395
H       -1.40548006       1.51294295       0.06582248
H       -1.11485840       0.85665604      -1.48999246
H        1.91785296       1.21368657      -1.62744171
H        2.74058599       0.55250773      -0.12363623
H        0.96392841       1.19918412       1.19191235
H        0.09733744      -2.18915945      -0.64973189
H        0.50578277      -1.69321287       1.00802961
16
Frame=12 idx=009862 GeodesicLength=0.7773760978403508 rxn_smarts="[O:1]([C@@:2]1([H:9])[C:3]([H:10])([H:11])[C@:4]2([C:5]([H:12])([H:13])[N:6]2[H:14])[C:7]1([H:15])[H:16])[H:8]>>[O:1]([C@@:2]1([H:9])[C:3]([H:10])([H:11])[N:6]([H:14])[C:5]([H:12])([H:13])[C:4][C:7]1([H:15])[H:16])[H:8]"
O       -1.82997492      -0.59800076       1.42387061
C       -1.27409138      -0.64943319       0.13009759
C       -0.84432082       0.70892740      -0.44803817
C        0.86347703      -0.29092653      -0.59001770
C        1.79991665       0.79177427      -0.61433505
N        0.76192906       1.34773410       0.22997524
C        0.07966497      -1.36123103       0.04658275
H       -1.18120703      -0.23596073       2.03078885
H       -2.03245430      -1.13607095      -0.48532565
H       -1.41963392       1.51162463       0.02268702
H       -1.08858311       0.82472927      -1.50700502
H        1.88929819       1.20628081      -1.62315442
H        2.74861930       0.58845290      -0.12287387
H        0.96638720       1.21666400       1.21249818
H        0.08086227      -2.17212589      -0.69321699
H        0.48011083      -1.75243831       0.98746662
16
Frame=13 idx=009862 GeodesicLength=0.8432286256524416 rxn_smarts="[O:1]([C@@:2]1([H:9])[C:3]([H:10])([H:11])[C@:4]2([C:5]([H:12])([H:13])[N:6]2[H:14])[C:7]1([H:15])[H:16])[H:8]>>[O:1]([C@@:2]1([H:9])[C:3]([H:10])([H:11])[N:6]([H:14])[C:5]([H:12])([H:13])[C:4][C:7]1([H:15])[H:16])[H:8]"
O       -1.80613229      -0.58009713       1.43865926
C       -1.27566007      -0.64704143       0.13436189
C       -0.83666661       0.70236577      -0.45604914
C        0.88548382      -0.30164332      -0.55006591
C        1.79431805       0.80212089      -0.59915897
N        0.75568829       1.34975983       0.24965053
C        0.07008596      -1.37376066       0.03795647
H       -1.14361366      -0.21626168       2.02936520
H       -2.05186794      -1.13059345      -0.46095864
H       -1.43295165       1.50905833      -0.02009827
H       -1.06196497       0.79268430      -1.52249886
H        1.86106679       1.19487685      -1.61882409
H        2.75532197       0.62448754      -0.12226060
H        0.96859431       1.23734484       1.23213741
H        0.06614561      -2.15175066      -0.73686636
H        0.45215238      -1.81155001       0.96465008
16
Frame=14 idx=009862 GeodesicLength=0.9094528835153568 rxn_smarts="[O:1]([C@@:2]1([H:9])[C:3]([H:10])([H:11])[C@:4]2([C:5]([H:12])([H:13])[N:6]2[H:14])[C:7]1([H:15])[H:16])[H:8]>>[O:1]([C@@:2]1([H:9])[C:3]([H:10])([H:11])[N:6]([H:14])[C:5]([H:12])([H:13])[C:4][C:7]1([H:15])[H:16])[H:8]"
O       -1.78178333      -0.56315346       1.45302188
C       -1.27720563      -0.64463515       0.13870579
C       -0.82908310       0.69597141      -0.46335959
C        0.90687520      -0.31216941      -0.50733383
C        1.78810290       0.81112828      -0.58392410
N        0.74924109       1.35283499       0.26835318
C        0.06069805      -1.38551877       0.02902943
H       -1.10553399      -0.19853016       2.02740024
H       -2.07063692      -1.12463720      -0.43647064
H       -1.44557214       1.50527526      -0.06231934
H       -1.03518175       0.76073498      -1.53636243
H        1.83336351       1.17917241      -1.61437904
H        2.76062383       0.66012306      -0.12185537
H        0.97045477       1.26140305       1.25065374
H        0.05354744      -2.12782319      -0.78050026
H        0.42209006      -1.87017611       0.93934035
16
Frame=15 idx=009862 GeodesicLength=0.9761399551428734 rxn_smarts="[O:1]([C@@:2]1([H:9])[C:3]([H:10])([H:11])[C@:4]2([C:5]([H:12])([H:13])[N:6]2[H:14])[C:7]1([H:15])[H:16])[H:8]>>[O:1]([C@@:2]1([H:9])[C:3]([H:10])([H:11])[N:6]([H:14])[C:5]([H:12])([H:13])[C:4][C:7]1([H:15])[H:16])[H:8]"
O       -1.75698421      -0.54737643       1.46696462
C       -1.27873620      -0.64223827       0.14311951
C       -0.82169932       0.68982595      -0.46990199
C        0.92739006      -0.32239516      -0.46189137
C        1.78130419       0.81859504      -0.56862743
N        0.74261214       1.35699111       0.28600276
C        0.05162429      -1.39634850       0.01979587
H       -1.06714388      -0.18273210       2.02488440
H       -2.08867587      -1.11834824      -0.41194631
H       -1.45764771       1.50032452      -0.10376659
H       -1.00844789       0.72911449      -1.54851007
H        1.80638953       1.15901489      -1.60968923
H        2.76449595       0.69480942      -0.12174445
H        0.97190962       1.28889830       1.26784602
H        0.04344446      -2.10024555      -0.82384299
H        0.39016486      -1.92788947       0.91130725
16
Frame=16 idx=009862 GeodesicLength=1.0433709153914872 rxn_smarts="[O:1]([C@@:2]1([H:9])[C:3]([H:10])([H:11])[C@:4]2([C:5]([H:12])([H:13])[N:6]2[H:14])[C:7]1([H:15])[H:16])[H:8]>>[O:1]([C@@:2]1([H:9])[C:3]([H:10])([H:11])[N:6]([H:14])[C:5]([H:12])([H:13])[C:4][C:7]1([H:15])[H:16])[H:8]"
O       -1.73184290      -0.53297721       1.48046034
C       -1.28026301      -0.63987757       0.14756819
C       -0.81465268       0.68402844      -0.47561802
C        0.94674535      -0.33220672      -0.41396831
C        1.77396291       0.82434165      -0.55327475
N        0.73584412       1.36219554       0.30255539
C        0.04301059      -1.40608107       0.01026988
H       -1.02870253      -0.16878006       2.02179169
H       -2.10589862      -1.11189610      -0.38751972
H       -1.46932834       1.49427772      -0.14420061
H       -0.98201744       0.69811904      -1.55887300
H        1.78030544       1.13439632      -1.60461329
H        2.76696069       0.72794575      -0.12205727
H        0.97294718       1.31972501       1.28352865
H        0.03619647      -2.06905860      -0.86647984
H        0.35673279      -1.98415213       0.88043066
