12
Frame=0 idx=008980 GeodesicLength=0.0 rxn_smarts="[N:1]([c:2]1[c:3]([H:10])[n:4][c:5]([H:11])[n:6][c:7]1[H:12])([H:8])[H:9]>>[N:1]([C:2]/[C:7](=[N:6]\[C-:5]([N+:4]#[C:3][H:10])[H:11])[H:12])([H:8])[H:9]"
N       -2.19368716      -0.45708743       0.06303748
C       -1.04164065      -0.00808801      -0.34776691
C        1.23735604       2.19981792      -0.43764655
N        1.57715576       1.18002954       0.12209017
C        1.85557015      -0.02722804       0.43449215
N        1.15955835      -1.11615245      -0.04977652
C       -0.05848833      -1.09905676      -0.43825953
H       -2.98048975       0.16789532       0.14079025
H       -2.38095722      -1.42695553       0.31671768
H        0.50642087       2.84857593       0.05316603
H        2.73795633      -0.22429825       1.02676712
H       -0.41875443      -2.03745222      -0.88361133
12
Frame=1 idx=008980 GeodesicLength=0.09635803379655092 rxn_smarts="[N:1]([c:2]1[c:3]([H:10])[n:4][c:5]([H:11])[n:6][c:7]1[H:12])([H:8])[H:9]>>[N:1]([C:2]/[C:7](=[N:6]\[C-:5]([N+:4]#[C:3][H:10])[H:11])[H:12])([H:8])[H:9]"
N       -2.15937417      -0.40732508       0.05076992
C       -1.01059760      -0.02637120      -0.43638422
C        1.12790221       2.16404246      -0.41351000
N        1.54462538       1.17448760       0.15675586
C        1.85570762      -0.03583742       0.42589403
N        1.18039214      -1.13042850      -0.07029692
C       -0.04157552      -1.12865594      -0.44987482
H       -2.93581619       0.23464551       0.07426096
H       -2.35920345      -1.35047301       0.38174674
H        0.44492779       2.82646814       0.12561984
H        2.76938487      -0.22620214       0.97199912
H       -0.41637309      -2.09435042      -0.81698050
12
Frame=2 idx=008980 GeodesicLength=0.19372149873793085 rxn_smarts="[N:1]([c:2]1[c:3]([H:10])[n:4][c:5]([H:11])[n:6][c:7]1[H:12])([H:8])[H:9]>>[N:1]([C:2]/[C:7](=[N:6]\[C-:5]([N+:4]#[C:3][H:10])[H:11])[H:12])([H:8])[H:9]"
N       -2.12721328      -0.35882026       0.03533329
C       -0.98033011      -0.04736895      -0.50738186
C        1.02400518       2.12564137      -0.38456581
N        1.51290207       1.16669496       0.18911197
C        1.85945555      -0.04392084       0.41297933
N        1.20092676      -1.14460113      -0.08818215
C       -0.02642494      -1.15680187      -0.45338268
H       -2.89235044       0.29623824       0.00931220
H       -2.34008694      -1.27190488       0.43391820
H        0.38208649       2.79871855       0.19055663
H        2.80124631      -0.22352806       0.91404093
H       -0.41421665      -2.14034713      -0.75174006
12
Frame=3 idx=008980 GeodesicLength=0.2909638128475663 rxn_smarts="[N:1]([c:2]1[c:3]([H:10])[n:4][c:5]([H:11])[n:6][c:7]1[H:12])([H:8])[H:9]>>[N:1]([C:2]/[C:7](=[N:6]\[C-:5]([N+:4]#[C:3][H:10])[H:11])[H:12])([H:8])[H:9]"
N       -2.09809171      -0.31236592       0.02011246
C       -0.95214255      -0.06616354      -0.56129326
C        0.92848534       2.08523089      -0.35172962
N        1.48478678       1.15709688       0.21970272
C        1.86635195      -0.05160616       0.39588016
N        1.21882595      -1.15819103      -0.10255440
C       -0.01360976      -1.18016154      -0.45372382
H       -2.85907624       0.34207397      -0.06749772
H       -2.31733197      -1.19004956       0.48757077
H        0.32307142       2.76766253       0.25118000
H        2.83268250      -0.21889228       0.85347007
H       -0.41395172      -2.17463423      -0.69111737
12
Frame=4 idx=008980 GeodesicLength=0.38710839392338914 rxn_smarts="[N:1]([c:2]1[c:3]([H:10])[n:4][c:5]([H:11])[n:6][c:7]1[H:12])([H:8])[H:9]>>[N:1]([C:2]/[C:7](=[N:6]\[C-:5]([N+:4]#[C:3][H:10])[H:11])[H:12])([H:8])[H:9]"
N       -2.07351008      -0.27074504       0.00413477
C       -0.92588462      -0.08334132      -0.59973203
C        0.84142308       2.04313221      -0.31994978
N        1.46024706       1.14710386       0.24714617
C        1.87569933      -0.05713887       0.37639152
N        1.23376862      -1.17172174      -0.10713279
C       -0.00274631      -1.20044392      -0.44734970
H       -2.82797617       0.38235768      -0.13357826
H       -2.30160649      -1.11564993       0.52362740
H        0.27009442       2.73678811       0.30303471
H        2.86334636      -0.21018383       0.79240177
H       -0.41285520      -2.20015720      -0.63899378
12
Frame=5 idx=008980 GeodesicLength=0.48219569887325203 rxn_smarts="[N:1]([c:2]1[c:3]([H:10])[n:4][c:5]([H:11])[n:6][c:7]1[H:12])([H:8])[H:9]>>[N:1]([C:2]/[C:7](=[N:6]\[C-:5]([N+:4]#[C:3][H:10])[H:11])[H:12])([H:8])[H:9]"
N       -2.05253949      -0.23306764      -0.01098791
C       -0.90172497      -0.09729890      -0.62669543
C        0.76310998       2.00025431      -0.28830090
N        1.43954186       1.13696261       0.27281252
C        1.88591628      -0.06116995       0.35531046
N        1.24560341      -1.18487039      -0.10454326
C        0.00643948      -1.21694386      -0.43923419
H       -2.80277970       0.41249644      -0.19786371
H       -2.28684187      -1.04514421       0.55500340
H        0.22382178       2.70719946       0.34817451
H        2.89154236      -0.19981219       0.73236621
H       -0.41208913      -2.21860568      -0.59604170
12
Frame=6 idx=008980 GeodesicLength=0.5765297509385204 rxn_smarts="[N:1]([c:2]1[c:3]([H:10])[n:4][c:5]([H:11])[n:6][c:7]1[H:12])([H:8])[H:9]>>[N:1]([C:2]/[C:7](=[N:6]\[C-:5]([N+:4]#[C:3][H:10])[H:11])[H:12])([H:8])[H:9]"
N       -2.03509995      -0.19952158      -0.02826589
C       -0.87868087      -0.11005676      -0.64603707
C        0.69099539       1.95692926      -0.25554795
N        1.42161358       1.12704878       0.29699384
C        1.89616981      -0.06338146       0.33428055
N        1.25444651      -1.19795708      -0.09123666
C        0.01447955      -1.23168388      -0.42711173
H       -2.77849158       0.44041935      -0.25648559
H       -2.27709897      -0.98055071       0.57592100
H        0.18248101       2.67861673       0.38948069
H        2.92007099      -0.18626677       0.66569830
H       -0.41088546      -2.23359587      -0.55768950
12
Frame=7 idx=008980 GeodesicLength=0.6703604108241404 rxn_smarts="[N:1]([c:2]1[c:3]([H:10])[n:4][c:5]([H:11])[n:6][c:7]1[H:12])([H:8])[H:9]>>[N:1]([C:2]/[C:7](=[N:6]\[C-:5]([N+:4]#[C:3][H:10])[H:11])[H:12])([H:8])[H:9]"
N       -2.02016060      -0.16954644      -0.04635592
C       -0.85663903      -0.12121624      -0.65947236
C        0.62504936       1.91350439      -0.22200915
N        1.40634428       1.11746105       0.32035030
C        1.90574589      -0.06432368       0.31317488
N        1.26057590      -1.21080772      -0.06876905
C        0.02178434      -1.24460210      -0.41360404
H       -2.75575367       0.46474146      -0.31191339
H       -2.26925599      -0.91965925       0.59221836
H        0.14518483       2.65115638       0.42683226
H        2.94642394      -0.17100844       0.59518441
H       -0.40929926      -2.24569942      -0.52563631
12
Frame=8 idx=008980 GeodesicLength=0.7636487758613886 rxn_smarts="[N:1]([c:2]1[c:3]([H:10])[n:4][c:5]([H:11])[n:6][c:7]1[H:12])([H:8])[H:9]>>[N:1]([C:2]/[C:7](=[N:6]\[C-:5]([N+:4]#[C:3][H:10])[H:11])[H:12])([H:8])[H:9]"
N       -2.00774947      -0.14301758      -0.06687324
C       -0.83492766      -0.13151091      -0.66809266
C        0.56361012       1.87037500      -0.18606821
N        1.39440700       1.10878000       0.34177912
C        1.91475907      -0.06400717       0.29164547
N        1.26411060      -1.22274878      -0.03572900
C        0.02863572      -1.25640882      -0.39688076
H       -2.73324858       0.48764034      -0.36609271
H       -2.26504667      -0.86250317       0.60208155
H        0.11125485       2.62404811       0.46406068
H        2.97115446      -0.15432270       0.51597411
H       -0.40695944      -2.25632431      -0.49580435
12
Frame=9 idx=008980 GeodesicLength=0.8566260778388208 rxn_smarts="[N:1]([c:2]1[c:3]([H:10])[n:4][c:5]([H:11])[n:6][c:7]1[H:12])([H:8])[H:9]>>[N:1]([C:2]/[C:7](=[N:6]\[C-:5]([N+:4]#[C:3][H:10])[H:11])[H:12])([H:8])[H:9]"
N       -1.99711697      -0.11840782      -0.08912243
C       -0.81338945      -0.14004788      -0.67272021
C        0.50646142       1.82791872      -0.14640190
N        1.38727329       1.10153086       0.35956170
C        1.92320196      -0.06283827       0.26779802
N        1.26501373      -1.23292925       0.00652279
C        0.03504843      -1.26642640      -0.37798266
H       -2.71413944       0.50223244      -0.42669439
H       -2.26065857      -0.80339614       0.61199821
H        0.08047981       2.59551108       0.50515148
H        2.99226885      -0.13827331       0.42969741
H       -0.40444307      -2.26487403      -0.46780801
12
Frame=10 idx=008980 GeodesicLength=0.9495980501874803 rxn_smarts="[N:1]([c:2]1[c:3]([H:10])[n:4][c:5]([H:11])[n:6][c:7]1[H:12])([H:8])[H:9]>>[N:1]([C:2]/[C:7](=[N:6]\[C-:5]([N+:4]#[C:3][H:10])[H:11])[H:12])([H:8])[H:9]"
N       -1.98758796      -0.09583950      -0.11321074
C       -0.79191958      -0.14756810      -0.67462489
C        0.45296498       1.78581725      -0.10371668
N        1.38403308       1.09614560       0.37348660
C        1.92973516      -0.06154255       0.24572752
N        1.26505406      -1.24010092       0.05208824
C        0.04139565      -1.27513346      -0.35705208
H       -2.69604456       0.51158552      -0.49011802
H       -2.25659150      -0.74316223       0.62011831
H        0.05199544       2.56577768       0.54898788
H        3.00805267      -0.12367214       0.33748215
H       -0.40108743      -2.27230714      -0.43916829
12
Frame=11 idx=008980 GeodesicLength=1.0429164477224415 rxn_smarts="[N:1]([c:2]1[c:3]([H:10])[n:4][c:5]([H:11])[n:6][c:7]1[H:12])([H:8])[H:9]>>[N:1]([C:2]/[C:7](=[N:6]\[C-:5]([N+:4]#[C:3][H:10])[H:11])[H:12])([H:8])[H:9]"
N       -1.97842858      -0.07648730      -0.13816936
C       -0.77044467      -0.15577743      -0.67401280
C        0.40258052       1.74335499      -0.06106575
N        1.38214458       1.09277991       0.38426525
C        1.93387148      -0.05999678       0.22925934
N        1.26573674      -1.24458549       0.09835299
C        0.04817757      -1.28352921      -0.33329619
H       -2.67270470       0.52753809      -0.54521790
H       -2.25683704      -0.68962138       0.61981463
H        0.02428046       2.53619772       0.58957398
H        3.01674074      -0.10981618       0.24112056
H       -0.39511710      -2.28005695      -0.41062476
12
Frame=12 idx=008980 GeodesicLength=1.1368689406440688 rxn_smarts="[N:1]([c:2]1[c:3]([H:10])[n:4][c:5]([H:11])[n:6][c:7]1[H:12])([H:8])[H:9]>>[N:1]([C:2]/[C:7](=[N:6]\[C-:5]([N+:4]#[C:3][H:10])[H:11])[H:12])([H:8])[H:9]"
N       -1.96916701      -0.05753322      -0.16362174
C       -0.74910789      -0.16252874      -0.67190711
C        0.35562742       1.70070978      -0.01527659
N        1.38248537       1.09079752       0.39169759
C        1.93702724      -0.05874558       0.21467552
N        1.26749784      -1.24682393       0.14030344
C        0.05466644      -1.29039778      -0.30917565
H       -2.65199384       0.53393200      -0.60645547
H       -2.25394032      -0.63020818       0.62237861
H       -0.00170098       2.50477734       0.63338218
H        3.01818105      -0.09773130       0.14457801
H       -0.38957533      -2.28624790      -0.38057880
12
Frame=13 idx=008980 GeodesicLength=1.2313269612320648 rxn_smarts="[N:1]([c:2]1[c:3]([H:10])[n:4][c:5]([H:11])[n:6][c:7]1[H:12])([H:8])[H:9]>>[N:1]([C:2]/[C:7](=[N:6]\[C-:5]([N+:4]#[C:3][H:10])[H:11])[H:12])([H:8])[H:9]"
N       -1.95940974      -0.04094736      -0.18750318
C       -0.72847816      -0.16964710      -0.66858854
C        0.31165980       1.65755418       0.02854033
N        1.38186785       1.08992992       0.39693697
C        1.93867145      -0.05728233       0.20389475
N        1.27042827      -1.24766998       0.17860976
C        0.06156195      -1.29704053      -0.28603389
H       -2.62759454       0.54528159      -0.65829067
H       -2.25138304      -0.57543024       0.62167611
H       -0.02718128       2.47482753       0.67053572
H        3.01202610      -0.08688698       0.05373131
H       -0.38216865      -2.29268868      -0.35350867
12
Frame=14 idx=008980 GeodesicLength=1.3266130917890393 rxn_smarts="[N:1]([c:2]1[c:3]([H:10])[n:4][c:5]([H:11])[n:6][c:7]1[H:12])([H:8])[H:9]>>[N:1]([C:2]/[C:7](=[N:6]\[C-:5]([N+:4]#[C:3][H:10])[H:11])[H:12])([H:8])[H:9]"
N       -1.94922284      -0.02622222      -0.21103701
C       -0.70818117      -0.17704607      -0.66450275
C        0.27017723       1.61363675       0.07216927
N        1.38027421       1.08972371       0.40069558
C        1.93955885      -0.05557293       0.19537088
N        1.27461563      -1.24754602       0.21347286
C        0.06878111      -1.30355111      -0.26341636
H       -2.60054531       0.55945388      -0.70526770
H       -2.24808363      -0.52194385       0.61933620
H       -0.05285683       2.44504462       0.70406128
H        2.99919871      -0.07668279      -0.03386333
H       -0.37371596      -2.29929398      -0.32701893
12
Frame=15 idx=008980 GeodesicLength=1.4232352075637784 rxn_smarts="[N:1]([c:2]1[c:3]([H:10])[n:4][c:5]([H:11])[n:6][c:7]1[H:12])([H:8])[H:9]>>[N:1]([C:2]/[C:7](=[N:6]\[C-:5]([N+:4]#[C:3][H:10])[H:11])[H:12])([H:8])[H:9]"
N       -1.93871864      -0.01313490      -0.23398083
C       -0.68859017      -0.18472866      -0.66032359
C        0.23070394       1.56853028       0.11556213
N        1.37732387       1.08974930       0.40278519
C        1.93974775      -0.05355924       0.18678753
N        1.28014315      -1.24691710       0.24331494
C        0.07614036      -1.31005717      -0.24247830
H       -2.57178234       0.57503109      -0.74814070
H       -2.24235119      -0.46720179       0.61755120
H       -0.07919017       2.41483362       0.73410241
H        2.98159666      -0.06656027      -0.11418566
H       -0.36502321      -2.30598515      -0.30099434
12
Frame=16 idx=008980 GeodesicLength=1.5212598761523815 rxn_smarts="[N:1]([c:2]1[c:3]([H:10])[n:4][c:5]([H:11])[n:6][c:7]1[H:12])([H:8])[H:9]>>[N:1]([C:2]/[C:7](=[N:6]\[C-:5]([N+:4]#[C:3][H:10])[H:11])[H:12])([H:8])[H:9]"
N       -1.92775985      -0.00204622      -0.25599312
C       -0.66938206      -0.19279396      -0.65564424
C        0.19310872       1.52225608       0.15889948
N        1.37239818       1.08970518       0.40527037
C        1.93913778      -0.05140502       0.18062953
N        1.28623838      -1.24606799       0.27117878
C        0.08400118      -1.31684405      -0.22312188
H       -2.54043918       0.59384405      -0.78543379
H       -2.23461905      -0.41307338       0.61540041
H       -0.10589404       2.38639080       0.75782913
H        2.95820161      -0.05674922      -0.19107408
H       -0.35499165      -2.31321628      -0.27794058
