13
Frame=0 idx=005907 GeodesicLength=0.0 rxn_smarts="[C:1]([C:2]([C@@:3]1([H:11])[C:4]([H:12])([H:13])[O:5]1)([H:9])[H:10])([H:6])([H:7])[H:8]>>[C:1]([C:2]([C:3][C:4]([O:5][H:11])([H:12])[H:13])([H:9])[H:10])([H:6])([H:7])[H:8]"
C       -1.61829034       0.63557244       0.29535945
C       -0.68999269      -0.54587616      -0.01201614
C        0.49463280      -0.00159206      -0.74166450
C        1.69591966       0.22192176       0.08359362
O        1.89602939      -1.06675735      -0.51920915
H       -2.51425498       0.28450787       0.80805403
H       -1.12859045       1.37041838       0.93778901
H       -1.92695785       1.14133095      -0.62057280
H       -1.22243763      -1.26718506      -0.63428293
H       -0.40341192      -1.04713993       0.92088604
H        1.38270155      -0.80213356      -1.46812752
H        2.42861693       0.96955858      -0.21276455
H        1.60603548       0.10737415       1.16295543
13
Frame=1 idx=005907 GeodesicLength=0.03955642653967858 rxn_smarts="[C:1]([C:2]([C@@:3]1([H:11])[C:4]([H:12])([H:13])[O:5]1)([H:9])[H:10])([H:6])([H:7])[H:8]>>[C:1]([C:2]([C:3][C:4]([O:5][H:11])([H:12])[H:13])([H:9])[H:10])([H:6])([H:7])[H:8]"
C       -1.61750886       0.63588971       0.29357852
C       -0.69070921      -0.54823018      -0.00855792
C        0.49511365      -0.00579613      -0.73631115
C        1.69656878       0.22099816       0.08721341
O        1.89520364      -1.06423631      -0.52193307
H       -2.51519538       0.28785094       0.80531462
H       -1.12792204       1.37134742       0.93542135
H       -1.92348497       1.13971281      -0.62436062
H       -1.22314011      -1.27073663      -0.62951659
H       -0.40526997      -1.04695283       0.92592113
H        1.38110683      -0.79505144      -1.48228297
H        2.42599295       0.97107512      -0.21112389
H        1.60924469       0.10412936       1.16663717
13
Frame=2 idx=005907 GeodesicLength=0.079114495422898 rxn_smarts="[C:1]([C:2]([C@@:3]1([H:11])[C:4]([H:12])([H:13])[O:5]1)([H:9])[H:10])([H:6])([H:7])[H:8]>>[C:1]([C:2]([C:3][C:4]([O:5][H:11])([H:12])[H:13])([H:9])[H:10])([H:6])([H:7])[H:8]"
C       -1.61668948       0.63619789       0.29175808
C       -0.69141062      -0.55059826      -0.00506983
C        0.49562138      -0.01007208      -0.73095282
C        1.69722435       0.22003410       0.09085811
O        1.89443108      -1.06170208      -0.52465907
H       -2.51609839       0.29121719       0.80253087
H       -1.12720902       1.37229171       0.93298017
H       -1.91995483       1.13803529      -0.62820580
H       -1.22383304      -1.27432345      -0.62468629
H       -0.40712944      -1.04674511       0.93099904
H        1.37925581      -0.78774782      -1.49645619
H        2.42330573       0.97260455      -0.20942715
H        1.61248647       0.10080806       1.17033089
13
Frame=3 idx=005907 GeodesicLength=0.11867189693908795 rxn_smarts="[C:1]([C:2]([C@@:3]1([H:11])[C:4]([H:12])([H:13])[O:5]1)([H:9])[H:10])([H:6])([H:7])[H:8]>>[C:1]([C:2]([C:3][C:4]([O:5][H:11])([H:12])[H:13])([H:9])[H:10])([H:6])([H:7])[H:8]"
C       -1.61582836       0.63649543       0.28989856
C       -0.69209702      -0.55298171      -0.00155406
C        0.49615652      -0.01442371      -0.72559098
C        1.69788499       0.21903145       0.09452662
O        1.89371084      -1.05915658      -0.52737635
H       -2.51696075       0.29460531       0.79970093
H       -1.12644506       1.37324617       0.93046759
H       -1.91636195       1.13629972      -0.63210534
H       -1.22451861      -1.27794353      -0.61979563
H       -0.40899205      -1.04651961       0.93611583
H        1.37714215      -0.78021980      -1.51064364
H        2.42055361       0.97414635      -0.20767836
H        1.61575569       0.09742053       1.17403482
13
Frame=4 idx=005907 GeodesicLength=0.15823355126406036 rxn_smarts="[C:1]([C:2]([C@@:3]1([H:11])[C:4]([H:12])([H:13])[O:5]1)([H:9])[H:10])([H:6])([H:7])[H:8]>>[C:1]([C:2]([C:3][C:4]([O:5][H:11])([H:12])[H:13])([H:9])[H:10])([H:6])([H:7])[H:8]"
C       -1.61493449       0.63678315       0.28798999
C       -0.69276415      -0.55537613       0.00200469
C        0.49671946      -0.01884058      -0.72021259
C        1.69856061       0.21797482       0.09822512
O        1.89304054      -1.05660032      -0.53011326
H       -2.51779197       0.29801829       0.79681547
H       -1.12565071       1.37422881       0.92786264
H       -1.91271653       1.13448625      -0.63608030
H       -1.22518411      -1.28160932      -0.61481665
H       -0.41085163      -1.04625464       0.94129573
H        1.37474783      -0.77242500      -1.52486670
H        2.41774558       0.97569036      -0.20585799
H        1.61907958       0.09392431       1.17775386
13
Frame=5 idx=005907 GeodesicLength=0.19779600947120707 rxn_smarts="[C:1]([C:2]([C@@:3]1([H:11])[C:4]([H:12])([H:13])[O:5]1)([H:9])[H:10])([H:6])([H:7])[H:8]>>[C:1]([C:2]([C:3][C:4]([O:5][H:11])([H:12])[H:13])([H:9])[H:10])([H:6])([H:7])[H:8]"
C       -1.61399921       0.63705869       0.28603928
C       -0.69341462      -0.55778574       0.00559181
C        0.49731212      -0.02333358      -0.71482933
C        1.69924431       0.21687589       0.10194800
O        1.89242196      -1.05403842      -0.53283537
H       -2.51858218       0.30145200       0.79388149
H       -1.12480674       1.37522198       0.92518157
H       -1.90900933       1.13260955      -0.64011364
H       -1.22583980      -1.28531028      -0.60977425
H       -0.41271266      -1.04596768       0.94651711
H        1.37207369      -0.76438514      -1.53910713
H        2.41487924       0.97723788      -0.20398376
H        1.62243320       0.09036485       1.18148423
13
Frame=6 idx=005907 GeodesicLength=0.23735483770307098 rxn_smarts="[C:1]([C:2]([C@@:3]1([H:11])[C:4]([H:12])([H:13])[O:5]1)([H:9])[H:10])([H:6])([H:7])[H:8]>>[C:1]([C:2]([C:3][C:4]([O:5][H:11])([H:12])[H:13])([H:9])[H:10])([H:6])([H:7])[H:8]"
C       -1.61301391       0.63731997       0.28405392
C       -0.69405114      -0.56021500       0.00919205
C        0.49793663      -0.02791367      -0.70945334
C        1.69992888       0.21574704       0.10568954
O        1.89185780      -1.05147661      -0.53550776
H       -2.51932139       0.30490263       0.79090727
H       -1.12389371       1.37620801       0.92244160
H       -1.90523138       1.13068533      -0.64418781
H       -1.22649608      -1.28903562      -0.60469484
H       -0.41457964      -1.04567761       0.95175753
H        1.36912163      -0.75612448      -1.55334666
H        2.41195187       0.97879078      -0.20207425
H        1.62579044       0.08678922       1.18522275
13
Frame=7 idx=005907 GeodesicLength=0.27690890450119987 rxn_smarts="[C:1]([C:2]([C@@:3]1([H:11])[C:4]([H:12])([H:13])[O:5]1)([H:9])[H:10])([H:6])([H:7])[H:8]>>[C:1]([C:2]([C:3][C:4]([O:5][H:11])([H:12])[H:13])([H:9])[H:10])([H:6])([H:7])[H:8]"
C       -1.61197022       0.63756484       0.28204171
C       -0.69467653      -0.56266816       0.01279024
C        0.49859494      -0.03259125      -0.70409593
C        1.70060715       0.21460094       0.10944393
O        1.89135025      -1.04892170      -0.53809492
H       -2.52000017       0.30836613       0.78790058
H       -1.12289290       1.37716869       0.91966098
H       -1.90137353       1.12872970      -0.64828465
H       -1.22716341      -1.29277415      -0.59960493
H       -0.41645718      -1.04540323       0.95699446
H        1.36589529      -0.74766807      -1.56756899
H        2.40896125       0.98035049      -0.20014923
H        1.62912506       0.08324580       1.18896673
13
Frame=8 idx=005907 GeodesicLength=0.3164595103647084 rxn_smarts="[C:1]([C:2]([C@@:3]1([H:11])[C:4]([H:12])([H:13])[O:5]1)([H:9])[H:10])([H:6])([H:7])[H:8]>>[C:1]([C:2]([C:3][C:4]([O:5][H:11])([H:12])[H:13])([H:9])[H:10])([H:6])([H:7])[H:8]"
C       -1.61087292       0.63779307       0.27999499
C       -0.69528726      -0.56514355       0.01639993
C        0.49928649      -0.03736204      -0.69874740
C        1.70128538       0.21342650       0.11321481
O        1.89089844      -1.04637338      -0.54061937
H       -2.52062794       0.31184424       0.78484637
H       -1.12181649       1.37811509       0.91682481
H       -1.89743402       1.12673186      -0.65241949
H       -1.22783349      -1.29653868      -0.59447781
H       -0.41834108      -1.04512861       0.96224849
H        1.36237658      -0.73897929      -1.58179004
H        2.40591112       0.98191158      -0.19819378
H        1.63245520       0.07970321       1.19271849
13
Frame=9 idx=005907 GeodesicLength=0.3560099737128256 rxn_smarts="[C:1]([C:2]([C@@:3]1([H:11])[C:4]([H:12])([H:13])[O:5]1)([H:9])[H:10])([H:6])([H:7])[H:8]>>[C:1]([C:2]([C:3][C:4]([O:5][H:11])([H:12])[H:13])([H:9])[H:10])([H:6])([H:7])[H:8]"
C       -1.60972732       0.63800531       0.27790548
C       -0.69588042      -0.56763982       0.02003642
C        0.50001114      -0.04222215      -0.69339705
C        1.70197128       0.21221158       0.11700601
O        1.89050169      -1.04383266      -0.54310415
H       -2.52121763       0.31534057       0.78172403
H       -1.12067853       1.37905706       0.91392127
H       -1.89340924       1.12468148      -0.65660879
H       -1.22849795      -1.30034364      -0.58928476
H       -0.42022794      -1.04483581       0.96754268
H        1.35854794      -0.73001928      -1.59602595
H        2.40280104       0.98347265      -0.19619542
H        1.63580594       0.07612470       1.19648024
13
Frame=10 idx=005907 GeodesicLength=0.39556507545688613 rxn_smarts="[C:1]([C:2]([C@@:3]1([H:11])[C:4]([H:12])([H:13])[O:5]1)([H:9])[H:10])([H:6])([H:7])[H:8]>>[C:1]([C:2]([C:3][C:4]([O:5][H:11])([H:12])[H:13])([H:9])[H:10])([H:6])([H:7])[H:8]"
C       -1.60853721       0.63820138       0.27576059
C       -0.69645104      -0.57015296       0.02371451
C        0.50076836      -0.04716558      -0.68803224
C        1.70267132       0.21093832       0.12082562
O        1.89015514      -1.04129850      -0.54557640
H       -2.52176756       0.31885987       0.77853200
H       -1.11949054       1.38001538       0.91091796
H       -1.88931038       1.12254999      -0.66087701
H       -1.22914434      -1.30419974      -0.58399760
H       -0.42211433      -1.04450254       0.97290086
H        1.35438906      -0.72073227      -1.61029403
H        2.39963179       0.98502406      -0.19413138
H        1.63919973       0.07246259       1.20025710
13
Frame=11 idx=005907 GeodesicLength=0.4351209707728598 rxn_smarts="[C:1]([C:2]([C@@:3]1([H:11])[C:4]([H:12])([H:13])[O:5]1)([H:9])[H:10])([H:6])([H:7])[H:8]>>[C:1]([C:2]([C:3][C:4]([O:5][H:11])([H:12])[H:13])([H:9])[H:10])([H:6])([H:7])[H:8]"
C       -1.60729404       0.63838055       0.27356711
C       -0.69700108      -0.57268598       0.02741964
C        0.50156102      -0.05219970      -0.68266286
C        1.70338081       0.20961909       0.12466843
O        1.88986166      -1.03877733      -0.54800221
H       -2.52226875       0.32239858       0.77527337
H       -1.11823770       1.38097283       0.90783489
H       -1.88513095       1.12035105      -0.66520811
H       -1.22978121      -1.30809595      -0.57864093
H       -0.42400074      -1.04414852       0.97829899
H        1.34989331      -0.71114317      -1.62457404
H        2.39640409       0.98656586      -0.19202037
H        1.64261358       0.06876268       1.20404609
13
Frame=12 idx=005907 GeodesicLength=0.4746807331634765 rxn_smarts="[C:1]([C:2]([C@@:3]1([H:11])[C:4]([H:12])([H:13])[O:5]1)([H:9])[H:10])([H:6])([H:7])[H:8]>>[C:1]([C:2]([C:3][C:4]([O:5][H:11])([H:12])[H:13])([H:9])[H:10])([H:6])([H:7])[H:8]"
C       -1.60600426       0.63854299       0.27131472
C       -0.69752749      -0.57523689       0.03116660
C        0.50239065      -0.05732098      -0.67727845
C        1.70410878       0.20823971       0.12853978
O        1.88962116      -1.03627024      -0.55040708
H       -2.52272989       0.32596107       0.77193917
H       -1.11693533       1.38194603       0.90465144
H       -1.88087474       1.11806560      -0.66962253
H       -1.23039823      -1.31204594      -0.57318901
H       -0.42588636      -1.04375334       0.98376098
H        1.34504079      -0.70120508      -1.63888068
H        2.39312281       0.98809326      -0.18984572
H        1.64607209       0.06498382       1.20785077
13
Frame=13 idx=005907 GeodesicLength=0.5142508110249269 rxn_smarts="[C:1]([C:2]([C@@:3]1([H:11])[C:4]([H:12])([H:13])[O:5]1)([H:9])[H:10])([H:6])([H:7])[H:8]>>[C:1]([C:2]([C:3][C:4]([O:5][H:11])([H:12])[H:13])([H:9])[H:10])([H:6])([H:7])[H:8]"
C       -1.60467463       0.63868791       0.26899022
C       -0.69802573      -0.57780163       0.03497285
C        0.50325725      -0.06252283      -0.67186451
C        1.70486460       0.20678194       0.13244762
O        1.88942998      -1.03377560      -0.55281968
H       -2.52315432       0.32955132       0.76852270
H       -1.11559908       1.38295727       0.90133253
H       -1.87655408       1.11566337      -0.67414585
H       -1.23098322      -1.31606003      -0.56761185
H       -0.42776590      -1.04329281       0.98931289
H        1.33980496      -0.69085740      -1.65322835
H        2.38979429       0.98959476      -0.18758353
H        1.64960588       0.06107372       1.21167496
13
Frame=14 idx=005907 GeodesicLength=0.5538260457588 rxn_smarts="[C:1]([C:2]([C@@:3]1([H:11])[C:4]([H:12])([H:13])[O:5]1)([H:9])[H:10])([H:6])([H:7])[H:8]>>[C:1]([C:2]([C:3][C:4]([O:5][H:11])([H:12])[H:13])([H:9])[H:10])([H:6])([H:7])[H:8]"
C       -1.60329633       0.63881334       0.26660013
C       -0.69849792      -0.58038511       0.03882406
C        0.50416348      -0.06781750      -0.66643327
C        1.70564129       0.20525727       0.13638621
O        1.88929238      -1.03130037      -0.55520721
H       -2.52353241       0.33316668       0.76503092
H       -1.11420961       1.38398963       0.89789375
H       -1.87215876       1.11315921      -0.67876244
H       -1.23154593      -1.32012888      -0.56193359
H       -0.42964312      -1.04278537       0.99493376
H        1.33418214      -0.68011834      -1.66759637
H        2.38641501       0.99107230      -0.18525202
H        1.65318977       0.05707713       1.21551607
13
Frame=15 idx=005907 GeodesicLength=0.5934105124637487 rxn_smarts="[C:1]([C:2]([C@@:3]1([H:11])[C:4]([H:12])([H:13])[O:5]1)([H:9])[H:10])([H:6])([H:7])[H:8]>>[C:1]([C:2]([C:3][C:4]([O:5][H:11])([H:12])[H:13])([H:9])[H:10])([H:6])([H:7])[H:8]"
C       -1.60187039       0.63891855       0.26413610
C       -0.69894152      -0.58298621       0.04273058
C        0.50510931      -0.07320539      -0.66097768
C        1.70644414       0.20365442       0.14035808
O        1.88920550      -1.02884681      -0.55758392
H       -2.52386880       0.33680777       0.76144761
H       -1.11277381       1.38505046       0.89432129
H       -1.86768608       1.11053987      -0.68348635
H       -1.23208161      -1.32426304      -0.55613066
H       -0.43151523      -1.04221475       1.00063976
H        1.32815011      -0.66894392      -1.68198982
H        2.38298662       0.99251977      -0.18283973
H        1.65684175       0.05296928       1.21937473
13
Frame=16 idx=005907 GeodesicLength=0.6330013743466419 rxn_smarts="[C:1]([C:2]([C@@:3]1([H:11])[C:4]([H:12])([H:13])[O:5]1)([H:9])[H:10])([H:6])([H:7])[H:8]>>[C:1]([C:2]([C:3][C:4]([O:5][H:11])([H:12])[H:13])([H:9])[H:10])([H:6])([H:7])[H:8]"
C       -1.60039025       0.63900163       0.26160176
C       -0.69935764      -0.58560863       0.04668200
C        0.50609773      -0.07869606      -0.65550643
C        1.70726864       0.20198109       0.14435983
O        1.88917358      -1.02642113      -0.55992478
H       -2.52415437       0.34047381       0.75778144
H       -1.11127627       1.38612935       0.89062149
H       -1.86313075       1.10781262      -0.68830808
H       -1.23259645      -1.32845524      -0.55022151
H       -0.43338502      -1.04159492       1.00641544
H        1.32170071      -0.65734122      -1.69639160
H        2.37950743       0.99393737      -0.18035944
H        1.66054266       0.04878133       1.22324990
