15
Frame=0 idx=007369 GeodesicLength=0.0 rxn_smarts="[C:1]1([H:8])([H:9])[C:2]([H:10])([H:11])[C:3]12[C:4]([H:12])([H:13])[C@@:5]1([H:14])[O:6][C@@:7]21[H:15]>>[C:1]1([H:8])([H:9])[C:2]([H:10])([H:11])[C:3]12[C:4]([H:12])([H:13])[C@@:7]2([C:5](=[O:6])[H:14])[H:15]"
C       -1.70034965       0.27291614      -0.55448508
C       -1.53056345      -0.16346996       0.86274232
C       -0.32257201       0.06399223      -0.01125515
C        0.75466666      -0.91787453      -0.38270418
C        1.95849831       0.10945478       0.19127962
O        2.73037295       0.60144664      -0.70480720
C        0.75540273       1.00775105       0.20144379
H       -2.05815163      -0.45084554      -1.27493358
H       -2.00705369       1.29445091      -0.74038047
H       -1.72476022       0.54964765       1.65255594
H       -1.73941296      -1.19663703       1.11180136
H        0.77751005      -1.85311023       0.17387994
H        0.91946893      -1.03538955      -1.44771090
H        2.34386996      -0.29133279       1.14456650
H        0.84307397       2.00900025      -0.22199292
15
Frame=1 idx=007369 GeodesicLength=0.06081307893464646 rxn_smarts="[C:1]1([H:8])([H:9])[C:2]([H:10])([H:11])[C:3]12[C:4]([H:12])([H:13])[C@@:5]1([H:14])[O:6][C@@:7]21[H:15]>>[C:1]1([H:8])([H:9])[C:2]([H:10])([H:11])[C:3]12[C:4]([H:12])([H:13])[C@@:7]2([C:5](=[O:6])[H:14])[H:15]"
C       -1.70276944       0.27135001      -0.55249858
C       -1.52324305      -0.16070172       0.86619718
C       -0.32331116       0.06033890      -0.01727219
C        0.75282512      -0.91779796      -0.39630353
C        1.96292196       0.10399710       0.20731845
O        2.73304270       0.62385904      -0.67554695
C        0.76377066       0.99964511       0.17756326
H       -2.06922759      -0.45413010      -1.26691127
H       -2.01114969       1.29221728      -0.73918925
H       -1.71124963       0.55627000       1.65411317
H       -1.73681371      -1.19163983       1.12039826
H        0.77513151      -1.85573977       0.15569585
H        0.91480559      -1.03763233      -1.46166052
H        2.33537316      -0.29462068       1.16541099
H        0.83989358       2.00458495      -0.23731486
15
Frame=2 idx=007369 GeodesicLength=0.12164141162604475 rxn_smarts="[C:1]1([H:8])([H:9])[C:2]([H:10])([H:11])[C:3]12[C:4]([H:12])([H:13])[C@@:5]1([H:14])[O:6][C@@:7]21[H:15]>>[C:1]1([H:8])([H:9])[C:2]([H:10])([H:11])[C:3]12[C:4]([H:12])([H:13])[C@@:7]2([C:5](=[O:6])[H:14])[H:15]"
C       -1.70499516       0.26989486      -0.55058528
C       -1.51576037      -0.15798054       0.86945375
C       -0.32392925       0.05665469      -0.02335507
C        0.75107629      -0.91781324      -0.40993883
C        1.96693238       0.09894139       0.22296191
O        2.73517485       0.64584917      -0.64628920
C        0.77223714       0.99118264       0.15372313
H       -2.08004243      -0.45717582      -1.25896805
H       -2.01494850       1.29014230      -0.73795761
H       -1.69752867       0.56276898       1.65548327
H       -1.73404830      -1.18664625       1.12876046
H        0.77319366      -1.85810635       0.13802334
H        0.90945937      -1.04067511      -1.47567122
H        2.32647191      -0.29710678       1.18587309
H        0.83670708       2.00007007      -0.25151369
15
Frame=3 idx=007369 GeodesicLength=0.18246570742334342 rxn_smarts="[C:1]1([H:8])([H:9])[C:2]([H:10])([H:11])[C:3]12[C:4]([H:12])([H:13])[C@@:5]1([H:14])[O:6][C@@:7]21[H:15]>>[C:1]1([H:8])([H:9])[C:2]([H:10])([H:11])[C:3]12[C:4]([H:12])([H:13])[C@@:7]2([C:5](=[O:6])[H:14])[H:15]"
C       -1.70700311       0.26855617      -0.54876571
C       -1.50813883      -0.15530539       0.87249873
C       -0.32442004       0.05293630      -0.02947900
C        0.74940778      -0.91794798      -0.42357348
C        1.97056864       0.09429981       0.23818613
O        2.73670135       0.66748598      -0.61717189
C        0.78080526       0.98236301       0.12995357
H       -2.09055066      -0.45997130      -1.25114470
H       -2.01841349       1.28823419      -0.73672403
H       -1.68365425       0.56914778       1.65663857
H       -1.73115943      -1.18165619       1.13686463
H        0.77168953      -1.86022560       0.12093657
H        0.90336993      -1.04459089      -1.48969503
H        2.31729414      -0.29880282       1.20588576
H        0.83350318       1.99547694      -0.26441012
15
Frame=4 idx=007369 GeodesicLength=0.24332842652782238 rxn_smarts="[C:1]1([H:8])([H:9])[C:2]([H:10])([H:11])[C:3]12[C:4]([H:12])([H:13])[C@@:5]1([H:14])[O:6][C@@:7]21[H:15]>>[C:1]1([H:8])([H:9])[C:2]([H:10])([H:11])[C:3]12[C:4]([H:12])([H:13])[C@@:7]2([C:5](=[O:6])[H:14])[H:15]"
C       -1.70880425       0.26731923      -0.54703693
C       -1.50035116      -0.15265913       0.87534230
C       -0.32477544       0.04918156      -0.03567481
C        0.74782100      -0.91821119      -0.43725733
C        1.97383077       0.09006632       0.25304914
O        2.73764357       0.68882071      -0.58811849
C        0.78949082       0.97318675       0.10619484
H       -2.10079719      -0.46255076      -1.24340373
H       -2.02156637       1.28647287      -0.73550010
H       -1.66956613       0.57544295       1.65758353
H       -1.72810951      -1.17664391       1.14475566
H        0.77060339      -1.86213825       0.10434846
H        0.89653934      -1.04935207      -1.50376961
H        2.30776144      -0.29973910       1.22551045
H        0.83027972       1.99080404      -0.27602338
15
Frame=5 idx=007369 GeodesicLength=0.30421758333354915 rxn_smarts="[C:1]1([H:8])([H:9])[C:2]([H:10])([H:11])[C:3]12[C:4]([H:12])([H:13])[C@@:5]1([H:14])[O:6][C@@:7]21[H:15]>>[C:1]1([H:8])([H:9])[C:2]([H:10])([H:11])[C:3]12[C:4]([H:12])([H:13])[C@@:7]2([C:5](=[O:6])[H:14])[H:15]"
C       -1.71040516       0.26616633      -0.54539417
C       -1.49236260      -0.15002816       0.87798954
C       -0.32498963       0.04539577      -0.04197745
C        0.74630945      -0.91859632      -0.45104090
C        1.97671089       0.08622965       0.26760261
O        2.73802938       0.70988161      -0.55907291
C        0.79829689       0.96368365       0.08237412
H       -2.11081696      -0.46495238      -1.23570736
H       -2.02442537       1.28483600      -0.73428764
H       -1.65519229       0.58168460       1.65831516
H       -1.72484611      -1.17159147       1.15247142
H        0.76991356      -1.86386107       0.08817870
H        0.88896314      -1.05493285      -1.51793028
H        2.29778225      -0.29994741       1.24483587
H        0.82703255       1.98603205      -0.28635670
15
Frame=6 idx=007369 GeodesicLength=0.3651840514414139 rxn_smarts="[C:1]1([H:8])([H:9])[C:2]([H:10])([H:11])[C:3]12[C:4]([H:12])([H:13])[C@@:5]1([H:14])[O:6][C@@:7]21[H:15]>>[C:1]1([H:8])([H:9])[C:2]([H:10])([H:11])[C:3]12[C:4]([H:12])([H:13])[C@@:7]2([C:5](=[O:6])[H:14])[H:15]"
C       -1.71180547       0.26509288      -0.54384492
C       -1.48414160      -0.14739622       0.88044375
C       -0.32505134       0.04157615      -0.04842065
C        0.74487744      -0.91911909      -0.46496205
C        1.97920311       0.08279116       0.28189257
O        2.73783765       0.73072035      -0.52997587
C        0.80723803       0.95385581       0.05841607
H       -2.12064038      -0.46719215      -1.22803157
H       -2.02699140       1.28331516      -0.73311012
H       -1.64046155       0.58789931       1.65883040
H       -1.72132973      -1.16647585       1.16004868
H        0.76960657      -1.86542765       0.07236313
H        0.88061985      -1.06132761      -1.53218212
H        2.28729163      -0.29942149       1.26388837
H        0.82374718       1.98110925      -0.29535566
15
Frame=7 idx=007369 GeodesicLength=0.42620629924401715 rxn_smarts="[C:1]1([H:8])([H:9])[C:2]([H:10])([H:11])[C:3]12[C:4]([H:12])([H:13])[C@@:5]1([H:14])[O:6][C@@:7]21[H:15]>>[C:1]1([H:8])([H:9])[C:2]([H:10])([H:11])[C:3]12[C:4]([H:12])([H:13])[C@@:7]2([C:5](=[O:6])[H:14])[H:15]"
C       -1.71297680       0.26410879      -0.54240680
C       -1.47570729      -0.14476169       0.88268193
C       -0.32494829       0.03771421      -0.05498588
C        0.74351249      -0.91982073      -0.47898326
C        1.98132761       0.07976021       0.29586825
O        2.73699725       0.75139728      -0.50097796
C        0.81634155       0.94366826       0.03433748
H       -2.13021747      -0.46924313      -1.22042042
H       -2.02922872       1.28192548      -0.73197918
H       -1.62540985       0.59408942       1.65910434
H       -1.71760936      -1.16128839       1.16743983
H        0.76969402      -1.86684719       0.05700202
H        0.87147756      -1.06864661      -1.54647598
H        2.27637308      -0.29816828       1.28259592
H        0.82037422       1.97611238      -0.30280030
15
Frame=8 idx=007369 GeodesicLength=0.4872915829806305 rxn_smarts="[C:1]1([H:8])([H:9])[C:2]([H:10])([H:11])[C:3]12[C:4]([H:12])([H:13])[C@@:5]1([H:14])[O:6][C@@:7]21[H:15]>>[C:1]1([H:8])([H:9])[C:2]([H:10])([H:11])[C:3]12[C:4]([H:12])([H:13])[C@@:7]2([C:5](=[O:6])[H:14])[H:15]"
C       -1.71392969       0.26320167      -0.54108215
C       -1.46702055      -0.14210605       0.88471071
C       -0.32467284       0.03382678      -0.06171269
C        0.74221441      -0.92068758      -0.49316306
C        1.98307388       0.07714215       0.30959040
O        2.73552335       0.77193771      -0.47200436
C        0.82561443       0.93317504       0.01003868
H       -2.13958881      -0.47114511      -1.21283228
H       -2.03115518       1.28064783      -0.73092216
H       -1.60996127       0.60028890       1.65912726
H       -1.71361723      -1.15601180       1.17469763
H        0.77015619      -1.86813665       0.04199066
H        0.86150396      -1.07684279      -1.56082592
H        2.26494336      -0.29618926       1.30103735
H        0.81691600       1.97089915      -0.30865008
15
Frame=9 idx=007369 GeodesicLength=0.548467622693467 rxn_smarts="[C:1]1([H:8])([H:9])[C:2]([H:10])([H:11])[C:3]12[C:4]([H:12])([H:13])[C@@:5]1([H:14])[O:6][C@@:7]21[H:15]>>[C:1]1([H:8])([H:9])[C:2]([H:10])([H:11])[C:3]12[C:4]([H:12])([H:13])[C@@:7]2([C:5](=[O:6])[H:14])[H:15]"
C       -1.71463057       0.26238150      -0.53989231
C       -1.45809036      -0.13941953       0.88651074
C       -0.32420280       0.02990667      -0.06858516
C        0.74097538      -0.92176864      -0.50746941
C        1.98445512       0.07494522       0.32300622
O        2.73332410       0.79239476      -0.44318460
C        0.83510843       0.92232499      -0.01447516
H       -2.14870362      -0.47287336      -1.20531052
H       -2.03272689       1.27949557      -0.72996440
H       -1.59413967       0.60651392       1.65887627
H       -1.70938890      -1.15062451       1.18178567
H        0.77100023      -1.86931070       0.02741666
H        0.85067831      -1.08602567      -1.57518047
H        2.25305757      -0.29348230       1.31910860
H        0.81328367       1.96554207      -0.31264213
15
Frame=10 idx=007369 GeodesicLength=0.6097067574873549 rxn_smarts="[C:1]1([H:8])([H:9])[C:2]([H:10])([H:11])[C:3]12[C:4]([H:12])([H:13])[C@@:5]1([H:14])[O:6][C@@:7]21[H:15]>>[C:1]1([H:8])([H:9])[C:2]([H:10])([H:11])[C:3]12[C:4]([H:12])([H:13])[C@@:7]2([C:5](=[O:6])[H:14])[H:15]"
C       -1.71508896       0.26164798      -0.53883190
C       -1.44888469      -0.13669943       0.88808377
C       -0.32353710       0.02597699      -0.07563289
C        0.73978514      -0.92304118      -0.52195595
C        1.98545494       0.07318896       0.33618427
O        2.73042619       0.81279500      -0.41444393
C        0.84481081       0.91117642      -0.03927280
H       -2.15759068      -0.47444154      -1.19782125
H       -2.03396458       1.27846436      -0.72910699
H       -1.57787475       0.61276161       1.65834584
H       -1.70486078      -1.14513230       1.18873358
H        0.77221081      -1.87037869       0.01317742
H        0.83894626      -1.09612868      -1.58953112
H        2.24065427      -0.29003494       1.33691285
H        0.80951312       1.95984543      -0.31484091
15
Frame=11 idx=007369 GeodesicLength=0.6710626777518148 rxn_smarts="[C:1]1([H:8])([H:9])[C:2]([H:10])([H:11])[C:3]12[C:4]([H:12])([H:13])[C@@:5]1([H:14])[O:6][C@@:7]21[H:15]>>[C:1]1([H:8])([H:9])[C:2]([H:10])([H:11])[C:3]12[C:4]([H:12])([H:13])[C@@:7]2([C:5](=[O:6])[H:14])[H:15]"
C       -1.71526658       0.26100891      -0.53791242
C       -1.43940415      -0.13392495       0.88942208
C       -0.32264074       0.02205106      -0.08283563
C        0.73864977      -0.92452657      -0.53660175
C        1.98606857       0.07187844       0.34908735
O        2.72672301       0.83317069      -0.38589596
C        0.85480255       0.89971059      -0.06434070
H       -2.16618721      -0.47583498      -1.19039829
H       -2.03483427       1.27756092      -0.72836196
H       -1.56118956       0.61906682       1.65752913
H       -1.70005330      -1.13950166       1.19551597
H        0.77379827      -1.87133215      -0.00067205
H        0.82633698      -1.10722849      -1.60384023
H        2.22773076      -0.28589355       1.35434725
H        0.80546590       1.95379491      -0.31504279
15
Frame=12 idx=007369 GeodesicLength=0.7325226119301532 rxn_smarts="[C:1]1([H:8])([H:9])[C:2]([H:10])([H:11])[C:3]12[C:4]([H:12])([H:13])[C@@:5]1([H:14])[O:6][C@@:7]21[H:15]>>[C:1]1([H:8])([H:9])[C:2]([H:10])([H:11])[C:3]12[C:4]([H:12])([H:13])[C@@:7]2([C:5](=[O:6])[H:14])[H:15]"
C       -1.71515601       0.26048323      -0.53711060
C       -1.42961826      -0.13112364       0.89053913
C       -0.32151459       0.01815764      -0.09018546
C        0.73754496      -0.92617071      -0.55144326
C        1.98626197       0.07104278       0.36182808
O        2.72222040       0.85355341      -0.35742510
C        0.86505151       0.88797475      -0.08962938
H       -2.17448774      -0.47701494      -1.18302506
H       -2.03533086       1.27679571      -0.72768637
H       -1.54403289       0.62535521       1.65645323
H       -1.69490146      -1.13376988       1.20213446
H        0.77573979      -1.87216187      -0.01425660
H        0.81276692      -1.11914871      -1.61807546
H        2.21424353      -0.28103882       1.37153825
H        0.80121272       1.94706585      -0.31365585
15
Frame=13 idx=007369 GeodesicLength=0.7940777042642463 rxn_smarts="[C:1]1([H:8])([H:9])[C:2]([H:10])([H:11])[C:3]12[C:4]([H:12])([H:13])[C@@:5]1([H:14])[O:6][C@@:7]21[H:15]>>[C:1]1([H:8])([H:9])[C:2]([H:10])([H:11])[C:3]12[C:4]([H:12])([H:13])[C@@:7]2([C:5](=[O:6])[H:14])[H:15]"
C       -1.71475421       0.26010342      -0.53640445
C       -1.41956722      -0.12831723       0.89144462
C       -0.32014218       0.01433116      -0.09762494
C        0.73648593      -0.92795535      -0.56645694
C        1.98605640       0.07068971       0.37443385
O        2.71686621       0.87396889      -0.32907736
C        0.87561909       0.87600925      -0.11499388
H       -2.18245914      -0.47793435      -1.17573374
H       -2.03546592       1.27622099      -0.72702374
H       -1.52649468       0.63159128       1.65515410
H       -1.68945452      -1.12798433       1.20853880
H        0.77805573      -1.87286062      -0.02757073
H        0.79828446      -1.13186968      -1.63218613
H        2.20025694      -0.27555818       1.38844987
H        0.79671312       1.93956504      -0.31094930
15
Frame=14 idx=007369 GeodesicLength=0.8557229735296841 rxn_smarts="[C:1]1([H:8])([H:9])[C:2]([H:10])([H:11])[C:3]12[C:4]([H:12])([H:13])[C@@:5]1([H:14])[O:6][C@@:7]21[H:15]>>[C:1]1([H:8])([H:9])[C:2]([H:10])([H:11])[C:3]12[C:4]([H:12])([H:13])[C@@:7]2([C:5](=[O:6])[H:14])[H:15]"
C       -1.71403177       0.25991161      -0.53575657
C       -1.40928736      -0.12556321       0.89216651
C       -0.31851761       0.01060748      -0.10506495
C        0.73546198      -0.92981230      -0.58160576
C        1.98545891       0.07082934       0.38699095
O        2.71059080       0.89443380      -0.30085706
C        0.88651125       0.86386061      -0.14018562
H       -2.19002514      -0.47850407      -1.16857361
H       -2.03521092       1.27588194      -0.72628181
H       -1.50867375       0.63765138       1.65371094
H       -1.68375837      -1.12222516       1.21466663
H        0.78074214      -1.87339339      -0.04064682
H        0.78288216      -1.14522276      -1.64609829
H        2.18586259      -0.26954096       1.40511295
H        0.79199509       1.93108567      -0.30757748
15
Frame=15 idx=007369 GeodesicLength=0.9174154620334382 rxn_smarts="[C:1]1([H:8])([H:9])[C:2]([H:10])([H:11])[C:3]12[C:4]([H:12])([H:13])[C@@:5]1([H:14])[O:6][C@@:7]21[H:15]>>[C:1]1([H:8])([H:9])[C:2]([H:10])([H:11])[C:3]12[C:4]([H:12])([H:13])[C@@:7]2([C:5](=[O:6])[H:14])[H:15]"
C       -1.71299181       0.25995503      -0.53512276
C       -1.39884638      -0.12293403       0.89273633
C       -0.31664817       0.00701615      -0.11240187
C        0.73447338      -0.93167220      -0.59683837
C        1.98451536       0.07145323       0.39959284
O        2.70335670       0.91495158      -0.27277076
C        0.89773345       0.85158571      -0.16489700
H       -2.19715004      -0.47863245      -1.16159641
H       -2.03457335       1.27584316      -0.72535457
H       -1.49071132       0.64339776       1.65221180
H       -1.67789822      -1.11660338       1.22044586
H        0.78380847      -1.87373655      -0.05352003
H        0.76659058      -1.15902057      -1.65972339
H        2.17121911      -0.26310161       1.42156869
H        0.78712224       1.92149818      -0.30433036
15
Frame=16 idx=007369 GeodesicLength=0.9791526274443129 rxn_smarts="[C:1]1([H:8])([H:9])[C:2]([H:10])([H:11])[C:3]12[C:4]([H:12])([H:13])[C@@:5]1([H:14])[O:6][C@@:7]21[H:15]>>[C:1]1([H:8])([H:9])[C:2]([H:10])([H:11])[C:3]12[C:4]([H:12])([H:13])[C@@:7]2([C:5](=[O:6])[H:14])[H:15]"
C       -1.71159351       0.26025807      -0.53445094
C       -1.38828223      -0.12049191       0.89319404
C       -0.31453930       0.00357578      -0.11954997
C        0.73350582      -0.93345663      -0.61211980
C        1.98320805       0.07254624       0.41232397
O        2.69507581       0.93549562      -0.24483230
C        0.90925859       0.83919855      -0.18885627
H       -2.20373992      -0.47824178      -1.15483437
H       -2.03350764       1.27611770      -0.72412895
H       -1.47271713       0.64869483       1.65075636
H       -1.67192257      -1.11118852       1.22582293
H        0.78724121      -1.87382928      -0.06623561
H        0.74945594      -1.17307329      -1.67299250
H        2.15637570      -0.25634836       1.43785356
H        0.78218118       1.91074298      -0.30195015
