9
Frame=0 idx=000315 GeodesicLength=0.0 rxn_smarts="[O:1]([c:2]1[n:3][o:4][c:5]([H:8])[c:6]1[H:9])[H:7]>>[O:1]([C:2]1=[N:3][O+:4]=[C-:5][C:6]1([H:8])[H:9])[H:7]"
O        1.88978721       0.25340532      -0.16990388
C        0.62800417      -0.13936255      -0.00391456
N        0.24317946      -1.36395784       0.01188623
O       -1.13975984      -1.33072367       0.18833377
C       -1.61761562      -0.08365706       0.38185631
C       -0.49281165       0.74875720       0.19972807
H        2.44557211      -0.52707690      -0.27345937
H       -1.48818216       0.62459170      -0.68194209
H       -0.46817369       1.81802383       0.34741549
9
Frame=1 idx=000315 GeodesicLength=0.03602334064386513 rxn_smarts="[O:1]([c:2]1[n:3][o:4][c:5]([H:8])[c:6]1[H:9])[H:7]>>[O:1]([C:2]1=[N:3][O+:4]=[C-:5][C:6]1([H:8])[H:9])[H:7]"
O        1.89050715       0.25288090      -0.17263527
C        0.62805966      -0.13973233      -0.01170586
N        0.24670684      -1.36534711       0.01433829
O       -1.13866451      -1.33155363       0.19242493
C       -1.61279568      -0.08573350       0.38304747
C       -0.49268375       0.75005583       0.18747968
H        2.44779054      -0.52805964      -0.26427026
H       -1.50536822       0.63176943      -0.68683200
H       -0.46355203       1.81572005       0.35815303
9
Frame=2 idx=000315 GeodesicLength=0.07205419408863421 rxn_smarts="[O:1]([c:2]1[n:3][o:4][c:5]([H:8])[c:6]1[H:9])[H:7]>>[O:1]([C:2]1=[N:3][O+:4]=[C-:5][C:6]1([H:8])[H:9])[H:7]"
O        1.89101982       0.25238879      -0.17696301
C        0.62807413      -0.14014515      -0.02003744
N        0.25026073      -1.36670075       0.01651447
O       -1.13752486      -1.33234429       0.19642847
C       -1.60783452      -0.08775750       0.38430042
C       -0.49255853       0.75133411       0.17503587
H        2.45018472      -0.52888235      -0.25313176
H       -1.52305984       0.63926655      -0.69115182
H       -0.45856165       1.81284059       0.36900478
9
Frame=3 idx=000315 GeodesicLength=0.10808054014851273 rxn_smarts="[O:1]([c:2]1[n:3][o:4][c:5]([H:8])[c:6]1[H:9])[H:7]>>[O:1]([C:2]1=[N:3][O+:4]=[C-:5][C:6]1([H:8])[H:9])[H:7]"
O        1.89154368       0.25190516      -0.18077574
C        0.62814820      -0.14061085      -0.02765718
N        0.25392076      -1.36802016       0.01949585
O       -1.13640795      -1.33308996       0.20029827
C       -1.60297042      -0.08970226       0.38497531
C       -0.49250016       0.75259799       0.16259120
H        2.45228924      -0.52947635      -0.24318297
H       -1.54057420       0.64695625      -0.69555809
H       -0.45344915       1.80944019       0.37981334
9
Frame=4 idx=000315 GeodesicLength=0.14414571720679106 rxn_smarts="[O:1]([c:2]1[n:3][o:4][c:5]([H:8])[c:6]1[H:9])[H:7]>>[O:1]([C:2]1=[N:3][O+:4]=[C-:5][C:6]1([H:8])[H:9])[H:7]"
O        1.89193128       0.25142421      -0.18551770
C        0.62822718      -0.14113593      -0.03521452
N        0.25762930      -1.36931450       0.02256226
O       -1.13528198      -1.33382064       0.20401641
C       -1.59807885      -0.09161634       0.38546102
C       -0.49246524       0.75383218       0.15017113
H        2.45438920      -0.52984714      -0.23241513
H       -1.55826076       0.65497761      -0.69959633
H       -0.44809013       1.80550054       0.39053287
9
Frame=5 idx=000315 GeodesicLength=0.18019777183270919 rxn_smarts="[O:1]([c:2]1[n:3][o:4][c:5]([H:8])[c:6]1[H:9])[H:7]>>[O:1]([C:2]1=[N:3][O+:4]=[C-:5][C:6]1([H:8])[H:9])[H:7]"
O        1.89238666       0.25096088      -0.18916900
C        0.62841067      -0.14170231      -0.04155919
N        0.26145421      -1.37055898       0.02669902
O       -1.13422353      -1.33452613       0.20755345
C       -1.59339921      -0.09348890       0.38519513
C       -0.49249052       0.75503164       0.13796809
H        2.45613202      -0.53003106      -0.22380825
H       -1.57547586       0.66319721      -0.70389627
H       -0.44279445       1.80111766       0.40101703
9
Frame=6 idx=000315 GeodesicLength=0.21598758935307927 rxn_smarts="[O:1]([c:2]1[n:3][o:4][c:5]([H:8])[c:6]1[H:9])[H:7]>>[O:1]([C:2]1=[N:3][O+:4]=[C-:5][C:6]1([H:8])[H:9])[H:7]"
O        1.89288496       0.25056259      -0.19182954
C        0.62870390      -0.14230217      -0.04663024
N        0.26539669      -1.37174614       0.03196073
O       -1.13321133      -1.33517569       0.21086979
C       -1.58894540      -0.09530342       0.38410712
C       -0.49259516       0.75615804       0.12604331
H        2.45757981      -0.53011708      -0.21736505
H       -1.59220441       0.67159427      -0.70844318
H       -0.43760907       1.79632958       0.41128705
9
Frame=7 idx=000315 GeodesicLength=0.25190524932375336 rxn_smarts="[O:1]([c:2]1[n:3][o:4][c:5]([H:8])[c:6]1[H:9])[H:7]>>[O:1]([C:2]1=[N:3][O+:4]=[C-:5][C:6]1([H:8])[H:9])[H:7]"
O        1.89335064       0.25018032      -0.19453515
C        0.62905868      -0.14292021      -0.05106607
N        0.26941243      -1.37287222       0.03766015
O       -1.13221414      -1.33586035       0.21401670
C       -1.58459701      -0.09715361       0.38262296
C       -0.49271764       0.75726805       0.11438488
H        2.45892996      -0.53011011      -0.21143541
H       -1.60876547       0.68033231      -0.71290002
H       -0.43245746       1.79113583       0.42125197
9
Frame=8 idx=000315 GeodesicLength=0.2878235562771009 rxn_smarts="[O:1]([c:2]1[n:3][o:4][c:5]([H:8])[c:6]1[H:9])[H:7]>>[O:1]([C:2]1=[N:3][O+:4]=[C-:5][C:6]1([H:8])[H:9])[H:7]"
O        1.89381257       0.24982329      -0.19707127
C        0.62946886      -0.14356475      -0.05493934
N        0.27350273      -1.37394621       0.04384723
O       -1.13123519      -1.33656063       0.21698746
C       -1.58035974      -0.09903206       0.38072594
C       -0.49285145       0.75832186       0.10297997
H        2.46021123      -0.53003153      -0.20617348
H       -1.62518066       0.68939507      -0.71722984
H       -0.42736836       1.78559496       0.43087334
9
Frame=9 idx=000315 GeodesicLength=0.3237769149805117 rxn_smarts="[O:1]([c:2]1[n:3][o:4][c:5]([H:8])[c:6]1[H:9])[H:7]>>[O:1]([C:2]1=[N:3][O+:4]=[C-:5][C:6]1([H:8])[H:9])[H:7]"
O        1.89391301       0.24931832      -0.20311332
C        0.62973493      -0.14433681      -0.06031422
N        0.27751692      -1.37507303       0.04863338
O       -1.13018564      -1.33732779       0.21979852
C       -1.57583283      -0.10099367       0.37941508
C       -0.49291181       0.75927045       0.09160579
H        2.46198833      -0.52953648      -0.19605825
H       -1.64249972       0.69909449      -0.72010070
H       -0.42172319       1.77958453       0.44013373
9
Frame=10 idx=000315 GeodesicLength=0.35967870722248985 rxn_smarts="[O:1]([c:2]1[n:3][o:4][c:5]([H:8])[c:6]1[H:9])[H:7]>>[O:1]([C:2]1=[N:3][O+:4]=[C-:5][C:6]1([H:8])[H:9])[H:7]"
O        1.89403959       0.24864852      -0.20915996
C        0.63000531      -0.14519876      -0.06566434
N        0.28157723      -1.37618928       0.05362319
O       -1.12913736      -1.33813077       0.22246699
C       -1.57132073      -0.10300647       0.37786170
C       -0.49293876       0.76011313       0.08038739
H        2.46357275      -0.52865945      -0.18591041
H       -1.65983737       0.70916730      -0.72254153
H       -0.41596065       1.77325577       0.44893697
9
Frame=11 idx=000315 GeodesicLength=0.3955675894003336 rxn_smarts="[O:1]([c:2]1[n:3][o:4][c:5]([H:8])[c:6]1[H:9])[H:7]>>[O:1]([C:2]1=[N:3][O+:4]=[C-:5][C:6]1([H:8])[H:9])[H:7]"
O        1.89432995       0.24813831      -0.21319006
C        0.63043440      -0.14602845      -0.06940969
N        0.28581496      -1.37717498       0.06015362
O       -1.12812988      -1.33894998       0.22491457
C       -1.56715363      -0.10506381       0.37534421
C       -0.49302572       0.76092611       0.06959223
H        2.46490813      -0.52802980      -0.17928834
H       -1.67648159       0.71947239      -0.72550041
H       -0.41069661       1.76671020       0.45738387
9
Frame=12 idx=000315 GeodesicLength=0.43146425721770487 rxn_smarts="[O:1]([c:2]1[n:3][o:4][c:5]([H:8])[c:6]1[H:9])[H:7]>>[O:1]([C:2]1=[N:3][O+:4]=[C-:5][C:6]1([H:8])[H:9])[H:7]"
O        1.89465151       0.24763752      -0.21684947
C        0.63091906      -0.14689110      -0.07267433
N        0.29014494      -1.37810539       0.06727895
O       -1.12712232      -1.33983519       0.22716664
C       -1.56310862      -0.10720393       0.37238177
C       -0.49310904       0.76166369       0.05905141
H        2.46618101      -0.52737633      -0.17350399
H       -1.69297979       0.73015060      -0.72829700
H       -0.40557674       1.75996013       0.46544602
9
Frame=13 idx=000315 GeodesicLength=0.46736245203658083 rxn_smarts="[O:1]([c:2]1[n:3][o:4][c:5]([H:8])[c:6]1[H:9])[H:7]>>[O:1]([C:2]1=[N:3][O+:4]=[C-:5][C:6]1([H:8])[H:9])[H:7]"
O        1.89491662       0.24705588      -0.22110994
C        0.63139576      -0.14783499      -0.07610256
N        0.29452866      -1.37900713       0.07450989
O       -1.12609051      -1.34079290       0.22923206
C       -1.55907145      -0.10943937       0.36923402
C       -0.49316224       0.76230469       0.04866877
H        2.46750678      -0.52652931      -0.16701746
H       -1.70962556       0.74129826      -0.73052914
H       -0.40039806       1.75294486       0.47311437
9
Frame=14 idx=000315 GeodesicLength=0.5032919407316465 rxn_smarts="[O:1]([c:2]1[n:3][o:4][c:5]([H:8])[c:6]1[H:9])[H:7]>>[O:1]([C:2]1=[N:3][O+:4]=[C-:5][C:6]1([H:8])[H:9])[H:7]"
O        1.89516123       0.24639108      -0.22564350
C        0.63187418      -0.14886477      -0.07962176
N        0.29898114      -1.37986754       0.08197403
O       -1.12502717      -1.34182803       0.23113862
C       -1.55506447      -0.11177232       0.36583107
C       -0.49318949       0.76285731       0.03842466
H        2.46885103      -0.52550853      -0.16022061
H       -1.72637461       0.75291742      -0.73226732
H       -0.39521184       1.74567540       0.48038482
9
Frame=15 idx=000315 GeodesicLength=0.5391814464783965 rxn_smarts="[O:1]([c:2]1[n:3][o:4][c:5]([H:8])[c:6]1[H:9])[H:7]>>[O:1]([C:2]1=[N:3][O+:4]=[C-:5][C:6]1([H:8])[H:9])[H:7]"
O        1.89536037       0.24561311      -0.23074027
C        0.63233417      -0.15000262      -0.08344192
N        0.30348293      -1.38069202       0.08951139
O       -1.12393234      -1.34293408       0.23287763
C       -1.55105218      -0.11420680       0.36224063
C       -0.49317963       0.76329342       0.02827122
H        2.47023913      -0.52423972      -0.15261483
H       -1.74331713       0.76502354      -0.73333316
H       -0.38993531       1.73814518       0.48722932
9
Frame=16 idx=000315 GeodesicLength=0.5751027644786987 rxn_smarts="[O:1]([c:2]1[n:3][o:4][c:5]([H:8])[c:6]1[H:9])[H:7]>>[O:1]([C:2]1=[N:3][O+:4]=[C-:5][C:6]1([H:8])[H:9])[H:7]"
O        1.89550939       0.24467042      -0.23651343
C        0.63277698      -0.15127068      -0.08756410
N        0.30802893      -1.38150495       0.09706158
O       -1.12279997      -1.34413749       0.23447574
C       -1.54703280      -0.11675230       0.35846539
C       -0.49313224       0.76362280       0.01820008
H        2.47166446      -0.52265381      -0.14406899
H       -1.76045523       0.77765186      -0.73370655
H       -0.38455951       1.73037416       0.49365027
