10
Frame=0 idx=005490 GeodesicLength=0.0 rxn_smarts="[O:1]=[C:2]([C@@:3]1([H:7])[C:4]([H:8])([H:9])[N:5]1[H:10])[H:6]>>[C:4](=[N:5][H:10])([H:8])[H:9].[O-:1][C:2](=[C+:3][H:7])[H:6]"
O        1.56735913      -0.23907259       1.32395711
C        2.28976029      -0.19146093       0.32901388
C        1.78404670       0.66852645      -0.65442129
C       -2.35009068       0.07921014      -0.15091222
N       -1.09448528      -0.00907645      -0.19212063
H        3.27771112      -0.68085515       0.26632226
H        1.04980895       0.24502726      -1.34672749
H       -2.90709561       0.19948016      -1.08070827
H       -2.93699646       0.04284027       0.77169295
H       -0.68001816      -0.11461916       0.73390369
10
Frame=1 idx=005490 GeodesicLength=0.09632125836225204 rxn_smarts="[O:1]=[C:2]([C@@:3]1([H:7])[C:4]([H:8])([H:9])[N:5]1[H:10])[H:6]>>[C:4](=[N:5][H:10])([H:8])[H:9].[O-:1][C:2](=[C+:3][H:7])[H:6]"
O        1.58152669      -0.27138024       1.33363321
C        2.27446315      -0.21005227       0.31882620
C        1.70707028       0.62649796      -0.65200612
C       -2.32632539       0.05648343      -0.16308585
N       -1.06736626       0.15089061      -0.12542922
H        3.28838892      -0.64056641       0.24410349
H        1.02738843       0.16979202      -1.37619392
H       -2.84790576       0.23194083      -1.10435752
H       -2.95275229      -0.06850726       0.72515170
H       -0.68448776      -0.04509868       0.79935804
10
Frame=2 idx=005490 GeodesicLength=0.19623884721145585 rxn_smarts="[O:1]=[C:2]([C@@:3]1([H:7])[C:4]([H:8])([H:9])[N:5]1[H:10])[H:6]>>[C:4](=[N:5][H:10])([H:8])[H:9].[O-:1][C:2](=[C+:3][H:7])[H:6]"
O        1.59109172      -0.29225626       1.34462109
C        2.24966887      -0.22825363       0.30758105
C        1.62469022       0.58363233      -0.64948422
C       -2.28016982       0.03433884      -0.18119760
N       -1.04692599       0.29587513      -0.04846062
H        3.28025007      -0.61234429       0.21429951
H        0.98338516       0.10694965      -1.39363430
H       -2.77513558       0.25954311      -1.12620184
H       -2.94118414      -0.17809596       0.66466340
H       -0.68567052       0.03061109       0.86781353
10
Frame=3 idx=005490 GeodesicLength=0.3014052339168971 rxn_smarts="[O:1]=[C:2]([C@@:3]1([H:7])[C:4]([H:8])([H:9])[N:5]1[H:10])[H:6]>>[C:4](=[N:5][H:10])([H:8])[H:9].[O-:1][C:2](=[C+:3][H:7])[H:6]"
O        1.59792625      -0.30400240       1.35729075
C        2.21893953      -0.24356931       0.29722006
C        1.53868772       0.54439944      -0.64290263
C       -2.22178154       0.01690833      -0.20098640
N       -1.03049030       0.40458318       0.02411566
H        3.26087965      -0.58784024       0.18061955
H        0.93098971       0.05592636      -1.40557350
H       -2.69821064       0.28313422      -1.14497206
H       -2.91070598      -0.26391291       0.60191508
H       -0.68623440       0.09437334       0.93327350
10
Frame=4 idx=005490 GeodesicLength=0.41120510631104246 rxn_smarts="[O:1]=[C:2]([C@@:3]1([H:7])[C:4]([H:8])([H:9])[N:5]1[H:10])[H:6]>>[C:4](=[N:5][H:10])([H:8])[H:9].[O-:1][C:2](=[C+:3][H:7])[H:6]"
O        1.58585099      -0.32326746       1.36751388
C        2.17706375      -0.26799157       0.29039288
C        1.46119544       0.51379380      -0.62916541
C       -2.15214779      -0.00398728      -0.22047785
N       -1.01601834       0.50454747       0.06944665
H        3.22366531      -0.58898317       0.15330229
H        0.88649124       0.03459369      -1.42096101
H       -2.64082606       0.29149857      -1.14943247
H       -2.83821010      -0.37016640       0.54992566
H       -0.68706444       0.20996234       0.98945539
10
Frame=5 idx=005490 GeodesicLength=0.5239979276882881 rxn_smarts="[O:1]=[C:2]([C@@:3]1([H:7])[C:4]([H:8])([H:9])[N:5]1[H:10])[H:6]>>[C:4](=[N:5][H:10])([H:8])[H:9].[O-:1][C:2](=[C+:3][H:7])[H:6]"
O        1.57091569      -0.33817732       1.37808716
C        2.13320088      -0.28986891       0.28532560
C        1.38652511       0.48966715      -0.61238627
C       -2.08176537      -0.02049985      -0.23617361
N       -1.00322788       0.58496738       0.10623322
H        3.18111800      -0.59529971       0.12662072
H        0.84659243       0.02860222      -1.43706452
H       -2.58423536       0.28436689      -1.15466672
H       -2.76092905      -0.44759462       0.50869520
H       -0.68819446       0.30383675       1.03532922
10
Frame=6 idx=005490 GeodesicLength=0.6404623829072564 rxn_smarts="[O:1]=[C:2]([C@@:3]1([H:7])[C:4]([H:8])([H:9])[N:5]1[H:10])[H:6]>>[C:4](=[N:5][H:10])([H:8])[H:9].[O-:1][C:2](=[C+:3][H:7])[H:6]"
O        1.54230173      -0.36319003       1.38489527
C        2.08369872      -0.31615651       0.28172079
C        1.31871647       0.47336740      -0.59259831
C       -2.00934335      -0.03694749      -0.24712230
N       -0.99190437       0.66013912       0.12702787
H        3.13154723      -0.61170570       0.10641803
H        0.81642683       0.04677466      -1.45707651
H       -2.53544096       0.25842631      -1.15548008
H       -2.66694708      -0.51890771       0.48356526
H       -0.68905523       0.40819994       1.06864999
10
Frame=7 idx=005490 GeodesicLength=0.7575485951176677 rxn_smarts="[O:1]=[C:2]([C@@:3]1([H:7])[C:4]([H:8])([H:9])[N:5]1[H:10])[H:6]>>[C:4](=[N:5][H:10])([H:8])[H:9].[O-:1][C:2](=[C+:3][H:7])[H:6]"
O        1.51709765      -0.37830294       1.39339726
C        2.03638414      -0.33899459       0.27944773
C        1.25318561       0.45563691      -0.57495167
C       -1.94197083      -0.04832533      -0.25647479
N       -0.98138940       0.72096799       0.14422039
H        3.08362746      -0.62583859       0.08830713
H        0.78968321       0.06503647      -1.47589256
H       -2.48964936       0.23674462      -1.15520832
H       -2.57690423      -0.57594841       0.46258895
H       -0.69006425       0.48902385       1.09456588
10
Frame=8 idx=005490 GeodesicLength=0.877092541171981 rxn_smarts="[O:1]=[C:2]([C@@:3]1([H:7])[C:4]([H:8])([H:9])[N:5]1[H:10])[H:6]>>[C:4](=[N:5][H:10])([H:8])[H:9].[O-:1][C:2](=[C+:3][H:7])[H:6]"
O        1.48822037      -0.39272806       1.40114447
C        1.98745832      -0.36234137       0.27788016
C        1.19166540       0.44115149      -0.55753390
C       -1.87632905      -0.05887249      -0.26338448
N       -0.97200193       0.77593218       0.15469976
H        3.03258774      -0.64600478       0.07228684
H        0.76908888       0.09502794      -1.49476239
H       -2.44700211       0.20870131      -1.15309753
H       -2.48260983      -0.62718475       0.44932960
H       -0.69107777       0.56631853       1.11343746
10
Frame=9 idx=005490 GeodesicLength=0.9982498347161584 rxn_smarts="[O:1]=[C:2]([C@@:3]1([H:7])[C:4]([H:8])([H:9])[N:5]1[H:10])[H:6]>>[C:4](=[N:5][H:10])([H:8])[H:9].[O-:1][C:2](=[C+:3][H:7])[H:6]"
O        1.45993728      -0.40337322       1.40884809
C        1.93878055      -0.38449986       0.27659604
C        1.13315188       0.42874904      -0.54093570
C       -1.81373868      -0.06895202      -0.26817798
N       -0.96364078       0.82360619       0.16174460
H        2.97998963      -0.67039573       0.05603401
H        0.75332520       0.13280076      -1.51187659
H       -2.40387846       0.17634105      -1.15151102
H       -2.39167151      -0.66944393       0.44159572
H       -0.69225513       0.63516771       1.12768284
10
Frame=10 idx=005490 GeodesicLength=1.1203604573008106 rxn_smarts="[O:1]=[C:2]([C@@:3]1([H:7])[C:4]([H:8])([H:9])[N:5]1[H:10])[H:6]>>[C:4](=[N:5][H:10])([H:8])[H:9].[O-:1][C:2](=[C+:3][H:7])[H:6]"
O        1.43499963      -0.40746258       1.41744709
C        1.89126714      -0.40519735       0.27587367
C        1.07714884       0.41669108      -0.52568436
C       -1.75522555      -0.07767777      -0.27209727
N       -0.95605369       0.86460906       0.16653003
H        2.92671408      -0.69821718       0.03931148
H        0.74097934       0.17423464      -1.52606706
H       -2.36210438       0.14446120      -1.15005759
H       -2.30399408      -0.70631257       0.43626935
H       -0.69373133       0.69487147       1.13847465
10
Frame=11 idx=005490 GeodesicLength=1.2429239158099057 rxn_smarts="[O:1]=[C:2]([C@@:3]1([H:7])[C:4]([H:8])([H:9])[N:5]1[H:10])[H:6]>>[C:4](=[N:5][H:10])([H:8])[H:9].[O-:1][C:2](=[C+:3][H:7])[H:6]"
O        1.41464820      -0.40490128       1.42687983
C        1.84551012      -0.42433158       0.27576711
C        1.02341792       0.40436227      -0.51180115
C       -1.70127660      -0.08504864      -0.27565232
N       -0.94899685       0.89965121       0.16976454
H        2.87334437      -0.72864036       0.02201363
H        0.73118554       0.21742378      -1.53667858
H       -2.32210122       0.11439784      -1.14909731
H       -2.22023436      -0.73893990       0.43205756
H       -0.69549713       0.74602665       1.14674670
10
Frame=12 idx=005490 GeodesicLength=1.3657165554207709 rxn_smarts="[O:1]=[C:2]([C@@:3]1([H:7])[C:4]([H:8])([H:9])[N:5]1[H:10])[H:6]>>[C:4](=[N:5][H:10])([H:8])[H:9].[O-:1][C:2](=[C+:3][H:7])[H:6]"
O        1.39953766      -0.39566629       1.43691949
C        1.80169483      -0.44178118       0.27636781
C        0.97181482       0.39178362      -0.49914047
C       -1.65189829      -0.09120372      -0.27921777
N       -0.94234644       0.92960675       0.17193921
H        2.81970038      -0.76180872       0.00409728
H        0.72326277       0.26127976      -1.54329886
H       -2.28413916       0.08670105      -1.14884680
H       -2.14005165      -0.76856083       0.42799040
H       -0.69757492       0.78964956       1.15318971
10
Frame=13 idx=005490 GeodesicLength=1.4882895676535068 rxn_smarts="[O:1]=[C:2]([C@@:3]1([H:7])[C:4]([H:8])([H:9])[N:5]1[H:10])[H:6]>>[C:4](=[N:5][H:10])([H:8])[H:9].[O-:1][C:2](=[C+:3][H:7])[H:6]"
O        1.39043257      -0.38025107       1.44697552
C        1.76037720      -0.45740505       0.27755918
C        0.92207367       0.37860488      -0.48760297
C       -1.60716288      -0.09657426      -0.28278130
N       -0.93592755       0.95475470       0.17379479
H        2.76640139      -0.79654884      -0.01434468
H        0.71665653       0.30469501      -1.54589211
H       -2.24732179       0.06136958      -1.15013820
H       -2.06571422      -0.79455031       0.42377660
H       -0.69981492       0.82590536       1.15865318
10
Frame=14 idx=005490 GeodesicLength=1.6101095476175176 rxn_smarts="[O:1]=[C:2]([C@@:3]1([H:7])[C:4]([H:8])([H:9])[N:5]1[H:10])[H:6]>>[C:4](=[N:5][H:10])([H:8])[H:9].[O-:1][C:2](=[C+:3][H:7])[H:6]"
O        1.38841367      -0.35805929       1.45676234
C        1.72219555      -0.47097898       0.27958696
C        0.87393126       0.36409295      -0.47707259
C       -1.56735282      -0.10107090      -0.28681224
N       -0.92948935       0.97538750       0.17586026
H        2.71398328      -0.83220520      -0.03280354
H        0.71072395       0.34602996      -1.54451516
H       -2.21242575       0.03981235      -1.15308121
H       -1.99782413      -0.81764072       0.41832533
H       -0.70215565       0.85463231       1.16374985
10
Frame=15 idx=005490 GeodesicLength=1.7302247089056444 rxn_smarts="[O:1]=[C:2]([C@@:3]1([H:7])[C:4]([H:8])([H:9])[N:5]1[H:10])[H:6]>>[C:4](=[N:5][H:10])([H:8])[H:9].[O-:1][C:2](=[C+:3][H:7])[H:6]"
O        1.39572736      -0.32745235       1.46601433
C        1.68868001      -0.48199567       0.28292485
C        0.82679169       0.34621860      -0.46742488
C       -1.53338656      -0.10438216      -0.29200313
N       -0.92257590       0.99117423       0.17905774
H        2.66414754      -0.86720469      -0.05050177
H        0.70468175       0.38267042      -1.53939192
H       -2.18066246       0.02459847      -1.15805887
H       -1.93892163      -0.83789834       0.40997377
H       -0.70448179       0.87427149       1.16940988
10
Frame=16 idx=005490 GeodesicLength=1.847864800947648 rxn_smarts="[O:1]=[C:2]([C@@:3]1([H:7])[C:4]([H:8])([H:9])[N:5]1[H:10])[H:6]>>[C:4](=[N:5][H:10])([H:8])[H:9].[O-:1][C:2](=[C+:3][H:7])[H:6]"
O        1.41481226      -0.28641079       1.47401971
C        1.66193610      -0.48991372       0.28811857
C        0.77972981       0.32163253      -0.45846981
C       -1.50662787      -0.10605743      -0.29906306
N       -0.91451066       1.00147273       0.18436662
H        2.61969385      -0.89925018      -0.06628605
H        0.69784461       0.41196185      -1.53068724
H       -2.15350776       0.01877940      -1.16557707
H       -1.89283078      -0.85496966       0.39700334
H       -0.70653957       0.88275528       1.17657499
