12
Frame=0 idx=000590 GeodesicLength=0.0 rxn_smarts="[N:1]#[C:2][C@@:3]1([H:7])[C:4]([H:8])([H:9])[C:5]([H:10])([H:11])[N:6]1[H:12]>>[N+:1](#[C-:2])[C@@:3]1([H:7])[C:4]([H:8])([H:9])[C:5]([H:10])([H:11])[N:6]1[H:12]"
N        1.77920083       0.56598247      -1.19648805
C        2.48186375      -0.03213193      -0.47672351
C        0.46310659      -0.32749821       0.75144676
C       -0.44318155       0.85461970       0.55262600
C       -1.11987982      -0.05310497      -0.50902395
N       -0.29301398      -1.13003667       0.05053048
H        1.24985804      -0.58971472       1.43917120
H       -1.06708988       1.03357409       1.42939547
H        0.02752245       1.76374180       0.20022560
H       -0.79613131       0.19737894      -1.52035849
H       -2.19244273      -0.22302553      -0.43849665
H       -0.08981239      -2.05978501      -0.28230491
12
Frame=1 idx=000590 GeodesicLength=0.07366571252156776 rxn_smarts="[N:1]#[C:2][C@@:3]1([H:7])[C:4]([H:8])([H:9])[C:5]([H:10])([H:11])[N:6]1[H:12]>>[N+:1](#[C-:2])[C@@:3]1([H:7])[C:4]([H:8])([H:9])[C:5]([H:10])([H:11])[N:6]1[H:12]"
N        1.78441208       0.54059633      -1.18353724
C        2.48855016      -0.03828388      -0.45257125
C        0.48354907      -0.31622483       0.72767318
C       -0.44147056       0.85744302       0.54661299
C       -1.12720412      -0.05499249      -0.50422125
N       -0.29426478      -1.13117537       0.04878952
H        1.23701696      -0.58401960       1.45068447
H       -1.05254474       1.02986904       1.43340790
H        0.01478197       1.77221005       0.18909863
H       -0.82052061       0.19548137      -1.52110907
H       -2.19897313      -0.22512237      -0.42145571
H       -0.07333230      -2.04578126      -0.31337216
12
Frame=2 idx=000590 GeodesicLength=0.1472258861028341 rxn_smarts="[N:1]#[C:2][C@@:3]1([H:7])[C:4]([H:8])([H:9])[C:5]([H:10])([H:11])[N:6]1[H:12]>>[N+:1](#[C-:2])[C@@:3]1([H:7])[C:4]([H:8])([H:9])[C:5]([H:10])([H:11])[N:6]1[H:12]"
N        1.78972442       0.51568336      -1.17110008
C        2.49487913      -0.04264745      -0.42812598
C        0.50323306      -0.30579620       0.70472434
C       -0.43926204       0.85986743       0.54061187
C       -1.13398153      -0.05709510      -0.49933893
N       -0.29477737      -1.13261308       0.04653334
H        1.22319997      -0.57787906       1.46077794
H       -1.03775919       1.02642530       1.43679721
H        0.00300592       1.77991604       0.17839283
H       -0.84465611       0.19350622      -1.52150162
H       -2.20480998      -0.22746317      -0.40430373
H       -0.05879628      -2.03190429      -0.34346721
12
Frame=3 idx=000590 GeodesicLength=0.22065262994875934 rxn_smarts="[N:1]#[C:2][C@@:3]1([H:7])[C:4]([H:8])([H:9])[C:5]([H:10])([H:11])[N:6]1[H:12]>>[N+:1](#[C-:2])[C@@:3]1([H:7])[C:4]([H:8])([H:9])[C:5]([H:10])([H:11])[N:6]1[H:12]"
N        1.79518852       0.49139656      -1.15892421
C        2.50070263      -0.04593554      -0.40383695
C        0.52216445      -0.29604700       0.68265891
C       -0.43670155       0.86194645       0.53466383
C       -1.14020232      -0.05937604      -0.49439632
N       -0.29469434      -1.13428536       0.04387971
H        1.20865212      -0.57119805       1.46948481
H       -1.02296880       1.02318591       1.43961360
H       -0.00796757       1.78697082       0.16818831
H       -0.86839301       0.19146015      -1.52152036
H       -2.20995307      -0.23002581      -0.38716957
H       -0.04582705      -2.01809211      -0.37264177
12
Frame=4 idx=000590 GeodesicLength=0.2939511314529615 rxn_smarts="[N:1]#[C:2][C@@:3]1([H:7])[C:4]([H:8])([H:9])[C:5]([H:10])([H:11])[N:6]1[H:12]>>[N+:1](#[C-:2])[C@@:3]1([H:7])[C:4]([H:8])([H:9])[C:5]([H:10])([H:11])[N:6]1[H:12]"
N        1.80073371       0.46750120      -1.14707290
C        2.50605846      -0.04787998      -0.37946114
C        0.54040720      -0.28695526       0.66148801
C       -0.43378916       0.86374452       0.52873298
C       -1.14592876      -0.06180332      -0.48938987
N       -0.29411329      -1.13618239       0.04084596
H        1.19351604      -0.56429371       1.47686732
H       -1.00817440       1.02025654       1.44186625
H       -0.01815078       1.79343638       0.15835565
H       -0.89183671       0.18934330      -1.52118036
H       -2.21446990      -0.23274794      -0.37000665
H       -0.03425241      -2.00441934      -0.40104524
12
Frame=5 idx=000590 GeodesicLength=0.36722794008335685 rxn_smarts="[N:1]#[C:2][C@@:3]1([H:7])[C:4]([H:8])([H:9])[C:5]([H:10])([H:11])[N:6]1[H:12]>>[N+:1](#[C-:2])[C@@:3]1([H:7])[C:4]([H:8])([H:9])[C:5]([H:10])([H:11])[N:6]1[H:12]"
N        1.80638722       0.44396753      -1.13540931
C        2.51090837      -0.04885175      -0.35513756
C        0.55801520      -0.27842325       0.64122833
C       -0.43061098       0.86532927       0.52281525
C       -1.15121898      -0.06435395      -0.48432298
N       -0.29311797      -1.13830491       0.03748732
H        1.17795438      -0.55721082       1.48305522
H       -0.99346149       1.01765723       1.44358130
H       -0.02768024       1.79942741       0.14885826
H       -0.91502848       0.18715733      -1.52047770
H       -2.21841585      -0.23560834      -0.35282885
H       -0.02373118      -1.99078577      -0.42884928
12
Frame=6 idx=000590 GeodesicLength=0.4404969506522496 rxn_smarts="[N:1]#[C:2][C@@:3]1([H:7])[C:4]([H:8])([H:9])[C:5]([H:10])([H:11])[N:6]1[H:12]>>[N+:1](#[C-:2])[C@@:3]1([H:7])[C:4]([H:8])([H:9])[C:5]([H:10])([H:11])[N:6]1[H:12]"
N        1.81217962       0.42081401      -1.12384657
C        2.51522157      -0.04897680      -0.33087644
C        0.57501119      -0.27039086       0.62182621
C       -0.42719971       0.86672996       0.51687322
C       -1.15613063      -0.06702241      -0.47920720
N       -0.29180445      -1.14061997       0.03379390
H        1.16210943      -0.55006568       1.48821053
H       -0.97882537       1.01539344       1.44479805
H       -0.03660112       1.80497075       0.13958866
H       -0.93801007       0.18489044      -1.51942410
H       -2.22184862      -0.23860908      -0.33560673
H       -0.01410183      -1.97711379      -0.45612953
12
Frame=7 idx=000590 GeodesicLength=0.5137661056126889 rxn_smarts="[N:1]#[C:2][C@@:3]1([H:7])[C:4]([H:8])([H:9])[C:5]([H:10])([H:11])[N:6]1[H:12]>>[N+:1](#[C-:2])[C@@:3]1([H:7])[C:4]([H:8])([H:9])[C:5]([H:10])([H:11])[N:6]1[H:12]"
N        1.81806592       0.39789633      -1.11237806
C        2.51902488      -0.04824547      -0.30670165
C        0.59147389      -0.26282267       0.60329679
C       -0.42359012       0.86797434       0.51092964
C       -1.16065675      -0.06978181      -0.47405288
N       -0.29021112      -1.14313672       0.02982335
H        1.14605606      -0.54287363       1.49230529
H       -0.96434501       1.01345474       1.44553987
H       -0.04496645       1.81012692       0.13058307
H       -0.96077391       0.18257322      -1.51802201
H       -2.22476727      -0.24171130      -0.31840261
H       -0.00531013      -1.96345394      -0.48292079
12
Frame=8 idx=000590 GeodesicLength=0.5870264255524884 rxn_smarts="[N:1]#[C:2][C@@:3]1([H:7])[C:4]([H:8])([H:9])[C:5]([H:10])([H:11])[N:6]1[H:12]>>[N+:1](#[C-:2])[C@@:3]1([H:7])[C:4]([H:8])([H:9])[C:5]([H:10])([H:11])[N:6]1[H:12]"
N        1.82405613       0.37515828      -1.10096761
C        2.52232333      -0.04666884      -0.28260126
C        0.60744573      -0.25564813       0.58560951
C       -0.41981043       0.86909156       0.50495008
C       -1.16483162      -0.07261705      -0.46884329
N       -0.28837345      -1.14581577       0.02560347
H        1.12984665      -0.53582419       1.49541713
H       -0.95005561       1.01184875       1.44578650
H       -0.05282358       1.81493028       0.12175351
H       -0.98333931       0.18017735      -1.51625051
H       -2.22720493      -0.24488247      -0.30115545
H        0.00276710      -1.94974977      -0.50930209
12
Frame=9 idx=000590 GeodesicLength=0.6602801686575261 rxn_smarts="[N:1]#[C:2][C@@:3]1([H:7])[C:4]([H:8])([H:9])[C:5]([H:10])([H:11])[N:6]1[H:12]>>[N+:1](#[C-:2])[C@@:3]1([H:7])[C:4]([H:8])([H:9])[C:5]([H:10])([H:11])[N:6]1[H:12]"
N        1.83023011       0.35270351      -1.08953148
C        2.52510314      -0.04445485      -0.25860587
C        0.62293400      -0.24885201       0.56868790
C       -0.41588195       0.87010727       0.49891319
C       -1.16873591      -0.07553940      -0.46360868
N       -0.28637185      -1.14866017       0.02108292
H        1.11361295      -0.52892074       1.49779363
H       -0.93589219       1.01060557       1.44561556
H       -0.06022236       1.81940930       0.11301676
H       -1.00579403       0.17769213      -1.51415634
H       -2.22924585      -0.24815626      -0.28385703
H        0.01026396      -1.93593435      -0.53535056
12
Frame=10 idx=000590 GeodesicLength=0.7336143957560707 rxn_smarts="[N:1]#[C:2][C@@:3]1([H:7])[C:4]([H:8])([H:9])[C:5]([H:10])([H:11])[N:6]1[H:12]>>[N+:1](#[C-:2])[C@@:3]1([H:7])[C:4]([H:8])([H:9])[C:5]([H:10])([H:11])[N:6]1[H:12]"
N        1.83649292       0.33041648      -1.07804880
C        2.52732198      -0.04167806      -0.23480601
C        0.63800653      -0.24237661       0.55254618
C       -0.41184128       0.87100787       0.49281835
C       -1.17230826      -0.07851659      -0.45834231
N       -0.28421901      -1.15166259       0.01632555
H        1.09731383      -0.52214527       1.49935461
H       -0.92192164       1.00962142       1.44499546
H       -0.06723625       1.82358184       0.10439830
H       -1.02807026       0.17519231      -1.51168278
H       -2.23078689      -0.25150300      -0.26655253
H        0.01724834      -1.92193780      -0.56100602
12
Frame=11 idx=000590 GeodesicLength=0.8069349726679231 rxn_smarts="[N:1]#[C:2][C@@:3]1([H:7])[C:4]([H:8])([H:9])[C:5]([H:10])([H:11])[N:6]1[H:12]>>[N+:1](#[C-:2])[C@@:3]1([H:7])[C:4]([H:8])([H:9])[C:5]([H:10])([H:11])[N:6]1[H:12]"
N        1.84292833       0.30830133      -1.06650948
C        2.52910966      -0.03833606      -0.21120154
C        0.65271258      -0.23618509       0.53715205
C       -0.40770949       0.87184960       0.48668684
C       -1.17562557      -0.08155674      -0.45306885
N       -0.28195327      -1.15482116       0.01132306
H        1.08106168      -0.51557719       1.50021089
H       -0.90818929       1.00896731       1.44400863
H       -0.07386913       1.82752496       0.09589370
H       -1.05022105       0.17261365      -1.50889582
H       -2.23196531      -0.25492413      -0.24925043
H        0.02372087      -1.90785648      -0.58634906
12
Frame=12 idx=000590 GeodesicLength=0.8803254701509957 rxn_smarts="[N:1]#[C:2][C@@:3]1([H:7])[C:4]([H:8])([H:9])[C:5]([H:10])([H:11])[N:6]1[H:12]>>[N+:1](#[C-:2])[C@@:3]1([H:7])[C:4]([H:8])([H:9])[C:5]([H:10])([H:11])[N:6]1[H:12]"
N        1.84945198       0.28638140      -1.05478044
C        2.53037513      -0.03455766      -0.18780254
C        0.66706298      -0.23026917       0.52243712
C       -0.40349581       0.87262163       0.48047791
C       -1.17867285      -0.08463439      -0.44778237
N       -0.27954906      -1.15808081       0.00609821
H        1.06489666      -0.50923935       1.50037598
H       -0.89465119       1.00859490       1.44261242
H       -0.08019770       1.83121809       0.08744269
H       -1.07226172       0.16997402      -1.50576566
H       -2.23272113      -0.25839129      -0.23194146
H        0.02976272      -1.89361736      -0.61137186
12
Frame=13 idx=000590 GeodesicLength=0.9537062957936822 rxn_smarts="[N:1]#[C:2][C@@:3]1([H:7])[C:4]([H:8])([H:9])[C:5]([H:10])([H:11])[N:6]1[H:12]>>[N+:1](#[C-:2])[C@@:3]1([H:7])[C:4]([H:8])([H:9])[C:5]([H:10])([H:11])[N:6]1[H:12]"
N        1.85612472       0.26463565      -1.04296067
C        2.53121827      -0.03039518      -0.16471962
C        0.68111182      -0.22456154       0.50842239
C       -0.39923241       0.87334669       0.47423600
C       -1.18147197      -0.08776208      -0.44251276
N       -0.27709189      -1.16148405       0.00065233
H        1.04881846      -0.50311699       1.49995484
H       -0.88138717       1.00849229       1.44089708
H       -0.08621707       1.83472707       0.07909756
H       -1.09415162       0.16727795      -1.50232945
H       -2.23311367      -0.26193161      -0.21468416
H        0.03539251      -1.87922821      -0.63605354
12
Frame=14 idx=000590 GeodesicLength=1.0271267197830805 rxn_smarts="[N:1]#[C:2][C@@:3]1([H:7])[C:4]([H:8])([H:9])[C:5]([H:10])([H:11])[N:6]1[H:12]>>[N+:1](#[C-:2])[C@@:3]1([H:7])[C:4]([H:8])([H:9])[C:5]([H:10])([H:11])[N:6]1[H:12]"
N        1.86285543       0.24304034      -1.03100857
C        2.53155538      -0.02592052      -0.14195708
C        0.69487290      -0.21905891       0.49505153
C       -0.39494123       0.87400794       0.46793658
C       -1.18400122      -0.09090115      -0.43726109
N       -0.27455730      -1.16498431      -0.00497947
H        1.03288912      -0.49723653       1.49895412
H       -0.86838910       1.00859791       1.43881049
H       -0.09200409       1.83802663       0.07084759
H       -1.11587928       0.16456958      -1.49854688
H       -2.23309120      -0.26548741      -0.19751272
H        0.04069059      -1.86465359      -0.66033450
12
Frame=15 idx=000590 GeodesicLength=1.100522422999767 rxn_smarts="[N:1]#[C:2][C@@:3]1([H:7])[C:4]([H:8])([H:9])[C:5]([H:10])([H:11])[N:6]1[H:12]>>[N+:1](#[C-:2])[C@@:3]1([H:7])[C:4]([H:8])([H:9])[C:5]([H:10])([H:11])[N:6]1[H:12]"
N        1.86969133       0.22160999      -1.01892967
C        2.53148216      -0.02116398      -0.11957147
C        0.70837628      -0.21372293       0.48231494
C       -0.39062833       0.87464247       0.46160713
C       -1.18629532      -0.09407050      -0.43204927
N       -0.27199171      -1.16860647      -0.01080005
H        1.01710265      -0.49159996       1.49746123
H       -0.85567929       1.00893906       1.43644794
H       -0.09754278       1.84119047       0.06269666
H       -1.13744625       0.16181562      -1.49448320
H       -2.23272080      -0.26909380      -0.18043205
H        0.04565206      -1.84993999      -0.68426219
12
Frame=16 idx=000590 GeodesicLength=1.1739724198969042 rxn_smarts="[N:1]#[C:2][C@@:3]1([H:7])[C:4]([H:8])([H:9])[C:5]([H:10])([H:11])[N:6]1[H:12]>>[N+:1](#[C-:2])[C@@:3]1([H:7])[C:4]([H:8])([H:9])[C:5]([H:10])([H:11])[N:6]1[H:12]"
N        1.87659141       0.20034148      -1.00664492
C        2.53099785      -0.01623921      -0.09756648
C        0.72164932      -0.20852747       0.47017157
C       -0.38630677       0.87522298       0.45522307
C       -1.18836346      -0.09725516      -0.42687527
N       -0.26938703      -1.17229200      -0.01680701
H        1.00149187      -0.48617532       1.49547633
H       -0.84323957       1.00945844       1.43376313
H       -0.10288591       1.84416549       0.05462722
H       -1.15888165       0.15901708      -1.49009409
H       -2.23199336      -0.27273206      -0.16345362
H        0.05032730      -1.83498426      -0.70781993
