16
Frame=0 idx=010356 GeodesicLength=0.0 rxn_smarts="[C:1]([C:2]1([C:3]([H:11])([H:12])[H:13])[C:4]([H:14])([H:15])[O:5]/[C:6]1=[N:7]\[H:16])([H:8])([H:9])[H:10]>>[C:1]([C:2]1([C:3]([H:11])([H:12])[H:13])[C-:4]([H:15])[O+:5]=[C:6]1[N:7]([H:14])[H:16])([H:8])([H:9])[H:10]"
C       -0.92136173      -0.49314121       1.18975040
C       -0.13053192      -0.20652520      -0.06211020
C       -0.47914291      -1.14858387      -1.20774039
C       -0.01774918       1.27478948      -0.66694552
O        1.38683364       1.02426233      -0.99030101
C        1.28613542       0.19102800       0.08311005
N        1.56690484       0.81028380       1.23568105
H       -0.75934418       0.26269118       1.95433895
H       -1.98616963      -0.53387697       0.95370887
H       -0.63056840      -1.46187627       1.60132133
H       -0.37914370      -2.18491779      -0.88018868
H       -1.51563352      -0.99270761      -1.51145422
H        0.16801193      -0.99389579      -2.07000769
H        0.63570704       1.58645471       0.88592962
H       -0.57911719       1.42608024      -1.59972268
H        2.35516954       1.43993496       1.08463008
16
Frame=1 idx=010356 GeodesicLength=0.08807876940185051 rxn_smarts="[C:1]([C:2]1([C:3]([H:11])([H:12])[H:13])[C:4]([H:14])([H:15])[O:5]/[C:6]1=[N:7]\[H:16])([H:8])([H:9])[H:10]>>[C:1]([C:2]1([C:3]([H:11])([H:12])[H:13])[C-:4]([H:15])[O+:5]=[C:6]1[N:7]([H:14])[H:16])([H:8])([H:9])[H:10]"
C       -0.92581312      -0.48971659       1.18469376
C       -0.13537603      -0.20136991      -0.06816397
C       -0.47685205      -1.15428892      -1.20674482
C       -0.03441056       1.28188896      -0.66391779
O        1.37770368       1.03389776      -0.99026432
C        1.28404990       0.19437169       0.07611198
N        1.57963986       0.80040555       1.22803826
H       -0.76481339       0.26632025       1.94954911
H       -1.99091259      -0.53096118       0.95028752
H       -0.63118111      -1.45648636       1.59838953
H       -0.36138698      -2.18798161      -0.87569892
H       -1.51618597      -1.01234791      -1.50794493
H        0.16107154      -0.99609167      -2.07534262
H        0.64149944       1.60964620       0.88740248
H       -0.58943639       1.42445108      -1.60164206
H        2.38240378       1.41826266       1.11524680
16
Frame=2 idx=010356 GeodesicLength=0.1761368585830315 rxn_smarts="[C:1]([C:2]1([C:3]([H:11])([H:12])[H:13])[C:4]([H:14])([H:15])[O:5]/[C:6]1=[N:7]\[H:16])([H:8])([H:9])[H:10]>>[C:1]([C:2]1([C:3]([H:11])([H:12])[H:13])[C-:4]([H:15])[O+:5]=[C:6]1[N:7]([H:14])[H:16])([H:8])([H:9])[H:10]"
C       -0.93008689      -0.48624708       1.17963376
C       -0.14022645      -0.19615220      -0.07434688
C       -0.47448273      -1.15995874      -1.20570346
C       -0.05134256       1.28896149      -0.66100563
O        1.36839685       1.04372209      -0.99039842
C        1.28191945       0.19800023       0.06890746
N        1.59235661       0.79083007       1.21985348
H       -0.77018198       0.27011189       1.94465571
H       -1.99549232      -0.52821537       0.94697355
H       -0.63142493      -1.45094801       1.59550283
H       -0.34344901      -2.19074410      -0.87115275
H       -1.51654587      -1.03213855      -1.50417078
H        0.15402224      -0.99846660      -2.08065065
H        0.64727693       1.63365734       0.88826867
H       -0.59992353       1.42287035      -1.60358337
H        2.40918420       1.39471719       1.14721647
16
Frame=3 idx=010356 GeodesicLength=0.2641653252794743 rxn_smarts="[C:1]([C:2]1([C:3]([H:11])([H:12])[H:13])[C:4]([H:14])([H:15])[O:5]/[C:6]1=[N:7]\[H:16])([H:8])([H:9])[H:10]>>[C:1]([C:2]1([C:3]([H:11])([H:12])[H:13])[C-:4]([H:15])[O+:5]=[C:6]1[N:7]([H:14])[H:16])([H:8])([H:9])[H:10]"
C       -0.93415083      -0.48272387       1.17457809
C       -0.14507309      -0.19086462      -0.08066503
C       -0.47203210      -1.16558926      -1.20461194
C       -0.06854734       1.29600581      -0.65822448
O        1.35890615       1.05373878      -0.99073863
C        1.27975450       0.20192947       0.06147094
N        1.60510838       0.78158092       1.21108304
H       -0.77539878       0.27406900       1.93966785
H       -1.99987977      -0.52562341       0.94379166
H       -0.63127009      -1.44525373       1.59265959
H       -0.32532439      -2.19319511      -0.86654997
H       -1.51670685      -1.05207699      -1.50011097
H        0.14685606      -1.00102823      -2.08593316
H        0.65302627       1.65853510       0.88847087
H       -0.61059271       1.42133657      -1.60555638
H        2.43532459       1.36915957       1.18066852
16
Frame=4 idx=010356 GeodesicLength=0.35215314372988243 rxn_smarts="[C:1]([C:2]1([C:3]([H:11])([H:12])[H:13])[C:4]([H:14])([H:15])[O:5]/[C:6]1=[N:7]\[H:16])([H:8])([H:9])[H:10]>>[C:1]([C:2]1([C:3]([H:11])([H:12])[H:13])[C-:4]([H:15])[O+:5]=[C:6]1[N:7]([H:14])[H:16])([H:8])([H:9])[H:10]"
C       -0.93796701      -0.47913611       1.16953657
C       -0.14990542      -0.18549689      -0.08712508
C       -0.46949528      -1.17117557      -1.20346493
C       -0.08602973       1.30302254      -0.65559169
O        1.34922146       1.06395573      -0.99132504
C        1.27756504       0.20618026       0.05377285
N        1.61795443       0.77268916       1.20167464
H       -0.78040689       0.27819825       1.93459504
H       -2.00404027      -0.52317294       0.94077154
H       -0.63067654      -1.43939262       1.58986028
H       -0.30700626      -2.19532312      -0.86188890
H       -1.51665994      -1.07215958      -1.49574377
H        0.13956706      -1.00378504      -2.09119008
H        0.65873268       1.68433598       0.88794289
H       -0.62146310       1.41984797      -1.60757205
H        2.46060977       1.34141198       1.21574773
16
Frame=5 idx=010356 GeodesicLength=0.4400905980448971 rxn_smarts="[C:1]([C:2]1([C:3]([H:11])([H:12])[H:13])[C:4]([H:14])([H:15])[O:5]/[C:6]1=[N:7]\[H:16])([H:8])([H:9])[H:10]>>[C:1]([C:2]1([C:3]([H:11])([H:12])[H:13])[C-:4]([H:15])[O+:5]=[C:6]1[N:7]([H:14])[H:16])([H:8])([H:9])[H:10]"
C       -0.94148536      -0.47546936       1.16452034
C       -0.15470596      -0.18004075      -0.09373682
C       -0.46687252      -1.17671246      -1.20225807
C       -0.10378761       1.31000992      -0.65312760
O        1.33933759       1.07437898      -0.99220753
C        1.27537041       0.21076765       0.04577013
N        1.63097471       0.76417186       1.19155910
H       -0.78512767       0.28250815       1.92944795
H       -2.00792865      -0.52083715       0.93795138
H       -0.62959645      -1.43335223       1.58710483
H       -0.28848659      -2.19711597      -0.85717211
H       -1.51640426      -1.09238424      -1.49103610
H        0.13213483      -1.00674381      -2.09642754
H        0.66438877       1.71110819       0.88661129
H       -0.63255012       1.41840186      -1.60964280
H        2.48473888       1.31130935       1.25264356
16
Frame=6 idx=010356 GeodesicLength=0.5279591490182878 rxn_smarts="[C:1]([C:2]1([C:3]([H:11])([H:12])[H:13])[C:4]([H:14])([H:15])[O:5]/[C:6]1=[N:7]\[H:16])([H:8])([H:9])[H:10]>>[C:1]([C:2]1([C:3]([H:11])([H:12])[H:13])[C-:4]([H:15])[O+:5]=[C:6]1[N:7]([H:14])[H:16])([H:8])([H:9])[H:10]"
C       -0.94464835      -0.47170698       1.15954489
C       -0.15945755      -0.17448274      -0.10050891
C       -0.46415792      -1.18219296      -1.20098470
C       -0.12182415       1.31697019      -0.65085319
O        1.32924320       1.08502064      -0.99344121
C        1.27318705       0.21571705       0.03741855
N        1.64425708       0.75606495       1.18065742
H       -0.78947594       0.28701199       1.92423929
H       -2.01149202      -0.51859821       0.93537610
H       -0.62796763      -1.42711636       1.58439616
H       -0.26975573      -2.19855934      -0.85239870
H       -1.51593053      -1.11274430      -1.48595706
H        0.12454856      -1.00991364      -2.10164649
H        0.66998424       1.73891794       0.88439086
H       -0.64387825       1.41699626      -1.61178048
H        2.50736796       1.27861551       1.29154749
16
Frame=7 idx=010356 GeodesicLength=0.6157351072837178 rxn_smarts="[C:1]([C:2]1([C:3]([H:11])([H:12])[H:13])[C:4]([H:14])([H:15])[O:5]/[C:6]1=[N:7]\[H:16])([H:8])([H:9])[H:10]>>[C:1]([C:2]1([C:3]([H:11])([H:12])[H:13])[C-:4]([H:15])[O+:5]=[C:6]1[N:7]([H:14])[H:16])([H:8])([H:9])[H:10]"
C       -0.94738348      -0.46782824       1.15462967
C       -0.16413658      -0.16880852      -0.10745143
C       -0.46134617      -1.18760873      -1.19963747
C       -0.14013836       1.32390580      -0.64879083
O        1.31892852       1.09589356      -0.99509178
C        1.27103849       0.22105408       0.02866260
N        1.65791370       0.74840179       1.16887122
H       -0.79334300       0.29172664       1.91898464
H       -2.01466384      -0.51642979       0.93310173
H       -0.62571416      -1.42066626       1.58173815
H       -0.25080171      -2.19963731      -0.84756977
H       -1.51523135      -1.13323125      -1.48046745
H        0.11679087      -1.01330299      -2.10684998
H        0.67551599       1.76783232       0.88118557
H       -0.65547318       1.41562946      -1.61399604
H        2.52804424       1.24306944       1.33268116
16
Frame=8 idx=010356 GeodesicLength=0.7033835877251 rxn_smarts="[C:1]([C:2]1([C:3]([H:11])([H:12])[H:13])[C:4]([H:14])([H:15])[O:5]/[C:6]1=[N:7]\[H:16])([H:8])([H:9])[H:10]>>[C:1]([C:2]1([C:3]([H:11])([H:12])[H:13])[C-:4]([H:15])[O+:5]=[C:6]1[N:7]([H:14])[H:16])([H:8])([H:9])[H:10]"
C       -0.94960842      -0.46380609       1.14980018
C       -0.16871930      -0.16299435      -0.11457203
C       -0.45841895      -1.19294887      -1.19820307
C       -0.15873922       1.33082721      -0.64696275
O        1.30837305       1.10702563      -0.99723073
C        1.26894408       0.22682432       0.01944583
N        1.67206880       0.74124713       1.15608857
H       -0.79661296       0.29667997       1.91370133
H       -2.01736706      -0.51431407       0.93119243
H       -0.62274123      -1.41397397       1.57914095
H       -0.23159106      -2.20032823      -0.84267860
H       -1.51428495      -1.15384136      -1.47452463
H        0.10885801      -1.01691810      -2.11203305
H        0.68097412       1.79794523       0.87688448
H       -0.66737524       1.41430071      -1.61629921
H        2.54624034       1.20427485       1.37625032
16
Frame=9 idx=010356 GeodesicLength=0.7908386583918493 rxn_smarts="[C:1]([C:2]1([C:3]([H:11])([H:12])[H:13])[C:4]([H:14])([H:15])[O:5]/[C:6]1=[N:7]\[H:16])([H:8])([H:9])[H:10]>>[C:1]([C:2]1([C:3]([H:11])([H:12])[H:13])[C-:4]([H:15])[O+:5]=[C:6]1[N:7]([H:14])[H:16])([H:8])([H:9])[H:10]"
C       -0.95118947      -0.45962641       1.14508829
C       -0.17313681      -0.15705899      -0.12188294
C       -0.45541677      -1.19819808      -1.19668923
C       -0.17754042       1.33770816      -0.64537432
O        1.29763280       1.11835159      -0.99994776
C        1.26699032       0.23296507       0.00967743
N        1.68698779       0.73448988       1.14215417
H       -0.79903269       0.30184523       1.90843832
H       -2.01948370      -0.51213157       0.92974846
H       -0.61897747      -1.40706677       1.57658164
H       -0.21219602      -2.20062684      -0.83777245
H       -1.51313591      -1.17450221      -1.46806654
H        0.10066436      -1.02077120      -2.11722618
H        0.68644322       1.82921037       0.87140604
H       -0.67953746       1.41301914      -1.61867546
H        2.56092823       1.16239262       1.42254052
16
Frame=10 idx=010356 GeodesicLength=0.8780514579103774 rxn_smarts="[C:1]([C:2]1([C:3]([H:11])([H:12])[H:13])[C:4]([H:14])([H:15])[O:5]/[C:6]1=[N:7]\[H:16])([H:8])([H:9])[H:10]>>[C:1]([C:2]1([C:3]([H:11])([H:12])[H:13])[C-:4]([H:15])[O+:5]=[C:6]1[N:7]([H:14])[H:16])([H:8])([H:9])[H:10]"
C       -0.95202953      -0.45523035       1.14053691
C       -0.17738138      -0.15092677      -0.12938324
C       -0.45225010      -1.20333993      -1.19505127
C       -0.19662257       1.34460349      -0.64405408
O        1.28662137       1.12999702      -1.00332531
C        1.26515725       0.23963734      -0.00069410
N        1.70277153       0.72835929       1.12692743
H       -0.80052064       0.30731964       1.90320185
H       -2.02091494      -0.50993113       0.92884800
H       -0.61424583      -1.39985210       1.57411121
H       -0.19245567      -2.20048360      -0.83279034
H       -1.51168536      -1.19526640      -1.46103856
H        0.09228570      -1.02485798      -2.12238257
H        0.69185790       1.86186289       0.86458290
H       -0.69208320       1.41178075      -1.62114109
H        2.57149547       1.11632785       1.47165226
16
Frame=11 idx=010356 GeodesicLength=0.965037798607161 rxn_smarts="[C:1]([C:2]1([C:3]([H:11])([H:12])[H:13])[C:4]([H:14])([H:15])[O:5]/[C:6]1=[N:7]\[H:16])([H:8])([H:9])[H:10]>>[C:1]([C:2]1([C:3]([H:11])([H:12])[H:13])[C-:4]([H:15])[O+:5]=[C:6]1[N:7]([H:14])[H:16])([H:8])([H:9])[H:10]"
C       -0.95184211      -0.45059177       1.13620491
C       -0.18132728      -0.14462276      -0.13712060
C       -0.44901877      -1.20835775      -1.19332012
C       -0.21583867       1.35148398      -0.64303328
O        1.27543811       1.14187501      -1.00756281
C        1.26361640       0.24673399      -0.01189510
N        1.71986795       0.72264490       1.11007415
H       -0.80059167       0.31308847       1.89806035
H       -2.02141266      -0.50755404       0.92871162
H       -0.60829642      -1.39235272       1.57170588
H       -0.17251024      -2.19990785      -0.82783495
H       -1.51006374      -1.21602468      -1.45331202
H        0.08350682      -1.02919907      -2.12759321
H        0.69745359       1.89582955       0.85623860
H       -0.70496410       1.41060582      -1.62368322
H        2.57598279       1.06634891       1.52435978
16
Frame=12 idx=010356 GeodesicLength=1.051642589085641 rxn_smarts="[C:1]([C:2]1([C:3]([H:11])([H:12])[H:13])[C:4]([H:14])([H:15])[O:5]/[C:6]1=[N:7]\[H:16])([H:8])([H:9])[H:10]>>[C:1]([C:2]1([C:3]([H:11])([H:12])[H:13])[C-:4]([H:15])[O+:5]=[C:6]1[N:7]([H:14])[H:16])([H:8])([H:9])[H:10]"
C       -0.95056022      -0.44554723       1.13217102
C       -0.18500858      -0.13792536      -0.14504121
C       -0.44537016      -1.21321156      -1.19132235
C       -0.23548808       1.35851158      -0.64235293
O        1.26379725       1.15439907      -1.01271006
C        1.26221273       0.25478290      -0.02387574
N        1.73822426       0.71811453       1.09149616
H       -0.79936743       0.31944046       1.89298617
H       -2.02086806      -0.50518179       0.92938773
H       -0.60084816      -1.38427307       1.56954146
H       -0.15179119      -2.19873583      -0.82261776
H       -1.50786371      -1.23699882      -1.44479707
H        0.07472868      -1.03376375      -2.13263846
H        0.70286687       1.93169654       0.84613993
H       -0.71848970       1.40945084      -1.62635161
H        2.57382550       1.00924150       1.57998471
16
Frame=13 idx=010356 GeodesicLength=1.1379787533844503 rxn_smarts="[C:1]([C:2]1([C:3]([H:11])([H:12])[H:13])[C:4]([H:14])([H:15])[O:5]/[C:6]1=[N:7]\[H:16])([H:8])([H:9])[H:10]>>[C:1]([C:2]1([C:3]([H:11])([H:12])[H:13])[C-:4]([H:15])[O+:5]=[C:6]1[N:7]([H:14])[H:16])([H:8])([H:9])[H:10]"
C       -0.94744045      -0.44016792       1.12856824
C       -0.18807329      -0.13102752      -0.15326711
C       -0.44175601      -1.21784363      -1.18922716
C       -0.25495216       1.36553378      -0.64198485
O        1.25214959       1.16705635      -1.01920269
C        1.26147175       0.26315286      -0.03719997
N        1.75907473       0.71367692       1.07040593
H       -0.79546287       0.32609858       1.88819788
H       -2.01864529      -0.50235341       0.93145487
H       -0.59138505      -1.37590584       1.56744249
H       -0.13097170      -2.19706127      -0.81758948
H       -1.50563802      -1.25772492      -1.43521362
H        0.06516591      -1.03854344      -2.13785701
H        0.70909400       1.96883338       0.83404026
H       -0.73230129       1.40844713      -1.62898245
H        2.55967014       0.94782896       1.64041468
16
Frame=14 idx=010356 GeodesicLength=1.2242956464473285 rxn_smarts="[C:1]([C:2]1([C:3]([H:11])([H:12])[H:13])[C:4]([H:14])([H:15])[O:5]/[C:6]1=[N:7]\[H:16])([H:8])([H:9])[H:10]>>[C:1]([C:2]1([C:3]([H:11])([H:12])[H:13])[C-:4]([H:15])[O+:5]=[C:6]1[N:7]([H:14])[H:16])([H:8])([H:9])[H:10]"
C       -0.94184376      -0.43427591       1.12560011
C       -0.19030709      -0.12375514      -0.16181512
C       -0.43801513      -1.22219429      -1.18692240
C       -0.27421384       1.37269743      -0.64196179
O        1.24043642       1.18009303      -1.02740266
C        1.26158325       0.27215492      -0.05219408
N        1.78316911       0.70964594       1.04616964
H       -0.78807145       0.33330114       1.88380852
H       -2.01413732      -0.49902794       0.93539486
H       -0.57906851      -1.36702761       1.56555393
H       -0.10979461      -2.19479037      -0.81264731
H       -1.50324235      -1.27817797      -1.42429868
H        0.05487171      -1.04355408      -2.14316923
H        0.71640942       2.00757828       0.81954280
H       -0.74662588       1.40763383      -1.63151588
H        2.52885002       0.87969874       1.70585729
16
Frame=15 idx=010356 GeodesicLength=1.3110744367725329 rxn_smarts="[C:1]([C:2]1([C:3]([H:11])([H:12])[H:13])[C:4]([H:14])([H:15])[O:5]/[C:6]1=[N:7]\[H:16])([H:8])([H:9])[H:10]>>[C:1]([C:2]1([C:3]([H:11])([H:12])[H:13])[C-:4]([H:15])[O+:5]=[C:6]1[N:7]([H:14])[H:16])([H:8])([H:9])[H:10]"
C       -0.93358217      -0.42775136       1.12350113
C       -0.19156004      -0.11596360      -0.17045335
C       -0.43374151      -1.22617038      -1.18418374
C       -0.29311108       1.38015355      -0.64195367
O        1.22884012       1.19367651      -1.03695105
C        1.26266082       0.28199723      -0.06848320
N        1.81106704       0.70582546       1.01912389
H       -0.77701744       0.34116638       1.88006330
H       -2.00713613      -0.49512277       0.94138927
H       -0.56367624      -1.35750610       1.56410798
H       -0.08784136      -2.19180022      -0.80753110
H       -1.50021929      -1.29825725      -1.41200304
H        0.04446025      -1.04874644      -2.14823357
H        0.72495208       2.04798189       0.80297157
H       -0.76127129       1.40713086      -1.63367764
H        2.47717625       0.80338624       1.77231324
16
Frame=16 idx=010356 GeodesicLength=1.3991377891090957 rxn_smarts="[C:1]([C:2]1([C:3]([H:11])([H:12])[H:13])[C:4]([H:14])([H:15])[O:5]/[C:6]1=[N:7]\[H:16])([H:8])([H:9])[H:10]>>[C:1]([C:2]1([C:3]([H:11])([H:12])[H:13])[C-:4]([H:15])[O+:5]=[C:6]1[N:7]([H:14])[H:16])([H:8])([H:9])[H:10]"
C       -0.92308041      -0.42134764       1.12224702
C       -0.19170285      -0.10826651      -0.17874001
C       -0.42943592      -1.22960793      -1.18117304
C       -0.31016710       1.38757405      -0.64080194
O        1.21873636       1.20653790      -1.04621113
C        1.26502233       0.29099503      -0.08486462
N        1.84325674       0.69862892       0.99089335
H       -0.76235456       0.34841591       1.87731487
H       -1.99798323      -0.49056281       0.94912297
H       -0.54643446      -1.34856574       1.56268590
H       -0.06651229      -2.18840497      -0.80288013
H       -1.49699917      -1.31687834      -1.39879071
H        0.03379150      -1.05376314      -2.15290354
H        0.73613433       2.08820259       0.78585243
H       -0.77439088       1.40751331      -1.63439412
H        2.40211964       0.72952937       1.83264268
