19
Frame=0 idx=008678 GeodesicLength=0.0 rxn_smarts="[C:1]([C:2]1([O:3][H:11])[C:4]([H:12])([H:13])[C:5]([H:14])([H:15])[C:6]([H:16])([H:17])[C:7]1([H:18])[H:19])([H:8])([H:9])[H:10]>>[C:1]([C:2][C:7]([C:6]([C:5]([C:4]([O:3][H:11])([H:12])[H:13])([H:14])[H:15])([H:16])[H:17])([H:18])[H:19])([H:8])([H:9])[H:10]"
C        1.92079384      -1.22296251      -0.62118428
C        0.73127612      -0.34702912      -0.37490619
O        1.06500379       0.44233537       0.96933547
C       -0.02144642       1.63984494       0.10709025
C       -1.38760693       1.15288959       0.48034160
C       -1.72665188      -0.18437431      -0.16472317
C       -0.51378836      -1.10793590      -0.02742326
H        2.81969799      -0.65964789      -0.89002998
H        1.71226824      -1.89833540      -1.45426539
H        2.16111331      -1.83955287       0.26538041
H        1.93043039       0.83175973       0.81263299
H        0.33793932       2.42903216       0.76940922
H        0.14152348       1.87955536      -0.93277024
H       -1.44577550       1.07713559       1.56804548
H       -2.09762647       1.92948653       0.17185352
H       -1.92608187      -0.03143244      -1.22868395
H       -2.63248473      -0.60451467       0.28082139
H       -0.60699389      -1.94916137      -0.71923403
H       -0.46159045      -1.53709274       0.98831007
19
Frame=1 idx=008678 GeodesicLength=0.032958792174379005 rxn_smarts="[C:1]([C:2]1([O:3][H:11])[C:4]([H:12])([H:13])[C:5]([H:14])([H:15])[C:6]([H:16])([H:17])[C:7]1([H:18])[H:19])([H:8])([H:9])[H:10]>>[C:1]([C:2][C:7]([C:6]([C:5]([C:4]([O:3][H:11])([H:12])[H:13])([H:14])[H:15])([H:16])[H:17])([H:18])[H:19])([H:8])([H:9])[H:10]"
C        1.92186239      -1.21852688      -0.62033525
C        0.73075487      -0.34797173      -0.36689101
O        1.06243823       0.44095066       0.98416614
C       -0.01500900       1.62914844       0.10005861
C       -1.38549765       1.15488628       0.47904508
C       -1.72842569      -0.18483749      -0.15988264
C       -0.51592275      -1.10989620      -0.02743260
H        2.82108977      -0.65021005      -0.87688644
H        1.71580527      -1.87801379      -1.46686320
H        2.15649488      -1.84909722       0.25702406
H        1.92884520       0.82991594       0.83270288
H        0.34361320       2.43269980       0.74569697
H        0.13861537       1.86674822      -0.94271135
H       -1.44274232       1.08338253       1.56713408
H       -2.09378486       1.93199868       0.16888346
H       -1.93613120      -0.03500010      -1.22271472
H       -2.63082636      -0.60408878       0.29310880
H       -0.60802380      -1.94416211      -0.72802359
H       -0.46315555      -1.54792620       0.98392071
19
Frame=2 idx=008678 GeodesicLength=0.06598563613417668 rxn_smarts="[C:1]([C:2]1([O:3][H:11])[C:4]([H:12])([H:13])[C:5]([H:14])([H:15])[C:6]([H:16])([H:17])[C:7]1([H:18])[H:19])([H:8])([H:9])[H:10]>>[C:1]([C:2][C:7]([C:6]([C:5]([C:4]([O:3][H:11])([H:12])[H:13])([H:14])[H:15])([H:16])[H:17])([H:18])[H:19])([H:8])([H:9])[H:10]"
C        1.92294520      -1.21409527      -0.61942088
C        0.73021530      -0.34901038      -0.35898332
O        1.05976939       0.43967426       0.99881469
C       -0.00859466       1.61840080       0.09314983
C       -1.38333985       1.15689066       0.47772421
C       -1.73018767      -0.18527088      -0.15501168
C       -0.51807327      -1.11185427      -0.02751462
H        2.82245949      -0.64096814      -0.86354142
H        1.71945697      -1.85745112      -1.47909261
H        2.15188290      -1.85848237       0.24849718
H        1.92707825       0.82824800       0.85250383
H        0.34942332       2.43581286       0.72191203
H        0.13565768       1.85382362      -0.95246808
H       -1.43970853       1.08965705       1.56618048
H       -2.08989213       1.93451019       0.16587963
H       -1.94625223      -0.03849837      -1.21661747
H       -2.62906626      -0.60360742       0.30547745
H       -0.60909092      -1.93903282      -0.73685347
H       -0.46468295      -1.55874641       0.97936422
19
Frame=3 idx=008678 GeodesicLength=0.09905600427957656 rxn_smarts="[C:1]([C:2]1([O:3][H:11])[C:4]([H:12])([H:13])[C:5]([H:14])([H:15])[C:6]([H:16])([H:17])[C:7]1([H:18])[H:19])([H:8])([H:9])[H:10]>>[C:1]([C:2][C:7]([C:6]([C:5]([C:4]([O:3][H:11])([H:12])[H:13])([H:14])[H:15])([H:16])[H:17])([H:18])[H:19])([H:8])([H:9])[H:10]"
C        1.92403637      -1.20967561      -0.61844785
C        0.72965866      -0.35013709      -0.35119235
O        1.05701307       0.43851291       1.01327068
C       -0.00221054       1.60761060       0.08637664
C       -1.38113948       1.15889782       0.47638169
C       -1.73193220      -0.18567181      -0.15012663
C       -0.52023605      -1.11380397      -0.02766479
H        2.82379095      -0.63193958      -0.85005490
H        1.72320524      -1.83671003      -1.49091702
H        2.14729590      -1.86768192       0.23981412
H        1.92514313       0.82676665       0.87200813
H        0.35534632       2.43837142       0.69810546
H        0.13265642       1.84080703      -0.96202059
H       -1.43668236       1.09593908       1.56518649
H       -2.08595872       1.93701481       0.16285228
H       -1.95641491      -0.04191583      -1.21041007
H       -2.62720878      -0.60307104       0.31788498
H       -0.61019202      -1.93378275      -0.74569764
H       -0.46617100      -1.56953069       0.97465136
19
Frame=4 idx=008678 GeodesicLength=0.13219808693193502 rxn_smarts="[C:1]([C:2]1([O:3][H:11])[C:4]([H:12])([H:13])[C:5]([H:14])([H:15])[C:6]([H:16])([H:17])[C:7]1([H:18])[H:19])([H:8])([H:9])[H:10]>>[C:1]([C:2][C:7]([C:6]([C:5]([C:4]([O:3][H:11])([H:12])[H:13])([H:14])[H:15])([H:16])[H:17])([H:18])[H:19])([H:8])([H:9])[H:10]"
C        1.92514049      -1.20526509      -0.61741872
C        0.72908525      -0.35135733      -0.34350418
O        1.05416005       0.43746426       1.02755158
C        0.00414460       1.59677567       0.07972210
C       -1.37889542       1.16091317       0.47501117
C       -1.73366289      -0.18604509      -0.14521188
C       -0.52241313      -1.11575193      -0.02788256
H        2.82509495      -0.62311383      -0.83638220
H        1.72706222      -1.81574033      -1.50237856
H        2.14272081      -1.87673178       0.23094870
H        1.92303531       0.82546868       0.89125057
H        0.36138932       2.44039006       0.67425509
H        0.12961423       1.82767454      -0.97139130
H       -1.43365853       1.10225334       1.56414796
H       -2.08198162       1.93951714       0.15978382
H       -1.96664009      -0.04526773      -1.20407449
H       -2.62524575      -0.60248110       0.33036783
H       -0.61132824      -1.92840497      -0.75457236
H       -0.46762154      -1.58029767       0.96977744
19
Frame=5 idx=008678 GeodesicLength=0.16543852634243197 rxn_smarts="[C:1]([C:2]1([O:3][H:11])[C:4]([H:12])([H:13])[C:5]([H:14])([H:15])[C:6]([H:16])([H:17])[C:7]1([H:18])[H:19])([H:8])([H:9])[H:10]>>[C:1]([C:2][C:7]([C:6]([C:5]([C:4]([O:3][H:11])([H:12])[H:13])([H:14])[H:15])([H:16])[H:17])([H:18])[H:19])([H:8])([H:9])[H:10]"
C        1.92626059      -1.20085874      -0.61633305
C        0.72849620      -0.35267497      -0.33590671
O        1.05120125       0.43652552       1.04166938
C        0.01047393       1.58589091       0.07316853
C       -1.37660464       1.16293985       0.47360534
C       -1.73538312      -0.18639579      -0.14024857
C       -0.52460713      -1.11770214      -0.02817034
H        2.82638481      -0.61448565      -0.82246778
H        1.73104314      -1.79448129      -1.51351533
H        2.13813696      -1.88566658       0.22187454
H        1.92075042       0.82434946       0.91025819
H        0.36755694       2.44188127       0.65033566
H        0.12653772       1.81440194      -0.98060135
H       -1.43063207       1.10862215       1.56305785
H       -2.07795459       1.94201686       0.15665336
H       -1.97695439      -0.04857055      -1.19758583
H       -2.62316512      -0.60184063       0.34297238
H       -0.61250155      -1.92288459      -0.76349780
H       -0.46903937      -1.59106704       0.96473151
19
Frame=6 idx=008678 GeodesicLength=0.1987535418484324 rxn_smarts="[C:1]([C:2]1([O:3][H:11])[C:4]([H:12])([H:13])[C:5]([H:14])([H:15])[C:6]([H:16])([H:17])[C:7]1([H:18])[H:19])([H:8])([H:9])[H:10]>>[C:1]([C:2][C:7]([C:6]([C:5]([C:4]([O:3][H:11])([H:12])[H:13])([H:14])[H:15])([H:16])[H:17])([H:18])[H:19])([H:8])([H:9])[H:10]"
C        1.92739060      -1.19646696      -0.61519488
C        0.72789288      -0.35408295      -0.32841036
O        1.04815267       0.43570534       1.05561209
C        0.01677035       1.57496536       0.06672767
C       -1.37427217       1.16497313       0.47216796
C       -1.73708728      -0.18672077      -0.13525245
C       -0.52681425      -1.11964887      -0.02852699
H        2.82764596      -0.60607646      -0.80836285
H        1.73513392      -1.77299393      -1.52428957
H        2.13355939      -1.89446161       0.21260677
H        1.91830032       0.82342491       0.92900176
H        0.37382570       2.44284597       0.62639478
H        0.12342962       1.80101506      -0.98963309
H       -1.42760639       1.11502579       1.56191915
H       -2.07388820       1.94450849       0.15347602
H       -1.98733100      -0.05181294      -1.19096074
H       -2.62096716      -0.60115331       0.35565918
H       -0.61371095      -1.91722834      -0.77245494
H       -0.47042399      -1.60181791       0.95952049
19
Frame=7 idx=008678 GeodesicLength=0.23216983796856897 rxn_smarts="[C:1]([C:2]1([O:3][H:11])[C:4]([H:12])([H:13])[C:5]([H:14])([H:15])[C:6]([H:16])([H:17])[C:7]1([H:18])[H:19])([H:8])([H:9])[H:10]>>[C:1]([C:2][C:7]([C:6]([C:5]([C:4]([O:3][H:11])([H:12])[H:13])([H:14])[H:15])([H:16])[H:17])([H:18])[H:19])([H:8])([H:9])[H:10]"
C        1.92853434      -1.19208364      -0.61400624
C        0.72727582      -0.35558628      -0.32100074
O        1.04500489       0.43500003       1.06939482
C        0.02303658       1.56399307       0.06038544
C       -1.37189616       1.16701631       0.47069190
C       -1.73877834      -0.18702495      -0.13020731
C       -0.52903700      -1.12159701      -0.02895170
H        2.82888771      -0.59787971      -0.79402439
H        1.73934472      -1.75122145      -1.53473413
H        2.12897507      -1.90314618       0.20311504
H        1.91568061       0.82268808       0.94751132
H        0.38020269       2.44329511       0.60240794
H        0.12029606       1.78748917      -0.99850443
H       -1.42458042       1.12148663       1.56072485
H       -2.06977657       1.94699297       0.15022952
H       -1.99779142      -0.05500996      -1.18417769
H       -2.61864349      -0.60041820       0.36846524
H       -0.61495708      -1.91142591      -0.78145683
H       -0.47177800      -1.61256810       0.95413738
19
Frame=8 idx=008678 GeodesicLength=0.2656625661829259 rxn_smarts="[C:1]([C:2]1([O:3][H:11])[C:4]([H:12])([H:13])[C:5]([H:14])([H:15])[C:6]([H:16])([H:17])[C:7]1([H:18])[H:19])([H:8])([H:9])[H:10]>>[C:1]([C:2][C:7]([C:6]([C:5]([C:4]([O:3][H:11])([H:12])[H:13])([H:14])[H:15])([H:16])[H:17])([H:18])[H:19])([H:8])([H:9])[H:10]"
C        1.92968553      -1.18771677      -0.61277444
C        0.72664605      -0.35717832      -0.31368598
O        1.04177390       0.43441618       1.08300827
C        0.02926674       1.55298277       0.05415582
C       -1.36948233       1.16906453       0.46917982
C       -1.74045078      -0.18730613      -0.12513013
C       -0.53127172      -1.12354221      -0.02943842
H        2.83009444      -0.58991140      -0.77951061
H        1.74365381      -1.72922442      -1.54481502
H        2.12440217      -1.91169343       0.19341173
H        1.91290515       0.82214947       0.96576126
H        0.38666670       2.44323145       0.57842554
H        0.11714364       1.77385239      -1.00719570
H       -1.42156325       1.12798593       1.55947674
H       -2.06562858       1.94946477       0.14692239
H       -2.00830566      -0.05815251      -1.17725643
H       -2.61619823      -0.59963777       0.38134672
H       -0.61623792      -1.90548880      -0.79047733
H       -0.47309966      -1.62329575       0.94859579
19
Frame=9 idx=008678 GeodesicLength=0.2992077797544828 rxn_smarts="[C:1]([C:2]1([O:3][H:11])[C:4]([H:12])([H:13])[C:5]([H:14])([H:15])[C:6]([H:16])([H:17])[C:7]1([H:18])[H:19])([H:8])([H:9])[H:10]>>[C:1]([C:2][C:7]([C:6]([C:5]([C:4]([O:3][H:11])([H:12])[H:13])([H:14])[H:15])([H:16])[H:17])([H:18])[H:19])([H:8])([H:9])[H:10]"
C        1.93083867      -1.18337405      -0.61150695
C        0.72600538      -0.35885188      -0.30647321
O        1.03847713       0.43395900       1.09644526
C        0.03545562       1.54194327       0.04805263
C       -1.36703640       1.17111275       0.46763515
C       -1.74210002      -0.18756218      -0.12003892
C       -0.53351466      -1.12548034      -0.02998014
H        2.83125148      -0.58218337      -0.76488200
H        1.74803620      -1.70706539      -1.55450286
H        2.11985929      -1.92007822       0.18351249
H        1.90999056       0.82181708       0.98372931
H        0.39319505       2.44266325       0.55449510
H        0.11397962       1.76013356      -1.01568847
H       -1.41856347       1.13450314       1.55817771
H       -2.06145361       1.95191883       0.14356452
H       -2.01884321      -0.06123123      -1.17021952
H       -2.61363903      -0.59881506       0.39425735
H       -0.61755146      -1.89943020      -0.79948920
H       -0.47438716      -1.63397896       0.94291174
19
Frame=10 idx=008678 GeodesicLength=0.3328319472324946 rxn_smarts="[C:1]([C:2]1([O:3][H:11])[C:4]([H:12])([H:13])[C:5]([H:14])([H:15])[C:6]([H:16])([H:17])[C:7]1([H:18])[H:19])([H:8])([H:9])[H:10]>>[C:1]([C:2][C:7]([C:6]([C:5]([C:4]([O:3][H:11])([H:12])[H:13])([H:14])[H:15])([H:16])[H:17])([H:18])[H:19])([H:8])([H:9])[H:10]"
C        1.93199745      -1.17905195      -0.61020063
C        0.72535447      -0.36061163      -0.29935122
O        1.03510420       0.43362749       1.10971654
C        0.04160508       1.53086904       0.04205761
C       -1.36455502       1.17316402       0.46605225
C       -1.74372821      -0.18779729      -0.11491532
C       -0.53576812      -1.12741505      -0.03058245
H        2.83237293      -0.57469726      -0.75008017
H        1.75251323      -1.68468365      -1.56382916
H        2.11532371      -1.92833315       0.17339086
H        1.90692929       0.82169009       1.00143991
H        0.39979400       2.44160037       0.53058653
H        0.11080228       1.74630604      -1.02400546
H       -1.41557179       1.14105973       1.55682215
H       -2.05724784       1.95435489       0.14014337
H       -2.02942932      -0.06425871      -1.16304078
H       -2.61095123      -0.59795016       0.40724164
H       -0.61889931      -1.89323503      -0.80851547
H       -0.47564580      -1.64463780       0.93706979
19
Frame=11 idx=008678 GeodesicLength=0.36650839145552916 rxn_smarts="[C:1]([C:2]1([O:3][H:11])[C:4]([H:12])([H:13])[C:5]([H:14])([H:15])[C:6]([H:16])([H:17])[C:7]1([H:18])[H:19])([H:8])([H:9])[H:10]>>[C:1]([C:2][C:7]([C:6]([C:5]([C:4]([O:3][H:11])([H:12])[H:13])([H:14])[H:15])([H:16])[H:17])([H:18])[H:19])([H:8])([H:9])[H:10]"
C        1.93315309      -1.17475807      -0.60886453
C        0.72469343      -0.36245193      -0.29232421
O        1.03166934       0.43342776       1.12281373
C        0.04770888       1.51976695       0.03618522
C       -1.36204223       1.17521304       0.46443537
C       -1.74532738      -0.18800853      -0.10977875
C       -0.53802698      -1.12934175      -0.03123575
H        2.83343894      -0.56746383      -0.73516826
H        1.75705440      -1.66214348      -1.57276541
H        2.11081797      -1.93642802       0.16306080
H        1.90373266       0.82177546       1.01887052
H        0.40643904       2.44004923       0.50674812
H        0.10761856       1.73239392      -1.03212743
H       -1.41259309       1.14763249       1.55541255
H       -2.05301922       1.95676642       0.13667304
H       -2.04002460      -0.06722316      -1.15574428
H       -2.60814411      -0.59704087       0.42024443
H       -0.62027443      -1.88691925      -0.81752313
H       -0.47687427      -1.65524635       0.93108798
19
Frame=12 idx=008678 GeodesicLength=0.4002677921885632 rxn_smarts="[C:1]([C:2]1([O:3][H:11])[C:4]([H:12])([H:13])[C:5]([H:14])([H:15])[C:6]([H:16])([H:17])[C:7]1([H:18])[H:19])([H:8])([H:9])[H:10]>>[C:1]([C:2][C:7]([C:6]([C:5]([C:4]([O:3][H:11])([H:12])[H:13])([H:14])[H:15])([H:16])[H:17])([H:18])[H:19])([H:8])([H:9])[H:10]"
C        1.93431271      -1.17048630      -0.60749655
C        0.72402396      -0.36437697      -0.28538062
O        1.02816582       0.43335744       1.13575210
C        0.05377203       1.50863334       0.03041796
C       -1.35949699       1.17726406       0.46277606
C       -1.74690486      -0.18820186      -0.10460986
C       -0.54029637      -1.13126640      -0.03194423
H        2.83446834      -0.56048178      -0.72008848
H        1.76168288      -1.63937772      -1.58134368
H        2.10632027      -1.94439877       0.15249168
H        1.90040029       0.82207095       1.03604921
H        0.41314260       2.43802019       0.48295013
H        0.10443147       1.71837570      -1.04007822
H       -1.40962369       1.15424639       1.55394274
H       -2.04876531       1.95915593       0.13313123
H       -2.05066253      -0.07014219      -1.14830531
H       -2.60520726      -0.59609162       0.43331695
H       -0.62168412      -1.88046933      -0.82653499
H       -0.47807925      -1.66583106       0.92495389
19
Frame=13 idx=008678 GeodesicLength=0.43414010006237463 rxn_smarts="[C:1]([C:2]1([O:3][H:11])[C:4]([H:12])([H:13])[C:5]([H:14])([H:15])[C:6]([H:16])([H:17])[C:7]1([H:18])[H:19])([H:8])([H:9])[H:10]>>[C:1]([C:2][C:7]([C:6]([C:5]([C:4]([O:3][H:11])([H:12])[H:13])([H:14])[H:15])([H:16])[H:17])([H:18])[H:19])([H:8])([H:9])[H:10]"
C        1.93547920      -1.16623182      -0.60609468
C        0.72334556      -0.36639533      -0.27850410
O        1.02458055       0.43341323       1.14854420
C        0.05979849       1.49745877       0.02473978
C       -1.35691547       1.17932054       0.46106574
C       -1.74846298      -0.18838187      -0.09938684
C       -0.54257956      -1.13319444      -0.03271075
H        2.83547009      -0.55375235      -0.70477634
H        1.76642035      -1.61630737      -1.58959326
H        2.10180987      -1.95228086       0.14164053
H        1.89692052       0.82257249       1.05300303
H        0.41991259       2.43551966       0.45915774
H        0.10124334       1.70422024      -1.04787838
H       -1.40665895       1.16092988       1.55240299
H       -2.04447634       1.96152400       0.12949269
H       -2.06137061      -0.07303224      -1.14069261
H       -2.60212350      -0.59510215       0.44650926
H       -0.62312945      -1.87386769      -0.83557238
H       -0.47926370      -1.67641268       0.91865336
19
Frame=14 idx=008678 GeodesicLength=0.46809950531240746 rxn_smarts="[C:1]([C:2]1([O:3][H:11])[C:4]([H:12])([H:13])[C:5]([H:14])([H:15])[C:6]([H:16])([H:17])[C:7]1([H:18])[H:19])([H:8])([H:9])[H:10]>>[C:1]([C:2][C:7]([C:6]([C:5]([C:4]([O:3][H:11])([H:12])[H:13])([H:14])[H:15])([H:16])[H:17])([H:18])[H:19])([H:8])([H:9])[H:10]"
C        1.93664594      -1.16200291      -0.60466583
C        0.72265957      -0.36849845      -0.27170465
O        1.02093005       0.43360136       1.16118123
C        0.06578260       1.48625236       0.01916508
C       -1.35430266       1.18137697       0.45930949
C       -1.74999585      -0.18854604      -0.09412956
C       -0.54487197      -1.13512096      -0.03353015
H        2.83642913      -0.54729028      -0.68929470
H        1.77124170      -1.59300219      -1.59748067
H        2.09730353      -1.96004313       0.13052753
H        1.89330867       0.82328890       1.06970834
H        0.42672703       2.43255493       0.43541827
H        0.09805781       1.68995845      -1.05550894
H       -1.40370530       1.16765951       1.55079760
H       -2.04016223       1.96386513       0.12577349
H       -2.07211521      -0.07588210      -1.13293065
H       -2.59889934      -0.59407560       0.45977167
H       -0.62460741      -1.86712885      -0.84460863
H       -0.48042606      -1.68696710       0.91220106
19
Frame=15 idx=008678 GeodesicLength=0.5021234914012909 rxn_smarts="[C:1]([C:2]1([O:3][H:11])[C:4]([H:12])([H:13])[C:5]([H:14])([H:15])[C:6]([H:16])([H:17])[C:7]1([H:18])[H:19])([H:8])([H:9])[H:10]>>[C:1]([C:2][C:7]([C:6]([C:5]([C:4]([O:3][H:11])([H:12])[H:13])([H:14])[H:15])([H:16])[H:17])([H:18])[H:19])([H:8])([H:9])[H:10]"
C        1.93780697      -1.15780625      -0.60321780
C        0.72196724      -0.37067946      -0.26498806
O        1.01723050       0.43392594       1.17365784
C        0.07172090       1.47502221       0.01370681
C       -1.35166317       1.18342797       0.45751159
C       -1.75149894      -0.18869243      -0.08885670
C       -0.54717016      -1.13704245      -0.03439396
H        2.83733217      -0.54110376      -0.67370244
H        1.77612014      -1.56952086      -1.60498311
H        2.09281693      -1.96765978       0.11916979
H        1.88958120       0.82422476       1.08614681
H        0.43356527       2.42913748       0.41177388
H        0.09488143       1.67561770      -1.06295389
H       -1.40076976       1.17441392       1.54913054
H       -2.03583155       1.96617382       0.12198613
H       -2.08286319      -0.07868214      -1.12504479
H       -2.59554503      -0.59301472       0.47305584
H       -0.62611515      -1.86026995      -0.85361462
H       -0.48156579      -1.69747200       0.90561613
19
Frame=16 idx=008678 GeodesicLength=0.5361870829499974 rxn_smarts="[C:1]([C:2]1([O:3][H:11])[C:4]([H:12])([H:13])[C:5]([H:14])([H:15])[C:6]([H:16])([H:17])[C:7]1([H:18])[H:19])([H:8])([H:9])[H:10]>>[C:1]([C:2][C:7]([C:6]([C:5]([C:4]([O:3][H:11])([H:12])[H:13])([H:14])[H:15])([H:16])[H:17])([H:18])[H:19])([H:8])([H:9])[H:10]"
C        1.93895570      -1.15364883      -0.60175870
C        0.72126959      -0.37293105      -0.25836012
O        1.01349698       0.43438973       1.18596769
C        0.07760879       1.46377558       0.00837820
C       -1.34900142       1.18546811       0.45567688
C       -1.75296635      -0.18881775      -0.08358758
C       -0.54946921      -1.13895438      -0.03529335
H        2.83816492      -0.53519943      -0.65805968
H        1.78102710      -1.54592500      -1.61207956
H        2.08836576      -1.97510425       0.10758720
H        1.88575321       0.82538156       1.10230012
H        0.44040459       2.42527870       0.38826560
H        0.09171927       1.66122473      -1.07019603
H       -1.39785906       1.18117040       1.54740489
H       -2.03149298       1.96844494       0.11814572
H       -2.09357854      -0.08142137      -1.11706088
H       -2.59207056      -0.59192032       0.48631104
H       -0.62764732      -1.85330853      -0.86255936
H       -0.48268049      -1.70790283       0.89891791
