8
Frame=0 idx=001957 GeodesicLength=0.0 rxn_smarts="[N:1](=[C:2](/[O:3][C:4](=[O:5])[H:8])[H:7])\[H:6]>>[C-:4]#[O+:5].[N:1]([C:2](=[O:3])[H:7])([H:6])[H:8]"
N       -0.77071936      -0.42331373       0.70958542
C       -0.72641184      -0.22734032      -0.56993542
O        0.36659554       0.13459469      -1.12993932
C        1.45602700       0.51866183       0.23374172
O        2.48362747       0.89199073      -0.10477355
H       -1.66595461      -0.63996026       1.11428174
H       -1.60380080      -0.34190991      -1.21942770
H        0.46063660       0.08727694       0.96646708
8
Frame=1 idx=001957 GeodesicLength=0.06675821561581705 rxn_smarts="[N:1](=[C:2](/[O:3][C:4](=[O:5])[H:8])[H:7])\[H:6]>>[C-:4]#[O+:5].[N:1]([C:2](=[O:3])[H:7])([H:6])[H:8]"
N       -0.77868955      -0.42107683       0.71009335
C       -0.73995024      -0.20280590      -0.56658686
O        0.33822630       0.20999329      -1.12101532
C        1.46515385       0.54248662       0.23428488
O        2.51934673       0.82221243      -0.11517389
H       -1.67026878      -0.66739264       1.10702546
H       -1.59118663      -0.40752975      -1.22895403
H        0.45736831       0.12411277       0.98032640
8
Frame=2 idx=001957 GeodesicLength=0.13260893589075803 rxn_smarts="[N:1](=[C:2](/[O:3][C:4](=[O:5])[H:8])[H:7])\[H:6]>>[C-:4]#[O+:5].[N:1]([C:2](=[O:3])[H:7])([H:6])[H:8]"
N       -0.78842196      -0.41346999       0.71205931
C       -0.75312397      -0.18100709      -0.56276550
O        0.30613695       0.29071808      -1.10786208
C        1.47725574       0.55677578       0.23332300
O        2.54660513       0.75208495      -0.12917864
H       -1.67391614      -0.69731510       1.09860055
H       -1.56787898      -0.47250325      -1.23876007
H        0.45334323       0.16471662       0.99458342
8
Frame=3 idx=001957 GeodesicLength=0.19876858689156374 rxn_smarts="[N:1](=[C:2](/[O:3][C:4](=[O:5])[H:8])[H:7])\[H:6]>>[C-:4]#[O+:5].[N:1]([C:2](=[O:3])[H:7])([H:6])[H:8]"
N       -0.80418564      -0.39651125       0.71654082
C       -0.76361558      -0.16549837      -0.55894064
O        0.27162536       0.37359547      -1.08856330
C        1.49055058       0.56620835       0.23178117
O        2.56415098       0.69143436      -0.15014384
H       -1.68272805      -0.71930737       1.08876718
H       -1.53238581      -0.53750168      -1.24909783
H        0.45658817       0.18758050       1.00965644
8
Frame=4 idx=001957 GeodesicLength=0.26562930135034424 rxn_smarts="[N:1](=[C:2](/[O:3][C:4](=[O:5])[H:8])[H:7])\[H:6]>>[C-:4]#[O+:5].[N:1]([C:2](=[O:3])[H:7])([H:6])[H:8]"
N       -0.82336542      -0.37617184       0.72182632
C       -0.77485823      -0.14857464      -0.55472505
O        0.23949516       0.44600239      -1.06697318
C        1.50324958       0.57522311       0.22913158
O        2.57509176       0.63822428      -0.17439804
H       -1.69321883      -0.73936331       1.07823330
H       -1.48955023      -0.59661460      -1.25796852
H        0.46315622       0.20127459       1.02487359
8
Frame=5 idx=001957 GeodesicLength=0.33272399296130617 rxn_smarts="[N:1](=[C:2](/[O:3][C:4](=[O:5])[H:8])[H:7])\[H:6]>>[C-:4]#[O+:5].[N:1]([C:2](=[O:3])[H:7])([H:6])[H:8]"
N       -0.84413842      -0.35534507       0.72712200
C       -0.78722161      -0.13082412      -0.55046883
O        0.20988988       0.50829311      -1.04487663
C        1.51475224       0.58552855       0.22510503
O        2.58109390       0.58775046      -0.19925149
H       -1.70235538      -0.76018116       1.06743341
H       -1.44213705      -0.64805723      -1.26467256
H        0.47011644       0.21283545       1.03960906
8
Frame=6 idx=001957 GeodesicLength=0.4002886501085615 rxn_smarts="[N:1](=[C:2](/[O:3][C:4](=[O:5])[H:8])[H:7])\[H:6]>>[C-:4]#[O+:5].[N:1]([C:2](=[O:3])[H:7])([H:6])[H:8]"
N       -0.86693642      -0.33339329       0.73207897
C       -0.80056195      -0.11225179      -0.54661132
O        0.18206892       0.56455023      -1.02205941
C        1.52594534       0.59460063       0.22050388
O        2.58268669       0.53985564      -0.22567617
H       -1.71048378      -0.78134523       1.05591027
H       -1.38963343      -0.69474921      -1.26827385
H        0.47691462       0.22273301       1.05412764
8
Frame=7 idx=001957 GeodesicLength=0.4681141847277422 rxn_smarts="[N:1](=[C:2](/[O:3][C:4](=[O:5])[H:8])[H:7])\[H:6]>>[C-:4]#[O+:5].[N:1]([C:2](=[O:3])[H:7])([H:6])[H:8]"
N       -0.88703712      -0.31866988       0.73599745
C       -0.81265946      -0.09792101      -0.54332447
O        0.15703951       0.61142958      -1.00035639
C        1.53663830       0.60606876       0.21501745
O        2.58151226       0.49446319      -0.24995654
H       -1.71829336      -0.79994639       1.04487207
H       -1.34018277      -0.73093034      -1.27049091
H        0.48298264       0.23550609       1.06824135
8
Frame=8 idx=001957 GeodesicLength=0.5362354311035081 rxn_smarts="[N:1](=[C:2](/[O:3][C:4](=[O:5])[H:8])[H:7])\[H:6]>>[C-:4]#[O+:5].[N:1]([C:2](=[O:3])[H:7])([H:6])[H:8]"
N       -0.90917067      -0.30224611       0.73948167
C       -0.82491674      -0.08409114      -0.54074390
O        0.13366801       0.65377891      -0.97876659
C        1.54751083       0.61586628       0.20902650
O        2.57778752       0.45205359      -0.27448708
H       -1.72494913      -0.81904963       1.03325651
H       -1.28904667      -0.76326382      -1.26995551
H        0.48911684       0.24695192       1.08218840
8
Frame=9 idx=001957 GeodesicLength=0.6046186134304882 rxn_smarts="[N:1](=[C:2](/[O:3][C:4](=[O:5])[H:8])[H:7])\[H:6]>>[C-:4]#[O+:5].[N:1]([C:2](=[O:3])[H:7])([H:6])[H:8]"
N       -0.92942415      -0.29103753       0.74229051
C       -0.83619356      -0.07322902      -0.53847656
O        0.11155105       0.69122523      -0.95745142
C        1.55851512       0.62673856       0.20208415
O        2.57231050       0.41168161      -0.29769777
H       -1.73279142      -0.83531077       1.02188047
H       -1.23949881      -0.78979135      -1.26861141
H        0.49553127       0.25972327       1.09598203
8
Frame=10 idx=001957 GeodesicLength=0.6733712428991404 rxn_smarts="[N:1](=[C:2](/[O:3][C:4](=[O:5])[H:8])[H:7])\[H:6]>>[C-:4]#[O+:5].[N:1]([C:2](=[O:3])[H:7])([H:6])[H:8]"
N       -0.95086126      -0.27929416       0.74457302
C       -0.84742723      -0.06300077      -0.53683058
O        0.09046873       0.72566424      -0.93633458
C        1.56969426       0.63714751       0.19440277
O        2.56494365       0.37247199      -0.32037316
H       -1.73956861      -0.85218367       1.01004353
H       -1.18936264      -0.81318104      -1.26509109
H        0.50211309       0.27237590       1.10961011
8
Frame=11 idx=001957 GeodesicLength=0.7423534045016497 rxn_smarts="[N:1](=[C:2](/[O:3][C:4](=[O:5])[H:8])[H:7])\[H:6]>>[C-:4]#[O+:5].[N:1]([C:2](=[O:3])[H:7])([H:6])[H:8]"
N       -0.97174154      -0.27014968       0.74639849
C       -0.85789584      -0.05478664      -0.53546901
O        0.07031363       0.75678210      -0.91524090
C        1.58126324       0.64745122       0.18584799
O        2.55647660       0.33527575      -0.34223752
H       -1.74729581      -0.86752019       0.99808564
H       -1.14029257      -0.83282020      -1.26063295
H        0.50917229       0.28576763       1.12324827
8
Frame=12 idx=001957 GeodesicLength=0.8117180863922381 rxn_smarts="[N:1](=[C:2](/[O:3][C:4](=[O:5])[H:8])[H:7])\[H:6]>>[C-:4]#[O+:5].[N:1]([C:2](=[O:3])[H:7])([H:6])[H:8]"
N       -0.99352904      -0.26094828       0.74764125
C       -0.86827526      -0.04712890      -0.53466027
O        0.05082934       0.78577395      -0.89424332
C        1.59302995       0.65767631       0.17637006
O        2.54650307       0.29869064      -0.36327993
H       -1.75423904      -0.88327291       0.98570257
H       -1.09095631      -0.84995521      -1.25423647
H        0.51663728       0.29916440       1.13670611
8
Frame=13 idx=001957 GeodesicLength=0.8812589361914253 rxn_smarts="[N:1](=[C:2](/[O:3][C:4](=[O:5])[H:8])[H:7])\[H:6]>>[C-:4]#[O+:5].[N:1]([C:2](=[O:3])[H:7])([H:6])[H:8]"
N       -1.01530345      -0.25341088       0.74846063
C       -0.87796859      -0.04105362      -0.53409971
O        0.03215557       0.81212467      -0.87314190
C        1.60525311       0.66738995       0.16605905
O        2.53593759       0.26413525      -0.38372287
H       -1.76209982      -0.89796223       0.97304731
H       -1.04266967      -0.86430042      -1.24686144
H        0.52469527       0.31307729       1.15025893
8
Frame=14 idx=001957 GeodesicLength=0.9512389731331916 rxn_smarts="[N:1](=[C:2](/[O:3][C:4](=[O:5])[H:8])[H:7])\[H:6]>>[C-:4]#[O+:5].[N:1]([C:2](=[O:3])[H:7])([H:6])[H:8]"
N       -1.03782779      -0.24615103       0.74868848
C       -0.88755678      -0.03547643      -0.53400329
O        0.01386728       0.83691756      -0.85198064
C        1.61768530       0.67736250       0.15456770
O        2.52412323       0.22979715      -0.40309308
H       -1.76947966      -0.91294704       0.95994145
H       -0.99425096      -0.87653465      -1.23770470
H        0.53343938       0.32703194       1.16358408
8
Frame=15 idx=001957 GeodesicLength=1.0213337696274305 rxn_smarts="[N:1](=[C:2](/[O:3][C:4](=[O:5])[H:8])[H:7])\[H:6]>>[C-:4]#[O+:5].[N:1]([C:2](=[O:3])[H:7])([H:6])[H:8]"
N       -1.06030891      -0.24049859       0.74847321
C       -0.89639116      -0.03126973      -0.53409288
O       -0.00356249       0.85935120      -0.83075919
C        1.63065101       0.68705954       0.14223385
O        2.51203796       0.19709620      -0.42161375
H       -1.77766686      -0.92731730       0.94647834
H       -0.94765631      -0.88635048      -1.22781016
H        0.54289676       0.34192916       1.17709058
8
Frame=16 idx=001957 GeodesicLength=1.09174459069303 rxn_smarts="[N:1](=[C:2](/[O:3][C:4](=[O:5])[H:8])[H:7])\[H:6]>>[C-:4]#[O+:5].[N:1]([C:2](=[O:3])[H:7])([H:6])[H:8]"
N       -1.08363543      -0.23508215       0.74760480
C       -0.90507684      -0.02750970      -0.53459856
O       -0.02054665       0.88029918      -0.80945157
C        1.64389236       0.69701700       0.12867080
O        2.49917073       0.16495739      -0.43891141
H       -1.78556278      -0.94189434       0.93254830
H       -0.90152717      -0.89440506      -1.21622279
H        0.55328578       0.35661768       1.19036045
