13
Frame=0 idx=010378 GeodesicLength=0.0 rxn_smarts="[N:1]#[C:2][C@@:3]1([H:8])[C:4]([H:9])([H:10])[C@@:5]2([H:11])[C:6]([H:12])([H:13])[N:7]12>>[N:1]#[C:2][C@@:3]1([H:8])[C:4]([H:9])([H:10])[C@:5]1([N:7]=[C:6]([H:12])[H:13])[H:11]"
N        2.60330451      -0.67823698       1.44024763
C        1.73295185      -0.08707210       0.97982940
C        0.76714668       0.73533484       0.30853414
C        0.42631359       0.46611297      -1.08736859
C       -0.77558723       0.31270939      -0.16920523
C       -1.27633947      -1.06405177       0.19862014
N       -0.71140958      -0.47135892       1.30305662
H        0.73385996       1.75881207       0.65796448
H        0.83076150      -0.43421921      -1.52930951
H        0.34349944       1.31345311      -1.75464438
H       -1.48419888       1.12803759      -0.16383089
H       -0.82000029      -1.93483837      -0.29160576
H       -2.37030203      -1.04468256       0.10771200
13
Frame=1 idx=010378 GeodesicLength=0.07498082885816117 rxn_smarts="[N:1]#[C:2][C@@:3]1([H:8])[C:4]([H:9])([H:10])[C@@:5]2([H:11])[C:6]([H:12])([H:13])[N:7]12>>[N:1]#[C:2][C@@:3]1([H:8])[C:4]([H:9])([H:10])[C@:5]1([N:7]=[C:6]([H:12])[H:13])[H:11]"
N        2.61395137      -0.67729907       1.43542862
C        1.74048089      -0.08856302       0.97793780
C        0.76640042       0.73403447       0.31683746
C        0.42684451       0.47077060      -1.08420185
C       -0.77959698       0.31712201      -0.17499318
C       -1.28589983      -1.07315968       0.19805714
N       -0.70993547      -0.45935598       1.28288026
H        0.74436928       1.75869760       0.66451096
H        0.83226038      -0.42693380      -1.53092403
H        0.35522443       1.32289631      -1.74696621
H       -1.49660336       1.12548204      -0.17858390
H       -0.82777740      -1.95201890      -0.27408638
H       -2.37971822      -1.05167257       0.11410330
13
Frame=2 idx=010378 GeodesicLength=0.14993740379188594 rxn_smarts="[N:1]#[C:2][C@@:3]1([H:8])[C:4]([H:9])([H:10])[C@@:5]2([H:11])[C:6]([H:12])([H:13])[N:7]12>>[N:1]#[C:2][C@@:3]1([H:8])[C:4]([H:9])([H:10])[C@:5]1([N:7]=[C:6]([H:12])[H:13])[H:11]"
N        2.62442435      -0.67639331       1.43055826
C        1.74787152      -0.09005475       0.97601597
C        0.76568092       0.73275298       0.32508330
C        0.42748325       0.47564390      -1.08113951
C       -0.78351721       0.32170823      -0.18103947
C       -1.29538760      -1.08229964       0.19764544
N       -0.70850696      -0.44788232       1.26236019
H        0.75487336       1.75843539       0.67115266
H        0.83386662      -0.41938420      -1.53267686
H        0.36701333       1.33250384      -1.73920054
H       -1.50900499       1.12276324      -0.19362492
H       -0.83576935      -1.96922564      -0.25587332
H       -2.38902725      -1.05856772       0.12073880
13
Frame=3 idx=010378 GeodesicLength=0.22485352344947007 rxn_smarts="[N:1]#[C:2][C@@:3]1([H:8])[C:4]([H:9])([H:10])[C@@:5]2([H:11])[C:6]([H:12])([H:13])[N:7]12>>[N:1]#[C:2][C@@:3]1([H:8])[C:4]([H:9])([H:10])[C@:5]1([N:7]=[C:6]([H:12])[H:13])[H:11]"
N        2.63467366      -0.67555857       1.42567817
C        1.75513898      -0.09154170       0.97403917
C        0.76498956       0.73148770       0.33325982
C        0.42822937       0.48074231      -1.07819205
C       -0.78734186       0.32646696      -0.18735097
C       -1.30479178      -1.09147708       0.19738790
N       -0.70709857      -0.43693591       1.24148467
H        0.76535226       1.75802085       0.67789577
H        0.83558096      -0.41155441      -1.53458609
H        0.37884444       1.34228575      -1.73135370
H       -1.52139512       1.11986841      -0.20894485
H       -0.84396775      -1.98643778      -0.23694178
H       -2.39821417      -1.06536653       0.12762394
13
Frame=4 idx=010378 GeodesicLength=0.2997071562538814 rxn_smarts="[N:1]#[C:2][C@@:3]1([H:8])[C:4]([H:9])([H:10])[C@@:5]2([H:11])[C:6]([H:12])([H:13])[N:7]12>>[N:1]#[C:2][C@@:3]1([H:8])[C:4]([H:9])([H:10])[C@:5]1([N:7]=[C:6]([H:12])[H:13])[H:11]"
N        2.64467138      -0.67484364       1.42085556
C        1.76230873      -0.09302725       0.97199327
C        0.76432669       0.73023724       0.34136223
C        0.42908101       0.48607527      -1.07538348
C       -0.79106612       0.33139928      -0.19393823
C       -1.31410260      -1.10069781       0.19728888
N       -0.70567210      -0.42652565       1.22025433
H        0.77576994       1.75746214       0.68475372
H        0.83741156      -0.40343869      -1.53668973
H        0.39068207       1.35226346      -1.72345616
H       -1.53376790       1.11679035      -0.22453302
H       -0.85237527      -2.00363115      -0.21726963
H       -2.40726740      -1.07206356       0.13476225
13
Frame=5 idx=010378 GeodesicLength=0.3745536760141135 rxn_smarts="[N:1]#[C:2][C@@:3]1([H:8])[C:4]([H:9])([H:10])[C@@:5]2([H:11])[C:6]([H:12])([H:13])[N:7]12>>[N:1]#[C:2][C@@:3]1([H:8])[C:4]([H:9])([H:10])[C@:5]1([N:7]=[C:6]([H:12])[H:13])[H:11]"
N        2.65436606      -0.67423579       1.41605630
C        1.76936523      -0.09449723       0.96984915
C        0.76368799       0.72899276       0.34937173
C        0.43003627       0.49165134      -1.07267299
C       -0.79468997       0.33650981      -0.20077779
C       -1.32330699      -1.10999147       0.19735655
N       -0.70424518      -0.41658985       1.19863590
H        0.78615132       1.75670938       0.69169530
H        0.83934746      -0.39499758      -1.53893296
H        0.40254313       1.36240552      -1.71545533
H       -1.54611460       1.11352530      -0.24040208
H       -0.86097055      -2.02082423      -0.19690296
H       -2.41617016      -1.07865797       0.14217918
13
Frame=6 idx=010378 GeodesicLength=0.44931163425532705 rxn_smarts="[N:1]#[C:2][C@@:3]1([H:8])[C:4]([H:9])([H:10])[C@@:5]2([H:11])[C:6]([H:12])([H:13])[N:7]12>>[N:1]#[C:2][C@@:3]1([H:8])[C:4]([H:9])([H:10])[C@:5]1([N:7]=[C:6]([H:12])[H:13])[H:11]"
N        2.66379642      -0.67377749       1.41130660
C        1.77632908      -0.09598170       0.96760651
C        0.76306725       0.72773618       0.35730169
C        0.43110445       0.49747938      -1.07011447
C       -0.79821007       0.34179006      -0.20792371
C       -1.33241871      -1.11932569       0.19758178
N       -0.70279043      -0.40719622       1.17661833
H        0.79642597       1.75578690       0.69879513
H        0.84140375      -0.38623828      -1.54140099
H        0.41441578       1.37278355      -1.70738692
H       -1.55843476       1.11004478      -0.25655475
H       -0.86975859      -2.03795982      -0.17566156
H       -2.42493015      -1.08514164       0.14983235
13
Frame=7 idx=010378 GeodesicLength=0.523957101066038 rxn_smarts="[N:1]#[C:2][C@@:3]1([H:8])[C:4]([H:9])([H:10])[C@@:5]2([H:11])[C:6]([H:12])([H:13])[N:7]12>>[N:1]#[C:2][C@@:3]1([H:8])[C:4]([H:9])([H:10])[C@:5]1([N:7]=[C:6]([H:12])[H:13])[H:11]"
N        2.67292429      -0.67352925       1.40665120
C        1.78321004      -0.09748865       0.96525566
C        0.76245612       0.72646606       0.36515016
C        0.43228517       0.50357237      -1.06773235
C       -0.80162221       0.34723833      -0.21538360
C       -1.34142258      -1.12872107       0.19798127
N       -0.70129049      -0.39834481       1.15421217
H        0.80656673       1.75471130       0.70606402
H        0.84359069      -0.37715291      -1.54413532
H        0.42628431       1.38342948      -1.69928077
H       -1.57072787       1.10634395      -0.27299365
H       -0.87872579      -2.05500766      -0.15353099
H       -2.43352843      -1.09151712       0.15774221
13
Frame=8 idx=010378 GeodesicLength=0.598684884903218 rxn_smarts="[N:1]#[C:2][C@@:3]1([H:8])[C:4]([H:9])([H:10])[C@@:5]2([H:11])[C:6]([H:12])([H:13])[N:7]12>>[N:1]#[C:2][C@@:3]1([H:8])[C:4]([H:9])([H:10])[C@:5]1([N:7]=[C:6]([H:12])[H:13])[H:11]"
N        2.68167513      -0.67347210       1.40205065
C        1.79001596      -0.09897208       0.96272947
C        0.76186290       0.72517208       0.37287667
C        0.43356861       0.50995262      -1.06542882
C       -0.80493061       0.35288599      -0.22310754
C       -1.35030140      -1.13821252       0.19854001
N       -0.69973978      -0.38991281       1.13131626
H        0.81661559       1.75335872       0.71342888
H        0.84588338      -0.36764985      -1.54700831
H        0.43814539       1.39426786      -1.69100947
H       -1.58298482       1.10242029      -0.28976655
H       -0.88786128      -2.07206362      -0.13054983
H       -2.44194906      -1.09777458       0.16592858
13
Frame=9 idx=010378 GeodesicLength=0.6733441946015911 rxn_smarts="[N:1]#[C:2][C@@:3]1([H:8])[C:4]([H:9])([H:10])[C@@:5]2([H:11])[C:6]([H:12])([H:13])[N:7]12>>[N:1]#[C:2][C@@:3]1([H:8])[C:4]([H:9])([H:10])[C@:5]1([N:7]=[C:6]([H:12])[H:13])[H:11]"
N        2.69006652      -0.67368860       1.39760596
C        1.79676808      -0.10047326       0.96005270
C        0.76127395       0.72384864       0.38050317
C        0.43496424       0.51662459      -1.06330476
C       -0.80812598       0.35871313      -0.23115266
C       -1.35905675      -1.14779759       0.19928936
N       -0.69810661      -0.38199919       1.10798448
H        0.82649499       1.75182654       0.72096739
H        0.84831361      -0.35777147      -1.55016827
H        0.44997787       1.40540171      -1.68268602
H       -1.59520975       1.09826871      -0.30685133
H       -0.89717790      -2.08903434      -0.10665070
H       -2.45018227      -1.10391887       0.17441068
13
Frame=10 idx=010378 GeodesicLength=0.7477824241046851 rxn_smarts="[N:1]#[C:2][C@@:3]1([H:8])[C:4]([H:9])([H:10])[C@@:5]2([H:11])[C:6]([H:12])([H:13])[N:7]12>>[N:1]#[C:2][C@@:3]1([H:8])[C:4]([H:9])([H:10])[C@:5]1([N:7]=[C:6]([H:12])[H:13])[H:11]"
N        2.69810723      -0.67408073       1.39335047
C        1.80347638      -0.10196132       0.95721339
C        0.76068716       0.72246128       0.38802473
C        0.43647434       0.52355267      -1.06133767
C       -0.81119540       0.36463635      -0.23951009
C       -1.36768682      -1.15746337       0.20030521
N       -0.69634785      -0.37461526       1.08423170
H        0.83618183       1.75006453       0.72865300
H        0.85090522      -0.34751850      -1.55357587
H        0.46177128       1.41677832      -1.67428522
H       -1.60736009       1.09374069      -0.32424102
H       -0.90678092      -2.10568961      -0.08208391
H       -2.45823235      -1.10990506       0.18325530
13
Frame=11 idx=010378 GeodesicLength=0.8222009986282043 rxn_smarts="[N:1]#[C:2][C@@:3]1([H:8])[C:4]([H:9])([H:10])[C@@:5]2([H:11])[C:6]([H:12])([H:13])[N:7]12>>[N:1]#[C:2][C@@:3]1([H:8])[C:4]([H:9])([H:10])[C@:5]1([N:7]=[C:6]([H:12])[H:13])[H:11]"
N        2.70578999      -0.67477681       1.38914757
C        1.81011236      -0.10349627       0.95418252
C        0.76007667       0.72099470       0.39544321
C        0.43810832       0.53080631      -1.05953098
C       -0.81415062       0.37074683      -0.24821915
C       -1.37619861      -1.16722043       0.20149465
N       -0.69452963      -0.36773532       1.05993820
H        0.84565302       1.74804867       0.73656490
H        0.85364256      -0.33681419      -1.55727437
H        0.47357183       1.42849913      -1.66574598
H       -1.61948085       1.08893547      -0.34202497
H       -0.91651620      -2.12223000      -0.05633929
H       -2.46607884      -1.11575808       0.19236370
13
Frame=12 idx=010378 GeodesicLength=0.8965875089138683 rxn_smarts="[N:1]#[C:2][C@@:3]1([H:8])[C:4]([H:9])([H:10])[C@@:5]2([H:11])[C:6]([H:12])([H:13])[N:7]12>>[N:1]#[C:2][C@@:3]1([H:8])[C:4]([H:9])([H:10])[C@:5]1([N:7]=[C:6]([H:12])[H:13])[H:11]"
N        2.71319615      -0.67574835       1.38489183
C        1.81665525      -0.10510523       0.95098681
C        0.75942235       0.71941817       0.40277498
C        0.43987559       0.53840120      -1.05787477
C       -0.81700364       0.37703090      -0.25730663
C       -1.38459609      -1.17707847       0.20287578
N       -0.69267325      -0.36135097       1.03508393
H        0.85487809       1.74573382       0.74474533
H        0.85655411      -0.32562412      -1.56125811
H        0.48541748       1.44059621      -1.65702751
H       -1.63156414       1.08380632      -0.36029204
H       -0.92641690      -2.13861308      -0.02933345
H       -2.47374500      -1.12146639       0.20173384
13
Frame=13 idx=010378 GeodesicLength=0.970939794082501 rxn_smarts="[N:1]#[C:2][C@@:3]1([H:8])[C:4]([H:9])([H:10])[C@@:5]2([H:11])[C:6]([H:12])([H:13])[N:7]12>>[N:1]#[C:2][C@@:3]1([H:8])[C:4]([H:9])([H:10])[C@:5]1([N:7]=[C:6]([H:12])[H:13])[H:11]"
N        2.72040494      -0.67694607       1.38052138
C        1.82309919      -0.10681966       0.94762654
C        0.75870709       0.71769181       0.41003338
C        0.44179238       0.54634741      -1.05636436
C       -0.81974386       0.38346962      -0.26679593
C       -1.39290397      -1.18703666       0.20445860
N       -0.69078048      -0.35547695       1.00963132
H        0.86380922       1.74307837       0.75324576
H        0.85967049      -0.31391615      -1.56554386
H        0.49733193       1.45310117      -1.64808492
H       -1.64360163       1.07829053      -0.37911781
H       -0.93654414      -2.15477452      -0.00098912
H       -2.48124114      -1.12700891       0.21137900
13
Frame=14 idx=010378 GeodesicLength=1.0452736830931073 rxn_smarts="[N:1]#[C:2][C@@:3]1([H:8])[C:4]([H:9])([H:10])[C@@:5]2([H:11])[C:6]([H:12])([H:13])[N:7]12>>[N:1]#[C:2][C@@:3]1([H:8])[C:4]([H:9])([H:10])[C@:5]1([N:7]=[C:6]([H:12])[H:13])[H:11]"
N        2.72742523      -0.67837243       1.37596157
C        1.82942221      -0.10866486       0.94408390
C        0.75790935       0.71578192       0.41721701
C        0.44387438       0.55467781      -1.05499298
C       -0.82235926       0.39005696      -0.27671353
C       -1.40112296      -1.19711003       0.20624596
N       -0.68885315      -0.35012626       0.98352476
H        0.87240703       1.74003600       0.76210043
H        0.86301898      -0.30162649      -1.57014131
H        0.50934210       1.46607123      -1.63886105
H       -1.65557500       1.07233319      -0.39858711
H       -0.94693258      -2.17068377       0.02885379
H       -2.48855634      -1.13237327       0.22130856
13
Frame=15 idx=010378 GeodesicLength=1.1195509445656373 rxn_smarts="[N:1]#[C:2][C@@:3]1([H:8])[C:4]([H:9])([H:10])[C@@:5]2([H:11])[C:6]([H:12])([H:13])[N:7]12>>[N:1]#[C:2][C@@:3]1([H:8])[C:4]([H:9])([H:10])[C@:5]1([N:7]=[C:6]([H:12])[H:13])[H:11]"
N        2.73424710      -0.68007373       1.37123623
C        1.83564512      -0.11064148       0.94035145
C        0.75701317       0.71365988       0.42432460
C        0.44611229       0.56339194      -1.05376721
C       -0.82485859       0.39677769      -0.28707460
C       -1.40923622      -1.20730017       0.20826512
N       -0.68687073      -0.34531216       0.95673297
H        0.88063705       1.73658502       0.77132951
H        0.86661018      -0.28873993      -1.57506875
H        0.52140959       1.47950887      -1.62934272
H       -1.66748696       1.06589337      -0.41872274
H       -0.95755012      -2.18621857       0.06020502
H       -2.49567188      -1.13753073       0.23153113
13
Frame=16 idx=010378 GeodesicLength=1.1938121568489688 rxn_smarts="[N:1]#[C:2][C@@:3]1([H:8])[C:4]([H:9])([H:10])[C@@:5]2([H:11])[C:6]([H:12])([H:13])[N:7]12>>[N:1]#[C:2][C@@:3]1([H:8])[C:4]([H:9])([H:10])[C@:5]1([N:7]=[C:6]([H:12])[H:13])[H:11]"
N        2.74091437      -0.68204014       1.36625566
C        1.84175558      -0.11278236       0.93640949
C        0.75599925       0.71128596       0.43135822
C        0.44852818       0.57253506      -1.05268236
C       -0.82723077       0.40362971      -0.29791238
C       -1.41725788      -1.21762754       0.21050778
N       -0.68483368      -0.34106638       0.92917993
H        0.88844993       1.73266968       0.78099409
H        0.87048415      -0.27517560      -1.58035180
H        0.53356542       1.49348765      -1.61946415
H       -1.67931609       1.05891316      -0.43963377
H       -0.96846263      -2.20135583       0.09329157
H       -2.50259584      -1.14247338       0.24204773
