15
Frame=0 idx=009114 GeodesicLength=0.0 rxn_smarts="[C:1]1([H:8])([H:9])[C@:2]2([H:10])[O:3][C:4]([H:11])([H:12])[C:5]([H:13])([H:14])[O:6][C@:7]12[H:15]>>[C:1]([C@@:7]1([H:15])[C-:2]=[O+:3][C:4]([H:11])([H:12])[C:5]([H:13])([H:14])[O:6]1)([H:8])([H:9])[H:10]"
C       -1.67153650      -0.03076998       0.80153885
C       -0.97689325      -0.18138033      -0.95121931
O       -0.13525718       0.82662605      -1.27544472
C        1.09597893       0.99514900      -0.56997986
C        1.58647053      -0.32467205      -0.03839259
O        0.63607324      -0.84505340       0.86637280
C       -0.63783614      -0.98346969       0.29621164
H       -1.29977661       0.79348429       1.39587783
H       -2.64529465      -0.42581152       1.06704838
H       -2.04832378       0.30169090      -0.46669984
H        0.94662890       1.70169354       0.25374379
H        1.79565919       1.42907305      -1.28516941
H        1.76471602      -1.02534159      -0.86485283
H        2.51511342      -0.19949667       0.51853559
H       -0.92572208      -2.03172159       0.25242974
15
Frame=1 idx=009114 GeodesicLength=0.0493669884216575 rxn_smarts="[C:1]1([H:8])([H:9])[C@:2]2([H:10])[O:3][C:4]([H:11])([H:12])[C:5]([H:13])([H:14])[O:6][C@:7]12[H:15]>>[C:1]([C@@:7]1([H:15])[C-:2]=[O+:3][C:4]([H:11])([H:12])[C:5]([H:13])([H:14])[O:6]1)([H:8])([H:9])[H:10]"
C       -1.67734118      -0.03168239       0.80129568
C       -0.97633884      -0.16951126      -0.94791160
O       -0.12930150       0.83043528      -1.27853909
C        1.10312762       0.99484354      -0.57297684
C        1.58705447      -0.32503077      -0.03514565
O        0.63289698      -0.83804780       0.86972094
C       -0.63801479      -0.97806622       0.29324363
H       -1.30914156       0.79519332       1.39467360
H       -2.63850036      -0.44292287       1.08717941
H       -2.07346984       0.29470328      -0.46873799
H        0.95675926       1.70576153       0.24740353
H        1.80515377       1.42218384      -1.28979990
H        1.76407885      -1.02959774      -0.85862732
H        2.51549324      -0.20138137       0.52252844
H       -0.92245613      -2.02688035       0.23569317
15
Frame=2 idx=009114 GeodesicLength=0.09873433892635591 rxn_smarts="[C:1]1([H:8])([H:9])[C@:2]2([H:10])[O:3][C:4]([H:11])([H:12])[C:5]([H:13])([H:14])[O:6][C@:7]12[H:15]>>[C:1]([C@@:7]1([H:15])[C-:2]=[O+:3][C:4]([H:11])([H:12])[C:5]([H:13])([H:14])[O:6]1)([H:8])([H:9])[H:10]"
C       -1.68332471      -0.03264193       0.80102358
C       -0.97588841      -0.15717344      -0.94445089
O       -0.12318981       0.83430938      -1.28169651
C        1.11038535       0.99453118      -0.57595671
C        1.58759071      -0.32539483      -0.03187604
O        0.62961906      -0.83095705       0.87301984
C       -0.63825351      -0.97251141       0.29019292
H       -1.31873904       0.79689923       1.39339457
H       -2.63105551      -0.45983433       1.10751428
H       -2.09896008       0.28667872      -0.47079002
H        0.96706801       1.70980852       0.24105646
H        1.81478536       1.41520319      -1.29436823
H        1.76332828      -1.03384510      -0.85237553
H        2.51581752      -0.20336412       0.52657747
H       -0.91918322      -2.02170801       0.21873479
15
Frame=3 idx=009114 GeodesicLength=0.14805862502214878 rxn_smarts="[C:1]1([H:8])([H:9])[C@:2]2([H:10])[O:3][C:4]([H:11])([H:12])[C:5]([H:13])([H:14])[O:6][C@:7]12[H:15]>>[C:1]([C@@:7]1([H:15])[C-:2]=[O+:3][C:4]([H:11])([H:12])[C:5]([H:13])([H:14])[O:6]1)([H:8])([H:9])[H:10]"
C       -1.68946776      -0.03364178       0.80072469
C       -0.97553165      -0.14435854      -0.94082172
O       -0.11691651       0.83820825      -1.28492346
C        1.11773084       0.99419641      -0.57890913
C        1.58805892      -0.32576245      -0.02858924
O        0.62623669      -0.82377797       0.87625668
C       -0.63854497      -0.96679115       0.28705513
H       -1.32854989       0.79859497       1.39205602
H       -2.62292650      -0.47650219       1.12800438
H       -2.12472641       0.27759289      -0.47284751
H        0.97751876       1.71380691       0.23471909
H        1.82452106       1.40812449      -1.29884964
H        1.76244170      -1.03807461      -0.84610875
H        2.51605457      -0.20543881       0.53067504
H       -0.91589884      -2.01617642       0.20155842
15
Frame=4 idx=009114 GeodesicLength=0.19736935297129288 rxn_smarts="[C:1]1([H:8])([H:9])[C@:2]2([H:10])[O:3][C:4]([H:11])([H:12])[C:5]([H:13])([H:14])[O:6][C@:7]12[H:15]>>[C:1]([C@@:7]1([H:15])[C-:2]=[O+:3][C:4]([H:11])([H:12])[C:5]([H:13])([H:14])[O:6]1)([H:8])([H:9])[H:10]"
C       -1.69579240      -0.03469784       0.80041416
C       -0.97528888      -0.13104319      -0.93700479
O       -0.11048330       0.84213683      -1.28823244
C        1.12517590       0.99384999      -0.58184516
C        1.58847605      -0.32613697      -0.02528643
O        0.62275685      -0.81652481       0.87943648
C       -0.63889970      -0.96091032       0.28383747
H       -1.33859443       0.80026202       1.39068022
H       -2.61414909      -0.49289984       1.14862932
H       -2.15074690       0.26741999      -0.47490473
H        0.98812063       1.71777013       0.22837832
H        1.83437997       1.40096563      -1.30326101
H        1.76143653      -1.04229173      -0.83982752
H        2.51623311      -0.20761016       0.53481950
H       -0.91262435      -2.01028974       0.18416659
15
Frame=5 idx=009114 GeodesicLength=0.2466545415860546 rxn_smarts="[C:1]1([H:8])([H:9])[C@:2]2([H:10])[O:3][C:4]([H:11])([H:12])[C:5]([H:13])([H:14])[O:6][C@:7]12[H:15]>>[C:1]([C@@:7]1([H:15])[C-:2]=[O+:3][C:4]([H:11])([H:12])[C:5]([H:13])([H:14])[O:6]1)([H:8])([H:9])[H:10]"
C       -1.70229828      -0.03581742       0.80010066
C       -0.97516113      -0.11720550      -0.93297752
O       -0.10389123       0.84607820      -1.29162309
C        1.13271509       0.99348471      -0.58476716
C        1.58883279      -0.32651670      -0.02196796
O        0.61917637      -0.80919013       0.88255779
C       -0.63931672      -0.95485746       0.28053915
H       -1.34887908       0.80188419       1.38929041
H       -2.60471624      -0.50900814       1.16935172
H       -2.17696550       0.25614125      -0.47695204
H        0.99887087       1.72169280       0.22202974
H        1.84435060       1.39371194      -1.30760670
H        1.76030020      -1.04649646      -0.83353097
H        2.51633972      -0.20987455       0.53900955
H       -0.90935743      -2.00402671       0.16654643
15
Frame=6 idx=009114 GeodesicLength=0.29591338484870927 rxn_smarts="[C:1]1([H:8])([H:9])[C@:2]2([H:10])[O:3][C:4]([H:11])([H:12])[C:5]([H:13])([H:14])[O:6][C@:7]12[H:15]>>[C:1]([C@@:7]1([H:15])[C-:2]=[O+:3][C:4]([H:11])([H:12])[C:5]([H:13])([H:14])[O:6]1)([H:8])([H:9])[H:10]"
C       -1.70899041      -0.03701033       0.79979481
C       -0.97515253      -0.10282413      -0.92871631
O       -0.09714418       0.85001808      -1.29509765
C        1.14034566       0.99309643      -0.58768102
C        1.58912595      -0.32690085      -0.01863402
O        0.61549497      -0.80177158       0.88562136
C       -0.63979748      -0.94862504       0.27716235
H       -1.35941429       0.80344177       1.38791396
H       -2.59463519      -0.52481058       1.19013287
H       -2.20332612       0.24374900      -0.47898042
H        1.00976894       1.72557368       0.21566455
H        1.85442611       1.38635424      -1.31189687
H        1.75902782      -1.05069054      -0.82721734
H        2.51637056      -0.21222862       0.54324432
H       -0.90609983      -1.99737154       0.14868942
15
Frame=7 idx=009114 GeodesicLength=0.3451463960125874 rxn_smarts="[C:1]1([H:8])([H:9])[C@:2]2([H:10])[O:3][C:4]([H:11])([H:12])[C:5]([H:13])([H:14])[O:6][C@:7]12[H:15]>>[C:1]([C@@:7]1([H:15])[C-:2]=[O+:3][C:4]([H:11])([H:12])[C:5]([H:13])([H:14])[O:6]1)([H:8])([H:9])[H:10]"
C       -1.71587328      -0.03828795       0.79950702
C       -0.97526637      -0.08787997      -0.92419681
O       -0.09024844       0.85393993      -1.29865805
C        1.14806355       0.99268026      -0.59059362
C        1.58935256      -0.32728806      -0.01528420
O        0.61171287      -0.79426791       0.88862832
C       -0.64034350      -0.94220685       0.27370983
H       -1.37021054       0.80491211       1.38658031
H       -2.58391408      -0.54029159       1.21092974
H       -2.22976752       0.23024714      -0.48097922
H        1.02081339       1.72941155       0.20927218
H        1.86459778       1.37888220      -1.31614372
H        1.75761597      -1.05487559      -0.82088338
H        2.51632146      -0.21466644       0.54752395
H       -0.90285385      -1.99030881       0.13058767
15
Frame=8 idx=009114 GeodesicLength=0.394350882904714 rxn_smarts="[C:1]1([H:8])([H:9])[C@:2]2([H:10])[O:3][C:4]([H:11])([H:12])[C:5]([H:13])([H:14])[O:6][C@:7]12[H:15]>>[C:1]([C@@:7]1([H:15])[C-:2]=[O+:3][C:4]([H:11])([H:12])[C:5]([H:13])([H:14])[O:6]1)([H:8])([H:9])[H:10]"
C       -1.72294891      -0.03966214       0.79924919
C       -0.97550271      -0.07235778      -0.91939166
O       -0.08321366       0.85782556      -1.30230401
C        1.15586313       0.99223093      -0.59351289
C        1.58951060      -0.32767674      -0.01191901
O        0.60783293      -0.78667748       0.89158085
C       -0.64095469      -0.93559724       0.27018795
H       -1.38127542       0.80626827       1.38532614
H       -2.57257786      -0.55543811       1.23168837
H       -2.25622099       0.21565197      -0.48294187
H        1.03200251       1.73320525       0.20284066
H        1.87485298       1.37128532      -1.32036214
H        1.75606152      -1.05905325      -0.81452677
H        2.51619061      -0.21718104       0.55184556
H       -0.89962003      -1.98282351       0.11223964
15
Frame=9 idx=009114 GeodesicLength=0.4435253975336978 rxn_smarts="[C:1]1([H:8])([H:9])[C@:2]2([H:10])[O:3][C:4]([H:11])([H:12])[C:5]([H:13])([H:14])[O:6][C@:7]12[H:15]>>[C:1]([C@@:7]1([H:15])[C-:2]=[O+:3][C:4]([H:11])([H:12])[C:5]([H:13])([H:14])[O:6]1)([H:8])([H:9])[H:10]"
C       -1.73021865      -0.04114564       0.79903231
C       -0.97585978      -0.05624511      -0.91427325
O       -0.07605250       0.86165517      -1.30603402
C        1.16373746       0.99174225      -0.59644763
C        1.58959820      -0.32806469      -0.00853813
O        0.60385845      -0.77899958       0.89448166
C       -0.64163084      -0.92879194       0.26660358
H       -1.39261654       0.80748142       1.38418907
H       -2.56065162      -0.57024020       1.25235197
H       -2.28261512       0.19999245      -0.48486113
H        1.04333443       1.73695345       0.19635636
H        1.88517686       1.36355130      -1.32456925
H        1.75436279      -1.06322501      -0.80814341
H        2.51597568      -0.21976280       0.55620760
H       -0.89639881      -1.97490109       0.09364427
15
Frame=10 idx=009114 GeodesicLength=0.49266877967042544 rxn_smarts="[C:1]1([H:8])([H:9])[C@:2]2([H:10])[O:3][C:4]([H:11])([H:12])[C:5]([H:13])([H:14])[O:6][C@:7]12[H:15]>>[C:1]([C@@:7]1([H:15])[C-:2]=[O+:3][C:4]([H:11])([H:12])[C:5]([H:13])([H:14])[O:6]1)([H:8])([H:9])[H:10]"
C       -1.73768181      -0.04275162       0.79886648
C       -0.97633288      -0.03953367      -0.90881331
O       -0.06878087       0.86540746      -1.30984506
C        1.17167788       0.99120742      -0.59940730
C        1.58961404      -0.32844921      -0.00514081
O        0.59979397      -0.77123470       0.89733391
C       -0.64237110      -0.92178831       0.26296484
H       -1.40423887       0.80852036       1.38320833
H       -2.54816649      -0.58469038       1.27286110
H       -2.30887635       0.18331078      -0.48673198
H        1.05480646       1.74065474       0.18980428
H        1.89555146       1.35566713      -1.32878406
H        1.75251982      -1.06739216      -0.80172813
H        2.51567481      -0.22239970       0.56060899
H       -0.89319007      -1.96652812       0.07480270
15
Frame=11 idx=009114 GeodesicLength=0.5417806199558193 rxn_smarts="[C:1]1([H:8])([H:9])[C@:2]2([H:10])[O:3][C:4]([H:11])([H:12])[C:5]([H:13])([H:14])[O:6][C@:7]12[H:15]>>[C:1]([C@@:7]1([H:15])[C-:2]=[O+:3][C:4]([H:11])([H:12])[C:5]([H:13])([H:14])[O:6]1)([H:8])([H:9])[H:10]"
C       -1.74533634      -0.04449346       0.79876114
C       -0.97691461      -0.02221879      -0.90298294
O       -0.06141819       0.86906097      -1.31373201
C        1.17967478       0.99061917      -0.60240224
C        1.58955778      -0.32882721      -0.00172573
O        0.59564523      -0.76338424       0.90014169
C       -0.64317408      -0.91458532       0.25928127
H       -1.41614589       0.80935269       1.38242436
H       -2.53515908      -0.59878589       1.29315377
H       -2.33493156       0.16566146      -0.48855165
H        1.06641665       1.74430803       0.18316774
H        1.90595653       1.34761861      -1.33302820
H        1.75053448      -1.07155612      -0.79527442
H        2.51528729      -0.22507768       0.56504922
H       -0.88999299      -1.95769223       0.05571801
15
Frame=12 idx=009114 GeodesicLength=0.5908861945044553 rxn_smarts="[C:1]1([H:8])([H:9])[C@:2]2([H:10])[O:3][C:4]([H:11])([H:12])[C:5]([H:13])([H:14])[O:6][C@:7]12[H:15]>>[C:1]([C@@:7]1([H:15])[C-:2]=[O+:3][C:4]([H:11])([H:12])[C:5]([H:13])([H:14])[O:6]1)([H:8])([H:9])[H:10]"
C       -1.75319105      -0.04638755       0.79872712
C       -0.97760282      -0.00429486      -0.89675512
O       -0.05398826       0.87260405      -1.31769460
C        1.18772696       0.98997612      -0.60544874
C        1.58944053      -0.32919680       0.00171014
O        0.59142306      -0.75545666       0.90291514
C       -0.64404315      -0.90718759       0.25556685
H       -1.42834949       0.80994354       1.38187899
H       -2.52168502      -0.61253566       1.31317253
H       -2.36072745       0.14711050      -0.49031926
H        1.07817505       1.74791868       0.17642368
H        1.91638357       1.33940033      -1.33733485
H        1.74841996      -1.07572012      -0.78877323
H        2.51483128      -0.22778457       0.56953088
H       -0.88681318      -1.94838942       0.03640047
15
Frame=13 idx=009114 GeodesicLength=0.6399507854827041 rxn_smarts="[C:1]1([H:8])([H:9])[C@:2]2([H:10])[O:3][C:4]([H:11])([H:12])[C:5]([H:13])([H:14])[O:6][C@:7]12[H:15]>>[C:1]([C@@:7]1([H:15])[C-:2]=[O+:3][C:4]([H:11])([H:12])[C:5]([H:13])([H:14])[O:6]1)([H:8])([H:9])[H:10]"
C       -1.76120427      -0.04844112       0.79876522
C       -0.97836037       0.01422563      -0.89009444
O       -0.04651083       0.87599071      -1.32170212
C        1.19580126       0.98925505      -0.60854363
C        1.58923812      -0.32954868       0.00516619
O        0.58712798      -0.74743900       0.90564645
C       -0.64496028      -0.89958769       0.25182570
H       -1.44081430       0.81026205       1.38160840
H       -2.50776767      -0.62592400       1.33284686
H       -2.38616597       0.12772491      -0.49204772
H        1.09005452       1.75147247       0.16956539
H        1.92677394       1.33096982      -1.34170429
H        1.74615840      -1.07987835      -0.78221995
H        2.51426403      -0.23049079       0.57404641
H       -0.88363457      -1.93859100       0.01684154
15
Frame=14 idx=009114 GeodesicLength=0.688948008338631 rxn_smarts="[C:1]1([H:8])([H:9])[C@:2]2([H:10])[O:3][C:4]([H:11])([H:12])[C:5]([H:13])([H:14])[O:6][C@:7]12[H:15]>>[C:1]([C@@:7]1([H:15])[C-:2]=[O+:3][C:4]([H:11])([H:12])[C:5]([H:13])([H:14])[O:6]1)([H:8])([H:9])[H:10]"
C       -1.76939605      -0.05067180       0.79888188
C       -0.97918245       0.03335726      -0.88296590
O       -0.03902141       0.87923161      -1.32573658
C        1.20389852       0.98844947      -0.61170756
C        1.58895339      -0.32988010       0.00865079
O        0.58275888      -0.73932388       0.90835246
C       -0.64593012      -0.89177923       0.24806908
H       -1.45358572       0.81027367       1.38165108
H       -2.49343023      -0.63898135       1.35211924
H       -2.41117999       0.10755868      -0.49372961
H        1.10209618       1.75497294       0.16256356
H        1.93711484       1.32229515      -1.34619120
H        1.74375275      -1.08403831      -0.77559477
H        2.51359301      -0.23318827       0.57860453
H       -0.88044159      -1.92827584      -0.00296699
15
Frame=15 idx=009114 GeodesicLength=0.7379896473465591 rxn_smarts="[C:1]1([H:8])([H:9])[C@:2]2([H:10])[O:3][C:4]([H:11])([H:12])[C:5]([H:13])([H:14])[O:6][C@:7]12[H:15]>>[C:1]([C@@:7]1([H:15])[C-:2]=[O+:3][C:4]([H:11])([H:12])[C:5]([H:13])([H:14])[O:6]1)([H:8])([H:9])[H:10]"
C       -1.77778461      -0.05310125       0.79908687
C       -0.98006947       0.05310497      -0.87534572
O       -0.03155171       0.88233403      -1.32979751
C        1.21203369       0.98757000      -0.61496516
C        1.58862128      -0.33018944       0.01217018
O        0.57834200      -0.73113349       0.91105243
C       -0.64696086      -0.88378073       0.24432033
H       -1.46667022       0.80994097       1.38204735
H       -2.47878134      -0.65174114       1.37095452
H       -2.43578078       0.08669532      -0.49538848
H        1.11433506       1.75844328       0.15538132
H        1.94741641       1.31338416      -1.35084472
H        1.74123721      -1.08820557      -0.76888415
H        2.51287330      -0.23586306       0.58321338
H       -0.87725996      -1.91745807      -0.02300064
15
Frame=16 idx=009114 GeodesicLength=0.7869680459446609 rxn_smarts="[C:1]1([H:8])([H:9])[C@:2]2([H:10])[O:3][C:4]([H:11])([H:12])[C:5]([H:13])([H:14])[O:6][C@:7]12[H:15]>>[C:1]([C@@:7]1([H:15])[C-:2]=[O+:3][C:4]([H:11])([H:12])[C:5]([H:13])([H:14])[O:6]1)([H:8])([H:9])[H:10]"
C       -1.78630586      -0.05572527       0.79936861
C       -0.98096034       0.07343833      -0.86719128
O       -0.02412975       0.88524404      -1.33383333
C        1.22015367       0.98657979      -0.61830359
C        1.58819876      -0.33046493       0.01572221
O        0.57387040      -0.72284691       0.91372935
C       -0.64802324      -0.87557881       0.24057869
H       -1.48002175       0.80923838       1.38282399
H       -2.46381176      -0.66417635       1.38926427
H       -2.45984034       0.06520920      -0.49703445
H        1.12672629       1.76185054       0.14802336
H        1.95758752       1.30417322      -1.35565408
H        1.73857985      -1.09236973      -0.76208486
H        2.51202883      -0.23847758       0.58786155
H       -0.87405228      -1.90609394      -0.04327045
