19
Frame=0 idx=011042 GeodesicLength=0.0 rxn_smarts="[C:1]([C:2]([C:3]([C@@:4]1([H:15])[C:5]([H:16])([H:17])[C@:6]1([O:7][H:19])[H:18])([H:13])[H:14])([H:11])[H:12])([H:8])([H:9])[H:10]>>[C:1]([C:2]([C:3]([C:4]1=[C:6]([O:7][H:19])[C:5]1([H:16])[H:17])([H:13])[H:14])([H:11])[H:12])([H:8])([H:9])[H:10].[H:15][H:18]"
C       -2.77773554       0.24699645      -0.30778086
C       -1.39709398       0.49725788       0.28363834
C       -0.45664805      -0.69754278       0.14084100
C        0.90560258      -0.43531178       0.71049981
C        2.18977350      -1.10978376       0.35933367
C        1.89348312       0.27974879      -0.04599236
O        1.95111547       0.81941846      -1.29204138
H       -2.71785095       0.02541934      -1.37652787
H       -3.25870110      -0.60612574       0.17680049
H       -3.43188688       1.11187588      -0.18309602
H       -1.47841867       0.75112364       1.34391077
H       -0.95296344       1.37962367      -0.19720601
H       -0.42223467      -0.99616175      -0.92377807
H       -0.89719601      -1.54965207       0.66656586
H        1.86894275       1.05641238       0.95601903
H        2.27309474      -1.73481266      -0.53396863
H        2.92264606      -1.35747250       1.12641195
H        2.71351757       1.18686550       0.62683166
H        1.07255350       1.13212097      -1.53046141
19
Frame=1 idx=011042 GeodesicLength=0.11322246932448866 rxn_smarts="[C:1]([C:2]([C:3]([C@@:4]1([H:15])[C:5]([H:16])([H:17])[C@:6]1([O:7][H:19])[H:18])([H:13])[H:14])([H:11])[H:12])([H:8])([H:9])[H:10]>>[C:1]([C:2]([C:3]([C:4]1=[C:6]([O:7][H:19])[C:5]1([H:16])[H:17])([H:13])[H:14])([H:11])[H:12])([H:8])([H:9])[H:10].[H:15][H:18]"
C       -2.78184793       0.24193524      -0.30104750
C       -1.39476272       0.50144075       0.27096557
C       -0.45725654      -0.69674794       0.14022452
C        0.90968370      -0.43547978       0.69571575
C        2.19250291      -1.11514398       0.34309743
C        1.90085402       0.27853299      -0.05236233
O        1.96788608       0.82361982      -1.29575032
H       -2.73354287      -0.00111725      -1.36568020
H       -3.25940545      -0.60031754       0.20544802
H       -3.43325570       1.11034331      -0.18709489
H       -1.46525533       0.77576788       1.32697699
H       -0.95439656       1.37340662      -0.23120495
H       -0.42821933      -1.00915607      -0.91988662
H       -0.89537129      -1.54062685       0.68145606
H        1.84173774       1.05614585       0.99208732
H        2.27022991      -1.74261809      -0.54850495
H        2.92220039      -1.36728635       1.11150673
H        2.70057816       1.18708403       0.66527687
H        1.09764081       1.16021735      -1.53122349
19
Frame=2 idx=011042 GeodesicLength=0.22642746687416496 rxn_smarts="[C:1]([C:2]([C:3]([C@@:4]1([H:15])[C:5]([H:16])([H:17])[C@:6]1([O:7][H:19])[H:18])([H:13])[H:14])([H:11])[H:12])([H:8])([H:9])[H:10]>>[C:1]([C:2]([C:3]([C:4]1=[C:6]([O:7][H:19])[C:5]1([H:16])[H:17])([H:13])[H:14])([H:11])[H:12])([H:8])([H:9])[H:10].[H:15][H:18]"
C       -2.78576811       0.23685144      -0.29425040
C       -1.39234238       0.50559771       0.25771327
C       -0.45771708      -0.69588432       0.13988742
C        0.91393928      -0.43528774       0.68066469
C        2.19524761      -1.12034471       0.32639557
C        1.90846067       0.27744425      -0.05909797
O        1.98427478       0.82797100      -1.29976061
H       -2.74918194      -0.02830015      -1.35404038
H       -3.25959019      -0.59374010       0.23454268
H       -3.43452763       1.10863386      -0.19163823
H       -1.45189792       0.80103744       1.30876000
H       -0.95603053       1.36635110      -0.26626169
H       -0.43430410      -1.02284178      -0.91526355
H       -0.89314370      -1.53086276       0.69726107
H        1.81374838       1.05447421       1.02960668
H        2.26717714      -1.75027845      -0.56347148
H        2.92180380      -1.37703773       1.09603473
H        2.68656893       1.18627524       0.70360322
H        1.12328297       1.18994146      -1.53068502
19
Frame=3 idx=011042 GeodesicLength=0.3395992209336069 rxn_smarts="[C:1]([C:2]([C:3]([C@@:4]1([H:15])[C:5]([H:16])([H:17])[C@:6]1([O:7][H:19])[H:18])([H:13])[H:14])([H:11])[H:12])([H:8])([H:9])[H:10]>>[C:1]([C:2]([C:3]([C:4]1=[C:6]([O:7][H:19])[C:5]1([H:16])[H:17])([H:13])[H:14])([H:11])[H:12])([H:8])([H:9])[H:10].[H:15][H:18]"
C       -2.78946076       0.23177381      -0.28740851
C       -1.38981322       0.50971409       0.24385684
C       -0.45801505      -0.69495233       0.13987982
C        0.91838716      -0.43471611       0.66534470
C        2.19801611      -1.12536507       0.30919431
C        1.91629911       0.27648900      -0.06625306
O        2.00015534       0.83248360      -1.30414548
H       -2.76471303      -0.05608703      -1.34157687
H       -3.25922118      -0.58631834       0.26403007
H       -3.43567107       1.10675456      -0.19676160
H       -1.43834780       0.82693813       1.28917538
H       -0.95783160       1.35836474      -0.30239822
H       -0.44049479      -1.03728153      -0.90979695
H       -0.89047997      -1.52028188       0.71406768
H        1.78492852       1.05116761       1.06878256
H        2.26392536      -1.75778164      -0.57889283
H        2.92149421      -1.38668000       1.07994269
H        2.67134886       1.18449057       0.74173032
H        1.14949380       1.22128782      -1.52877087
19
Frame=4 idx=011042 GeodesicLength=0.4527265335141264 rxn_smarts="[C:1]([C:2]([C:3]([C@@:4]1([H:15])[C:5]([H:16])([H:17])[C@:6]1([O:7][H:19])[H:18])([H:13])[H:14])([H:11])[H:12])([H:8])([H:9])[H:10]>>[C:1]([C:2]([C:3]([C:4]1=[C:6]([O:7][H:19])[C:5]1([H:16])[H:17])([H:13])[H:14])([H:11])[H:12])([H:8])([H:9])[H:10].[H:15][H:18]"
C       -2.79288756       0.22673303      -0.28054174
C       -1.38715006       0.51377594       0.22936468
C       -0.45813328      -0.69394970       0.14025721
C        0.92304676      -0.43374420       0.64975548
C        2.20081784      -1.13017906       0.29145185
C        1.92436352       0.27568088      -0.07388211
O        2.01538674       0.83718660      -1.30897821
H       -2.78008197      -0.08444556      -1.32825387
H       -3.25826436      -0.57796445       0.29386426
H       -3.43664770       1.10471600      -0.20251150
H       -1.42459711       0.85348640       1.26812362
H       -0.95975865       1.34934353      -0.33964922
H       -0.44679454      -1.05254120      -0.90335931
H       -0.88734389      -1.50879101       0.73197101
H        1.75522951       1.04593695       1.10985852
H        2.26046187      -1.76510559      -0.59480463
H        2.92131683      -1.39616334       1.06316373
H        2.65474950       1.18179400       0.77958159
H        1.17628656       1.25423079      -1.52541136
19
Frame=5 idx=011042 GeodesicLength=0.5658020533357014 rxn_smarts="[C:1]([C:2]([C:3]([C@@:4]1([H:15])[C:5]([H:16])([H:17])[C@:6]1([O:7][H:19])[H:18])([H:13])[H:14])([H:11])[H:12])([H:8])([H:9])[H:10]>>[C:1]([C:2]([C:3]([C:4]1=[C:6]([O:7][H:19])[C:5]1([H:16])[H:17])([H:13])[H:14])([H:11])[H:12])([H:8])([H:9])[H:10].[H:15][H:18]"
C       -2.79600789       0.22176100      -0.27366907
C       -1.38432132       0.51777027       0.21419457
C       -0.45805115      -0.69286983       0.14107849
C        0.92793872      -0.43234928       0.63389872
C        2.20366241      -1.13475485       0.27311947
C        1.93264749       0.27504100      -0.08203912
O        2.02981263       0.84212339      -1.31432983
H       -2.79524050      -0.11335965      -1.31402512
H       -3.25668328      -0.56857404       0.32401406
H       -3.43741321       1.10253063      -0.20894794
H       -1.41062337       0.88071278       1.24548281
H       -0.96176560       1.33916907      -0.37806750
H       -0.45320220      -1.06868612      -0.89580825
H       -0.88369460      -1.49627935       0.75106961
H        1.72460300       1.03842182       1.15311821
H        2.25677086      -1.77221752      -0.61125196
H        2.92132298      -1.40543494       1.04561893
H        2.63656815       1.17826250       0.81707897
H        1.20367687       1.28873313      -1.52053506
19
Frame=6 idx=011042 GeodesicLength=0.6788295245985564 rxn_smarts="[C:1]([C:2]([C:3]([C@@:4]1([H:15])[C:5]([H:16])([H:17])[C@:6]1([O:7][H:19])[H:18])([H:13])[H:14])([H:11])[H:12])([H:8])([H:9])[H:10]>>[C:1]([C:2]([C:3]([C:4]1=[C:6]([O:7][H:19])[C:5]1([H:16])[H:17])([H:13])[H:14])([H:11])[H:12])([H:8])([H:9])[H:10].[H:15][H:18]"
C       -2.79877590       0.21689553      -0.26680836
C       -1.38128833       0.52168297       0.19829780
C       -0.45774499      -0.69170215       0.14240720
C        0.93308451      -0.43050594       0.61777818
C        2.20656210      -1.13905034       0.25414185
C        1.94114092       0.27460092      -0.09077844
O        2.04326569       0.84735981      -1.32026915
H       -2.81013911      -0.14281485      -1.29883365
H       -3.25443925      -0.55802248       0.35445446
H       -3.43791423       1.10021559      -0.21613807
H       -1.39639129       0.90865420       1.22111163
H       -0.96379712       1.32770582      -0.41771417
H       -0.45971203      -1.08578109      -0.88698324
H       -0.87948829      -1.48261678       0.77146624
H        1.69299357       1.02816988       1.19888549
H        2.25283852      -1.77907036      -0.62828807
H        2.92157563      -1.41442883       1.02721605
H        2.61655303       1.17399318       0.85415175
H        1.23167657       1.32471491      -1.51409749
19
Frame=7 idx=011042 GeodesicLength=0.791821492585 rxn_smarts="[C:1]([C:2]([C:3]([C@@:4]1([H:15])[C:5]([H:16])([H:17])[C@:6]1([O:7][H:19])[H:18])([H:13])[H:14])([H:11])[H:12])([H:8])([H:9])[H:10]>>[C:1]([C:2]([C:3]([C:4]1=[C:6]([O:7][H:19])[C:5]1([H:16])[H:17])([H:13])[H:14])([H:11])[H:12])([H:8])([H:9])[H:10].[H:15][H:18]"
C       -2.80114183       0.21218052      -0.25997159
C       -1.37800385       0.52549986       0.18161724
C       -0.45718544      -0.69042998       0.14430517
C        0.93850695      -0.42818446       0.60140002
C        2.20953191      -1.14301344       0.23446248
C        1.94983389       0.27440217      -0.10015531
O        2.05557358       0.85297467      -1.32686266
H       -2.82473522      -0.17280452      -1.28260336
H       -3.25148698      -0.54616135       0.38517704
H       -3.43808972       1.09779277      -0.22415509
H       -1.38184430       0.93735559       1.19484521
H       -0.96579367       1.31480254      -0.45866070
H       -0.46630879      -1.10387996      -0.87671410
H       -0.87467392      -1.46765638       0.79325337
H        1.66034100       1.01462281       1.24751727
H        2.24865315      -1.78560653      -0.64596695
H        2.92214662      -1.42306555       1.00785865
H        2.59437971       1.16910621       0.89073349
H        1.26029691       1.36206504      -1.50608020
19
Frame=8 idx=011042 GeodesicLength=0.9047755612440481 rxn_smarts="[C:1]([C:2]([C:3]([C@@:4]1([H:15])[C:5]([H:16])([H:17])[C@:6]1([O:7][H:19])[H:18])([H:13])[H:14])([H:11])[H:12])([H:8])([H:9])[H:10]>>[C:1]([C:2]([C:3]([C:4]1=[C:6]([O:7][H:19])[C:5]1([H:16])[H:17])([H:13])[H:14])([H:11])[H:12])([H:8])([H:9])[H:10].[H:15][H:18]"
C       -2.80305620       0.20767187      -0.25315972
C       -1.37441439       0.52920683       0.16409181
C       -0.45633620      -0.68902838       0.14682594
C        0.94422823      -0.42534354       0.58477110
C        2.21259630      -1.14657722       0.21402760
C        1.95872115       0.27449985      -0.11022513
O        2.06658095       0.85906815      -1.33416508
H       -2.83900112      -0.20331593      -1.26523375
H       -3.24777654      -0.53281313       0.41618862
H       -3.43787606       1.09529308      -0.23306800
H       -1.36690144       0.96686222       1.16650074
H       -0.96769764       1.30029550      -0.50097762
H       -0.47296536      -1.12301612      -0.86483102
H       -0.86918933      -1.45123892       0.81649819
H        1.62658997       0.99708407       1.29938572
H        2.24421628      -1.79175533      -0.66434053
H        2.92312442      -1.43124380       0.98745571
H        2.56961565       1.16376334       0.92678431
H        1.28954133       1.40058747      -1.49652889
19
Frame=9 idx=011042 GeodesicLength=1.0177730715142954 rxn_smarts="[C:1]([C:2]([C:3]([C@@:4]1([H:15])[C:5]([H:16])([H:17])[C@:6]1([O:7][H:19])[H:18])([H:13])[H:14])([H:11])[H:12])([H:8])([H:9])[H:10]>>[C:1]([C:2]([C:3]([C:4]1=[C:6]([O:7][H:19])[C:5]1([H:16])[H:17])([H:13])[H:14])([H:11])[H:12])([H:8])([H:9])[H:10].[H:15][H:18]"
C       -2.80442847       0.20344717      -0.24635812
C       -1.37043998       0.53278336       0.14569927
C       -0.45514361      -0.68746319       0.15000569
C        0.95028580      -0.42194269       0.56790294
C        2.21577530      -1.14966344       0.19282402
C        1.96779079       0.27494760      -0.12106944
O        2.07613845       0.86567189      -1.34230141
H       -2.85284940      -0.23425781      -1.24661593
H       -3.24321802      -0.51780703       0.44746482
H       -3.43716942       1.09275778      -0.24288604
H       -1.35146694       0.99715187       1.13593653
H       -0.96941906       1.28404075      -0.54464001
H       -0.47961670      -1.14315242      -0.85118455
H       -0.86296410      -1.43321556       0.84119751
H        1.59161228       0.97474441       1.35485838
H        2.23952671      -1.79747152      -0.68337979
H        2.92458783      -1.43880611       0.96595636
H        2.54159477       1.15817980       0.96221532
H        1.31940377       1.44005512      -1.48562555
19
Frame=10 idx=011042 GeodesicLength=1.130760846859974 rxn_smarts="[C:1]([C:2]([C:3]([C@@:4]1([H:15])[C:5]([H:16])([H:17])[C@:6]1([O:7][H:19])[H:18])([H:13])[H:14])([H:11])[H:12])([H:8])([H:9])[H:10]>>[C:1]([C:2]([C:3]([C:4]1=[C:6]([O:7][H:19])[C:5]1([H:16])[H:17])([H:13])[H:14])([H:11])[H:12])([H:8])([H:9])[H:10].[H:15][H:18]"
C       -2.80520725       0.19960381      -0.23953297
C       -1.36602143       0.53620674       0.12643385
C       -0.45355389      -0.68569482       0.15384547
C        0.95669283      -0.41790536       0.55081054
C        2.21912076      -1.15217232       0.17087540
C        1.97705091       0.27581403      -0.13275487
O        2.08414809       0.87283607      -1.35134837
H       -2.86626262      -0.26549124      -1.22662828
H       -3.23775343      -0.50095600       0.47898202
H       -3.43590383       1.09024908      -0.25358239
H       -1.33542646       1.02816719       1.10303892
H       -0.97090967       1.26591054      -0.58957787
H       -0.48618401      -1.16419694      -0.83568399
H       -0.85591459      -1.41347616       0.86725887
H        1.55537143       0.94665109       1.41416971
H        2.23464408      -1.80270725      -0.70302074
H        2.92665685      -1.44554616       0.94338384
H        2.50956039       1.15263679       0.99695444
H        1.34989183       1.48007091      -1.47362359
19
Frame=11 idx=011042 GeodesicLength=1.2437652725158403 rxn_smarts="[C:1]([C:2]([C:3]([C@@:4]1([H:15])[C:5]([H:16])([H:17])[C@:6]1([O:7][H:19])[H:18])([H:13])[H:14])([H:11])[H:12])([H:8])([H:9])[H:10]>>[C:1]([C:2]([C:3]([C:4]1=[C:6]([O:7][H:19])[C:5]1([H:16])[H:17])([H:13])[H:14])([H:11])[H:12])([H:8])([H:9])[H:10].[H:15][H:18]"
C       -2.80530557       0.19626300      -0.23261947
C       -1.36108389       0.53945310       0.10637784
C       -0.45149245      -0.68367196       0.15829634
C        0.96347371      -0.41314166       0.53352008
C        2.22268207      -1.15399942       0.14829744
C        1.98651473       0.27715524      -0.14537724
O        2.09055227       0.88047363      -1.36148068
H       -2.87915905      -0.29674812      -1.20516227
H       -3.23128711      -0.48213399       0.51066508
H       -3.43398743       1.08784311      -0.26501045
H       -1.31866840       1.05972543       1.06783068
H       -0.97210587       1.24587086      -0.63553208
H       -0.49252630      -1.18591858      -0.81834037
H       -0.84795016      -1.39199165       0.89443488
H        1.51777817       0.91180436       1.47738103
H        2.22964009      -1.80747996      -0.72304190
H        2.92942793      -1.45118507       0.91987883
H        2.47245420       1.14748089       1.03084712
H        1.38104306       1.52020079      -1.46096488
19
Frame=12 idx=011042 GeodesicLength=1.3568141830700169 rxn_smarts="[C:1]([C:2]([C:3]([C@@:4]1([H:15])[C:5]([H:16])([H:17])[C@:6]1([O:7][H:19])[H:18])([H:13])[H:14])([H:11])[H:12])([H:8])([H:9])[H:10]>>[C:1]([C:2]([C:3]([C:4]1=[C:6]([O:7][H:19])[C:5]1([H:16])[H:17])([H:13])[H:14])([H:11])[H:12])([H:8])([H:9])[H:10].[H:15][H:18]"
C       -2.80464457       0.19356775      -0.22550811
C       -1.35556816       0.54250625       0.08572366
C       -0.44887162      -0.68133175       0.16322529
C        0.97064407      -0.40753312       0.51607320
C        2.22652704      -1.15503144       0.12532277
C        1.99621971       0.27902372      -0.15902182
O        2.09542536       0.88838900      -1.37290052
H       -2.89145595      -0.32761782      -1.18213945
H       -3.22372266      -0.46130281       0.54240047
H       -3.43135108       1.08563774      -0.27686633
H       -1.30109874       1.09149927       1.03053881
H       -0.97297710       1.22403560      -0.68202395
H       -0.49844154      -1.20791027      -0.79935161
H       -0.83897567      -1.36887601       0.92226089
H        1.47875541       0.86925024       1.54425166
H        2.22464642      -1.81186234      -0.74305629
H        2.93298911      -1.45537583       0.89575239
H        2.42895703       1.14309838       1.06367295
H        1.41294296       1.55983344      -1.44835402
19
Frame=13 idx=011042 GeodesicLength=1.4699134303933474 rxn_smarts="[C:1]([C:2]([C:3]([C@@:4]1([H:15])[C:5]([H:16])([H:17])[C@:6]1([O:7][H:19])[H:18])([H:13])[H:14])([H:11])[H:12])([H:8])([H:9])[H:10]>>[C:1]([C:2]([C:3]([C:4]1=[C:6]([O:7][H:19])[C:5]1([H:16])[H:17])([H:13])[H:14])([H:11])[H:12])([H:8])([H:9])[H:10].[H:15][H:18]"
C       -2.80315388       0.19166593      -0.21805390
C       -1.34945349       0.54536829       0.06483142
C       -0.44559687      -0.67860206       0.16840872
C        0.97819841      -0.40092268       0.49854421
C        2.23072296      -1.15515954       0.10233984
C        2.00622103       0.28145452      -0.17375078
O        2.09899339       0.89622483      -1.38584509
H       -2.90302990      -0.35749047      -1.15758657
H       -3.21496736      -0.43862817       0.57397602
H       -3.42796441       1.08373952      -0.28863936
H       -1.28270942       1.12296509       0.99172187
H       -0.97354213       1.20077071      -0.72825997
H       -0.50366007      -1.22955327      -0.77916145
H       -0.82890278      -1.34446361       0.95003007
H        1.43827593       0.81831953       1.61401062
H        2.21984225      -1.81600559      -0.76245868
H        2.93737824      -1.45772410       0.87154305
H        2.37761965       1.13985616       1.09511256
H        1.44572843       1.59818491      -1.43676258
19
Frame=14 idx=011042 GeodesicLength=1.5831497779245443 rxn_smarts="[C:1]([C:2]([C:3]([C@@:4]1([H:15])[C:5]([H:16])([H:17])[C@:6]1([O:7][H:19])[H:18])([H:13])[H:14])([H:11])[H:12])([H:8])([H:9])[H:10]>>[C:1]([C:2]([C:3]([C:4]1=[C:6]([O:7][H:19])[C:5]1([H:16])[H:17])([H:13])[H:14])([H:11])[H:12])([H:8])([H:9])[H:10].[H:15][H:18]"
C       -2.80081942       0.19066440      -0.21012473
C       -1.34280503       0.54807148       0.04428240
C       -0.44159242      -0.67541458       0.17356634
C        0.98611295      -0.39313591       0.48107893
C        2.23532241      -1.15430790       0.07989795
C        2.01658377       0.28444640      -0.18957790
O        2.10161002       0.90342199      -1.40058538
H       -2.91369562      -0.38557158      -1.13177315
H       -3.20502304      -0.41462164       0.60499743
H       -3.42390509       1.08223574      -0.29961576
H       -1.26370488       1.15339802       0.95240995
H       -0.97386781       1.17678773      -0.77305808
H       -0.50786968      -1.25004872      -0.75846783
H       -0.81769738      -1.31935766       0.97684696
H        1.39639575       0.75909046       1.68521498
H        2.21542694      -1.82016370      -0.78042346
H        2.94256290      -1.45784097       0.84800754
H        2.31730921       1.13791443       1.12464327
H        1.47965641       1.63443200      -1.42731946
19
Frame=15 idx=011042 GeodesicLength=1.6966726472917497 rxn_smarts="[C:1]([C:2]([C:3]([C@@:4]1([H:15])[C:5]([H:16])([H:17])[C@:6]1([O:7][H:19])[H:18])([H:13])[H:14])([H:11])[H:12])([H:8])([H:9])[H:10]>>[C:1]([C:2]([C:3]([C:4]1=[C:6]([O:7][H:19])[C:5]1([H:16])[H:17])([H:13])[H:14])([H:11])[H:12])([H:8])([H:9])[H:10].[H:15][H:18]"
C       -2.79769733       0.19055944      -0.20163418
C       -1.33577332       0.55066624       0.02469127
C       -0.43684023      -0.67172688       0.17845513
C        0.99431339      -0.38403836       0.46391516
C        2.24030542      -1.15245160       0.05854610
C        2.02732106       0.28799310      -0.20637368
O        2.10366489       0.90950029      -1.41721149
H       -2.92328094      -0.41121916      -1.10511076
H       -3.19399523      -0.38999633       0.63507548
H       -3.41933397       1.08113882      -0.30914138
H       -1.24445432       1.18211980       0.91378609
H       -0.97407637       1.15292932      -0.81525876
H       -0.51080255      -1.26865274      -0.73802301
H       -0.80542942      -1.29428082       1.00189985
H        1.35323182       0.69261934       1.75581204
H        2.21153160      -1.82454584      -0.79619133
H        2.94839767      -1.45552562       0.82588823
H        2.24787992       1.13694263       1.15180704
H        1.51503791       1.66796835      -1.42093179
19
Frame=16 idx=011042 GeodesicLength=1.8106755445167595 rxn_smarts="[C:1]([C:2]([C:3]([C@@:4]1([H:15])[C:5]([H:16])([H:17])[C@:6]1([O:7][H:19])[H:18])([H:13])[H:14])([H:11])[H:12])([H:8])([H:9])[H:10]>>[C:1]([C:2]([C:3]([C:4]1=[C:6]([O:7][H:19])[C:5]1([H:16])[H:17])([H:13])[H:14])([H:11])[H:12])([H:8])([H:9])[H:10].[H:15][H:18]"
C       -2.79393702       0.19119633      -0.19260926
C       -1.32858580       0.55318636       0.00651656
C       -0.43141002      -0.66753996       0.18298985
C        1.00268448      -0.37359155       0.44738648
C        2.24554532      -1.14962705       0.03865480
C        2.03834074       0.29208598      -0.22386141
O        2.10535234       0.91424859      -1.43553422
H       -2.93168527      -0.43420991      -1.07806194
H       -3.18212573      -0.36547328       0.66390361
H       -3.41449510       1.08033149      -0.31689686
H       -1.22545091       1.20871202       0.87681730
H       -0.97431463       1.12987750      -0.85407700
H       -0.51232789      -1.28493150      -0.71834610
H       -0.79230554      -1.26984876       1.02474883
H        1.30888556       0.62097574       1.82354876
H        2.20811633      -1.82921767      -0.80932886
H        2.95464570      -1.45086742       0.80563529
H        2.17085155       1.13598398       1.17635181
H        1.55221588       1.69870911      -1.41783764
