16
Frame=0 idx=010724 GeodesicLength=0.0 rxn_smarts="[N:1]([C:2](=[O:3])[C:4]([C:5]([C:6]([O:7][H:16])([H:14])[H:15])([H:12])[H:13])([H:10])[H:11])([H:8])[H:9]>>[C:5]([C:6]([O:7][H:16])([H:14])[H:15])([H:10])([H:12])[H:13].[N:1]([C:2]([O-:3])=[C+:4][H:11])([H:8])[H:9]"
N        1.41787277       0.31933390       1.39131611
C        1.53894957      -0.98592093       1.06871278
O        2.30783869      -1.76534021       1.62397055
C        0.88844236      -1.63308804      -0.05821285
C       -1.13336722      -0.39347241      -0.39587867
C       -1.24685248       0.92520515      -1.12123391
O       -0.31876741       1.82811518      -0.54078526
H        2.08193251       0.67545295       2.05635439
H        0.93956489       0.96640878       0.78232428
H       -0.08800788      -0.80243789      -0.71662761
H        0.24230984      -2.44027251       0.29569881
H       -1.84882196      -1.12633283      -0.76552578
H       -1.23758700      -0.27401320       0.67909529
H       -1.03944266       0.78972162      -2.18798219
H       -2.26900533       1.31041513      -1.01857395
H       -0.23505871       2.60622535      -1.09265200
16
Frame=1 idx=010724 GeodesicLength=0.05912399331961501 rxn_smarts="[N:1]([C:2](=[O:3])[C:4]([C:5]([C:6]([O:7][H:16])([H:14])[H:15])([H:12])[H:13])([H:10])[H:11])([H:8])[H:9]>>[C:5]([C:6]([O:7][H:16])([H:14])[H:15])([H:10])([H:12])[H:13].[N:1]([C:2]([O-:3])=[C+:4][H:11])([H:8])[H:9]"
N        1.42575868       0.32477299       1.38697608
C        1.53435421      -0.98272792       1.07399685
O        2.30797740      -1.76583970       1.61808179
C        0.87169978      -1.63807309      -0.04019960
C       -1.12786337      -0.39890925      -0.40331981
C       -1.24620554       0.92532341      -1.11899483
O       -0.31987194       1.82745150      -0.53360946
H        2.09239194       0.68071509       2.04949347
H        0.94681500       0.97067629       0.77701806
H       -0.07188587      -0.80579675      -0.74608409
H        0.23635410      -2.44890288       0.32345306
H       -1.84784234      -1.12511573      -0.77836947
H       -1.25065169      -0.28089742       0.67046409
H       -1.03906712       0.79779338      -2.18684415
H       -2.26891183       1.30812747      -1.01389313
H       -0.24305141       2.61140262      -1.07816886
16
Frame=2 idx=010724 GeodesicLength=0.11825375877618018 rxn_smarts="[N:1]([C:2](=[O:3])[C:4]([C:5]([C:6]([O:7][H:16])([H:14])[H:15])([H:12])[H:13])([H:10])[H:11])([H:8])[H:9]>>[C:5]([C:6]([O:7][H:16])([H:14])[H:15])([H:10])([H:12])[H:13].[N:1]([C:2]([O-:3])=[C+:4][H:11])([H:8])[H:9]"
N        1.43330285       0.33011913       1.38331625
C        1.52961717      -0.97921762       1.07900161
O        2.30924439      -1.76604026       1.60975452
C        0.85441018      -1.64161189      -0.02262109
C       -1.12303426      -0.40423990      -0.41007979
C       -1.24526331       0.92507948      -1.11692156
O       -0.32059110       1.82630329      -0.52660001
H        2.10277943       0.68558516       2.04318042
H        0.95309073       0.97517337       0.77322805
H       -0.05623068      -0.80950254      -0.77416287
H        0.23107330      -2.45698867       0.35030970
H       -1.84741642      -1.12376231      -0.79059284
H       -1.26468358      -0.28730462       0.66213295
H       -1.03781138       0.80475326      -2.18561394
H       -2.26841072       1.30597375      -1.01019619
H       -0.25007660       2.61568035      -1.06413522
16
Frame=3 idx=010724 GeodesicLength=0.17740700339036056 rxn_smarts="[N:1]([C:2](=[O:3])[C:4]([C:5]([C:6]([O:7][H:16])([H:14])[H:15])([H:12])[H:13])([H:10])[H:11])([H:8])[H:9]>>[C:5]([C:6]([O:7][H:16])([H:14])[H:15])([H:10])([H:12])[H:13].[N:1]([C:2]([O-:3])=[C+:4][H:11])([H:8])[H:9]"
N        1.44058401       0.33539932       1.38025236
C        1.52475219      -0.97542733       1.08378956
O        2.31134460      -1.76601065       1.59926113
C        0.83667137      -1.64382049      -0.00543137
C       -1.11886594      -0.40947433      -0.41618105
C       -1.24406605       0.92450698      -1.11499547
O       -0.32099017       1.82472476      -0.51973171
H        2.11318223       0.69011403       2.03730283
H        0.95848050       0.97989765       0.77083432
H       -0.04096735      -0.81354566      -0.80092879
H        0.22650156      -2.46458596       0.37622851
H       -1.84749488      -1.12230129      -0.80224573
H       -1.27958874      -0.29327369       0.65407474
H       -1.03573559       0.81068450      -2.18429722
H       -2.26755620       1.30395688      -1.00741813
H       -0.25625155       2.61915528      -1.05051399
16
Frame=4 idx=010724 GeodesicLength=0.2366084953980947 rxn_smarts="[N:1]([C:2](=[O:3])[C:4]([C:5]([C:6]([O:7][H:16])([H:14])[H:15])([H:12])[H:13])([H:10])[H:11])([H:8])[H:9]>>[C:5]([C:6]([O:7][H:16])([H:14])[H:15])([H:10])([H:12])[H:13].[N:1]([C:2]([O-:3])=[C+:4][H:11])([H:8])[H:9]"
N        1.44767180       0.34063333       1.37770493
C        1.51977729      -0.97139357       1.08841497
O        2.31403580      -1.76580276       1.58684072
C        0.81857107      -1.64481366       0.01141471
C       -1.11534520      -0.41462024      -0.42164260
C       -1.24265037       0.92363961      -1.11320341
O       -0.32112431       1.82276652      -0.51298852
H        2.12365190       0.69433925       2.03178442
H        0.96307606       0.98484549       0.76971565
H       -0.02602650      -0.81792846      -0.82644552
H        0.22266980      -2.47175418       0.40117657
H       -1.84803877      -1.12075491      -0.81336578
H       -1.29528685      -0.29883224       0.64627360
H       -1.03289551       0.81566357      -2.18290597
H       -2.26639764       1.30208898      -1.00550045
H       -0.26168857       2.62192328      -1.03727332
16
Frame=5 idx=010724 GeodesicLength=0.29583400963517553 rxn_smarts="[N:1]([C:2](=[O:3])[C:4]([C:5]([C:6]([O:7][H:16])([H:14])[H:15])([H:12])[H:13])([H:10])[H:11])([H:8])[H:9]>>[C:5]([C:6]([O:7][H:16])([H:14])[H:15])([H:10])([H:12])[H:13].[N:1]([C:2]([O-:3])=[C+:4][H:11])([H:8])[H:9]"
N        1.45461159       0.34584196       1.37560378
C        1.51468599      -0.96714189       1.09293522
O        2.31713632      -1.76541460       1.57263683
C        0.80014740      -1.64465700       0.02796366
C       -1.11246248      -0.41968398      -0.42648585
C       -1.24103122       0.92248693      -1.11152212
O       -0.32102002       1.82044523      -0.50634092
H        2.13421837       0.69830414       2.02654757
H        0.96695401       0.99000457       0.76977372
H       -0.01135831      -0.82265065      -0.85075366
H        0.21956742      -2.47850561       0.42511436
H       -1.84901456      -1.11914127      -0.82399590
H       -1.31170706      -0.30400567       0.63869266
H       -1.02932624       0.81973519      -2.18142060
H       -2.26494517       1.30035322      -1.00439201
H       -0.26645602       2.62402944      -1.02435675
16
Frame=6 idx=010724 GeodesicLength=0.3551174245183376 rxn_smarts="[N:1]([C:2](=[O:3])[C:4]([C:5]([C:6]([O:7][H:16])([H:14])[H:15])([H:12])[H:13])([H:10])[H:11])([H:8])[H:9]>>[C:5]([C:6]([O:7][H:16])([H:14])[H:15])([H:10])([H:12])[H:13].[N:1]([C:2]([O-:3])=[C+:4][H:11])([H:8])[H:9]"
N        1.46145035       0.35103386       1.37390363
C        1.50947432      -0.96267472       1.09739036
O        2.32034653      -1.76487656       1.55694527
C        0.78144955      -1.64346631       0.04428918
C       -1.11020315      -0.42468742      -0.43075411
C       -1.23922050       0.92107124      -1.10994438
O       -0.32076745       1.81780472      -0.49969758
H        2.14517190       0.70208596       2.02125066
H        0.97010990       0.99535395       0.77098477
H        0.00312038      -0.82771386      -0.87390233
H        0.21718479      -2.48489092       0.44803876
H       -1.85037448      -1.11748418      -0.83423398
H       -1.32882271      -0.30884304       0.63129118
H       -1.02497870       0.82298571      -2.17983703
H       -2.26323796       1.29872210      -1.00410819
H       -0.27070275       2.62557947      -1.01161621
16
Frame=7 idx=010724 GeodesicLength=0.41447842458806994 rxn_smarts="[N:1]([C:2](=[O:3])[C:4]([C:5]([C:6]([O:7][H:16])([H:14])[H:15])([H:12])[H:13])([H:10])[H:11])([H:8])[H:9]>>[C:5]([C:6]([O:7][H:16])([H:14])[H:15])([H:10])([H:12])[H:13].[N:1]([C:2]([O-:3])=[C+:4][H:11])([H:8])[H:9]"
N        1.46821293       0.35621344       1.37256426
C        1.50416830      -0.95803512       1.10182746
O        2.32358644      -1.76420538       1.53987454
C        0.76252783      -1.64131714       0.06042928
C       -1.10856513      -0.42962858      -0.43445520
C       -1.23724438       0.91942127      -1.10846474
O       -0.32038790       1.81487815      -0.49306818
H        2.15648611       0.70569921       2.01588513
H        0.97259502       1.00088966       0.77328369
H        0.01746062      -0.83313428      -0.89593377
H        0.21554225      -2.49095299       0.46991956
H       -1.85210332      -1.11579209      -0.84409166
H       -1.34658934      -0.31334803       0.62406980
H       -1.01990540       0.82545900      -2.17817002
H       -2.26130352       1.29722459      -1.00460487
H       -0.27448051       2.62662829      -0.99906528
16
Frame=8 idx=010724 GeodesicLength=0.4738999156332045 rxn_smarts="[N:1]([C:2](=[O:3])[C:4]([C:5]([C:6]([O:7][H:16])([H:14])[H:15])([H:12])[H:13])([H:10])[H:11])([H:8])[H:9]>>[C:5]([C:6]([O:7][H:16])([H:14])[H:15])([H:10])([H:12])[H:13].[N:1]([C:2]([O-:3])=[C+:4][H:11])([H:8])[H:9]"
N        1.47490629       0.36139069       1.37154570
C        1.49878121      -0.95322857       1.10626388
O        2.32674060      -1.76338471       1.52152687
C        0.74340650      -1.63825790       0.07640818
C       -1.10754127      -0.43451201      -0.43760018
C       -1.23511123       0.91754394      -1.10706186
O       -0.31988776       1.81167459      -0.48644137
H        2.16816062       0.70916574       2.01039420
H        0.97443138       1.00660680       0.77663413
H        0.03170513      -0.83891836      -0.91687940
H        0.21463634      -2.49670004       0.49070479
H       -1.85418268      -1.11407614      -0.85358428
H       -1.36496004      -0.31753081       0.61700897
H       -1.01414189       0.82717924      -2.17639722
H       -2.25913877       1.29585535      -1.00583090
H       -0.27780444       2.62719218      -0.98669152
16
Frame=9 idx=010724 GeodesicLength=0.5334082001973147 rxn_smarts="[N:1]([C:2](=[O:3])[C:4]([C:5]([C:6]([O:7][H:16])([H:14])[H:15])([H:12])[H:13])([H:10])[H:11])([H:8])[H:9]>>[C:5]([C:6]([O:7][H:16])([H:14])[H:15])([H:10])([H:12])[H:13].[N:1]([C:2]([O-:3])=[C+:4][H:11])([H:8])[H:9]"
N        1.48154770       0.36656364       1.37080551
C        1.49330649      -0.94826114       1.11071622
O        2.32966046      -1.76238699       1.50202337
C        0.72409151      -1.63436591       0.09230329
C       -1.10711969      -0.43934770      -0.44020884
C       -1.23280954       0.91544672      -1.10573041
O       -0.31930994       1.80821063      -0.47975210
H        2.18031198       0.71253503       2.00456474
H        0.97564439       1.01247775       0.78100374
H        0.04591318      -0.84509544      -0.93676489
H        0.21443174      -2.50215316       0.51039974
H       -1.85658629      -1.11234029      -0.86276291
H       -1.38392401      -0.32140926       0.61008644
H       -1.00762032       0.82818751      -2.17450784
H       -2.25674466       1.29459416      -1.00781499
H       -0.28079302       2.62734446      -0.97436106
16
Frame=10 idx=010724 GeodesicLength=0.5930041146500488 rxn_smarts="[N:1]([C:2](=[O:3])[C:4]([C:5]([C:6]([O:7][H:16])([H:14])[H:15])([H:12])[H:13])([H:10])[H:11])([H:8])[H:9]>>[C:5]([C:6]([O:7][H:16])([H:14])[H:15])([H:10])([H:12])[H:13].[N:1]([C:2]([O-:3])=[C+:4][H:11])([H:8])[H:9]"
N        1.48813338       0.37173722       1.37033267
C        1.48777487      -0.94314539       1.11519686
O        2.33227833      -1.76121015       1.48145879
C        0.70460864      -1.62968947       0.10813533
C       -1.10730242      -0.44413574      -0.44229199
C       -1.23035389       0.91314200      -1.10446120
O       -0.31866454       1.80449997      -0.47299712
H        2.19295857       0.71582139       1.99834207
H        0.97622949       1.01850162       0.78639585
H        0.06012556      -0.85168149      -0.95561719
H        0.21493555      -2.50732431       0.52895537
H       -1.85930773      -1.11059081      -0.87164121
H       -1.40345634      -0.32498079       0.60329329
H       -1.00037677       0.82850317      -2.17249557
H       -2.25412758       1.29345190      -1.01052463
H       -0.28345514       2.62710087      -0.96208130
16
Frame=11 idx=010724 GeodesicLength=0.652682665018142 rxn_smarts="[N:1]([C:2](=[O:3])[C:4]([C:5]([C:6]([O:7][H:16])([H:14])[H:15])([H:12])[H:13])([H:10])[H:11])([H:8])[H:9]>>[C:5]([C:6]([O:7][H:16])([H:14])[H:15])([H:10])([H:12])[H:13].[N:1]([C:2]([O-:3])=[C+:4][H:11])([H:8])[H:9]"
N        1.49464830       0.37691547       1.37010607
C        1.48220133      -0.93788154       1.11969926
O        2.33452194      -1.75983327       1.45989988
C        0.68497585      -1.62426058       0.12391872
C       -1.10808728      -0.44887829      -0.44384703
C       -1.22774532       0.91063451      -1.10323638
O       -0.31794856       1.80054603      -0.46617364
H        2.20607201       0.71903951       1.99167419
H        0.97618262       1.02467390       0.79280988
H        0.07437863      -0.85869494      -0.97345125
H        0.21615483      -2.51221818       0.54630484
H       -1.86233974      -1.10883172      -0.88021065
H       -1.42352658      -0.32824330       0.59662796
H       -0.99243007       0.82813645      -2.17033999
H       -2.25127552       1.29243078      -1.01392077
H       -0.28578245       2.62646515      -0.94986109
16
Frame=12 idx=010724 GeodesicLength=0.7124651589006221 rxn_smarts="[N:1]([C:2](=[O:3])[C:4]([C:5]([C:6]([O:7][H:16])([H:14])[H:15])([H:12])[H:13])([H:10])[H:11])([H:8])[H:9]>>[C:5]([C:6]([O:7][H:16])([H:14])[H:15])([H:10])([H:12])[H:13].[N:1]([C:2]([O-:3])=[C+:4][H:11])([H:8])[H:9]"
N        1.50107673       0.38209530       1.37012648
C        1.47659762      -0.93247641       1.12423068
O        2.33629839      -1.75822225       1.43743256
C        0.66517430      -1.61814687       0.13973226
C       -1.10946664      -0.45358449      -0.44490857
C       -1.22496747       0.90792573      -1.10205115
O       -0.31719723       1.79635617      -0.45921124
H        2.21981552       0.72224388       1.98428187
H        0.97545389       1.03096916       0.80030403
H        0.08873376      -0.86615981      -0.99028552
H        0.21802288      -2.51681697       0.56247418
H       -1.86565129      -1.10707161      -0.88854410
H       -1.44415209      -0.33121960       0.59005045
H       -0.98371508       0.82711948      -2.16801784
H       -2.24817202       1.29150690      -1.01803873
H       -0.28785125       2.62548137      -0.93757536
16
Frame=13 idx=010724 GeodesicLength=0.7723630024774866 rxn_smarts="[N:1]([C:2](=[O:3])[C:4]([C:5]([C:6]([O:7][H:16])([H:14])[H:15])([H:12])[H:13])([H:10])[H:11])([H:8])[H:9]>>[C:5]([C:6]([O:7][H:16])([H:14])[H:15])([H:10])([H:12])[H:13].[N:1]([C:2]([O-:3])=[C+:4][H:11])([H:8])[H:9]"
N        1.50740587       0.38727991       1.37035156
C        1.47101720      -0.92692375       1.12871841
O        2.33761009      -1.75633485       1.41403270
C        0.64527102      -1.61135771       0.15552388
C       -1.11144122      -0.45824236      -0.44540994
C       -1.22204211       0.90502310      -1.10088185
O       -0.31634379       1.79192782      -0.45220385
H        2.23382470       0.72538148       1.97650953
H        0.97415058       1.03739649       0.80879457
H        0.10319118      -0.87412597      -1.00614641
H        0.22062768      -2.52113910       0.57728574
H       -1.86928781      -1.10529237      -0.89650451
H       -1.46525173      -0.33384535       0.58364116
H       -0.97435232       0.82540971      -2.16553530
H       -2.24482208       1.29073328      -1.02276482
H       -0.28955728       2.62410968      -0.92541087
16
Frame=14 idx=010724 GeodesicLength=0.8323508034124032 rxn_smarts="[N:1]([C:2](=[O:3])[C:4]([C:5]([C:6]([O:7][H:16])([H:14])[H:15])([H:12])[H:13])([H:10])[H:11])([H:8])[H:9]>>[C:5]([C:6]([O:7][H:16])([H:14])[H:15])([H:10])([H:12])[H:13].[N:1]([C:2]([O-:3])=[C+:4][H:11])([H:8])[H:9]"
N        1.51356858       0.39247571       1.37082069
C        1.46544128      -0.92122918       1.13318588
O        2.33843752      -1.75413840       1.38971739
C        0.62521147      -1.60394319       0.17136982
C       -1.11401808      -0.46285139      -0.44540839
C       -1.21892669       0.90191379      -1.09971809
O       -0.31542481       1.78725951      -0.44505007
H        2.24833715       0.72853833       1.96794300
H        0.97211430       1.04393946       0.81841680
H        0.11778906      -0.88261244      -1.02102499
H        0.22386913      -2.52514916       0.59080541
H       -1.87321364      -1.10350299      -0.90419051
H       -1.48686348      -0.33614119       0.57732135
H       -0.96422730       0.82301840      -2.16282302
H       -2.24115268       1.29005476      -1.02816478
H       -0.29094181       2.62236799      -0.91320050
16
Frame=15 idx=010724 GeodesicLength=0.8924570029440839 rxn_smarts="[N:1]([C:2](=[O:3])[C:4]([C:5]([C:6]([O:7][H:16])([H:14])[H:15])([H:12])[H:13])([H:10])[H:11])([H:8])[H:9]>>[C:5]([C:6]([O:7][H:16])([H:14])[H:15])([H:10])([H:12])[H:13].[N:1]([C:2]([O-:3])=[C+:4][H:11])([H:8])[H:9]"
N        1.51956162       0.39767911       1.37148728
C        1.45993739      -0.91539012       1.13754252
O        2.33874682      -1.75158917       1.36452226
C        0.60507848      -1.59593055       0.18720742
C       -1.11718614      -0.46740821      -0.44483397
C       -1.21565357       0.89860921      -1.09853530
O       -0.31437396       1.78235099      -0.43785398
H        2.26296635       0.73165718       1.95897235
H        0.96950462       1.05059074       0.82903907
H        0.13254288      -0.89166472      -1.03496434
H        0.22783161      -2.52883754       0.60283534
H       -1.87746981      -1.10168819      -0.91145626
H       -1.50889358      -0.33805502       0.57118956
H       -0.95348949       0.81991579      -2.15990033
H       -2.23718901       1.28953031      -1.03410572
H       -0.29191422       2.62023019      -0.90114589
16
Frame=16 idx=010724 GeodesicLength=0.9526710006774686 rxn_smarts="[N:1]([C:2](=[O:3])[C:4]([C:5]([C:6]([O:7][H:16])([H:14])[H:15])([H:12])[H:13])([H:10])[H:11])([H:8])[H:9]>>[C:5]([C:6]([O:7][H:16])([H:14])[H:15])([H:10])([H:12])[H:13].[N:1]([C:2]([O-:3])=[C+:4][H:11])([H:8])[H:9]"
N        1.52533494       0.40289747       1.37233435
C        1.45454278      -0.90940381       1.14171144
O        2.33856566      -1.74862785       1.33840658
C        0.58492759      -1.58734751       0.20297955
C       -1.12094004      -0.47189018      -0.44364169
C       -1.21223607       0.89510286      -1.09729821
O       -0.31311757       1.77719743      -0.43069526
H        2.27735014       0.73471269       1.94996098
H        0.96645707       1.05735970       0.84051149
H        0.14744117      -0.90131532      -1.04800809
H        0.23255898      -2.53219790       0.61321480
H       -1.88209431      -1.09983215      -0.91817924
H       -1.53125613      -0.33952412       0.56531313
H       -0.94227261       0.81604549      -2.15674166
H       -2.23290724       1.28917650      -1.04046351
H       -0.29235435       2.61764668      -0.88940465
