13
Frame=0 idx=000686 GeodesicLength=0.0 rxn_smarts="[C:1]([c:2]1[c:3]([H:10])[n:4]([H:11])[c:5]([H:12])[c:6]1[H:13])([H:7])([H:8])[H:9]>>[C:1](=[C:2]1[C-:3]([H:10])[N+:4]([H:7])([H:11])[C:5]([H:12])=[C:6]1[H:13])([H:8])[H:9]"
C        1.89943790       0.11361014      -0.22417755
C        0.60185501       0.26091432      -0.61564371
C       -0.17650916      -0.91111390      -0.80329296
N       -1.29435866      -0.72109930      -0.14658285
C       -1.39574763       0.61237290       0.29028861
C       -0.29908096       1.27186257      -0.11774858
H       -0.06040153      -0.66408416       1.93635414
H        2.44758770      -0.79659420      -0.42980521
H        2.43740579       0.92665435       0.24377317
H        0.14822728      -1.89246771      -1.11069838
H       -1.98935729      -1.42383785       0.03655917
H       -2.28301611       0.93885705       0.80529694
H       -0.03604233       2.28492583       0.13567719
13
Frame=1 idx=000686 GeodesicLength=0.0723308106993313 rxn_smarts="[C:1]([c:2]1[c:3]([H:10])[n:4]([H:11])[c:5]([H:12])[c:6]1[H:13])([H:7])([H:8])[H:9]>>[C:1](=[C:2]1[C-:3]([H:10])[N+:4]([H:7])([H:11])[C:5]([H:12])=[C:6]1[H:13])([H:8])[H:9]"
C        1.88670272       0.09896118      -0.17330912
C        0.60205439       0.25951354      -0.61702092
C       -0.18440868      -0.90503572      -0.81836727
N       -1.28243587      -0.72837075      -0.11061066
C       -1.40204816       0.61778064       0.28291209
C       -0.30626845       1.27390519      -0.13505563
H       -0.01113110      -0.67404041       1.88557037
H        2.44530932      -0.79820535      -0.40760434
H        2.43029964       0.93168075       0.25221245
H        0.13786211      -1.88616628      -1.12954644
H       -1.99468524      -1.42122823       0.04126953
H       -2.28001971       0.94376223       0.81400261
H       -0.04123096       2.28744323       0.11554734
13
Frame=2 idx=000686 GeodesicLength=0.1450542564234477 rxn_smarts="[C:1]([c:2]1[c:3]([H:10])[n:4]([H:11])[c:5]([H:12])[c:6]1[H:13])([H:7])([H:8])[H:9]>>[C:1](=[C:2]1[C-:3]([H:10])[N+:4]([H:7])([H:11])[C:5]([H:12])=[C:6]1[H:13])([H:8])[H:9]"
C        1.87425114       0.08672030      -0.12907609
C        0.60220365       0.25833906      -0.61913731
C       -0.19177333      -0.89940827      -0.83149755
N       -1.27042311      -0.73455889      -0.07703727
C       -1.40804896       0.62230850       0.27577852
C       -0.31285697       1.27540222      -0.15070251
H        0.03426514      -0.68366497       1.83617446
H        2.44264052      -0.79852860      -0.38605840
H        2.42267562       0.93395147       0.26121632
H        0.12817174      -1.88052305      -1.14561575
H       -1.99788260      -1.41772108       0.04692673
H       -2.27743367       0.94856577       0.82082825
H       -0.04578916       2.28911753       0.09820059
13
Frame=3 idx=000686 GeodesicLength=0.21795285355054217 rxn_smarts="[C:1]([c:2]1[c:3]([H:10])[n:4]([H:11])[c:5]([H:12])[c:6]1[H:13])([H:7])([H:8])[H:9]>>[C:1](=[C:2]1[C-:3]([H:10])[N+:4]([H:7])([H:11])[C:5]([H:12])=[C:6]1[H:13])([H:8])[H:9]"
C        1.86224897       0.07637970      -0.09054791
C        0.60231138       0.25740166      -0.62196655
C       -0.19875813      -0.89403525      -0.84337371
N       -1.25865833      -0.73956263      -0.04611220
C       -1.41371214       0.62618986       0.26892485
C       -0.31889778       1.27654929      -0.16499926
H        0.07607830      -0.69329828       1.78779215
H        2.43962542      -0.79819648      -0.36507648
H        2.41449556       0.93420468       0.27142830
H        0.11885242      -1.87531502      -1.15979513
H       -1.99845271      -1.41395145       0.05488815
H       -2.27533965       0.95339691       0.82584078
H       -0.04979331       2.29023702       0.08299700
13
Frame=4 idx=000686 GeodesicLength=0.2908955747844881 rxn_smarts="[C:1]([c:2]1[c:3]([H:10])[n:4]([H:11])[c:5]([H:12])[c:6]1[H:13])([H:7])([H:8])[H:9]>>[C:1](=[C:2]1[C-:3]([H:10])[N+:4]([H:7])([H:11])[C:5]([H:12])=[C:6]1[H:13])([H:8])[H:9]"
C        1.85077501       0.06744820      -0.05652398
C        0.60243590       0.25663209      -0.62527700
C       -0.20541614      -0.88885706      -0.85430027
N       -1.24723343      -0.74343826      -0.01760827
C       -1.41904831       0.62958632       0.26239219
C       -0.32440683       1.27742485      -0.17807649
H        0.11445290      -0.70309205       1.74039034
H        2.43652874      -0.79745215      -0.34505212
H        2.40597492       0.93320053       0.28265120
H        0.10976503      -1.87047540      -1.17246833
H       -1.99671258      -1.41025288       0.06520433
H       -2.27384125       0.95833560       0.82910461
H       -0.05327396       2.29094021       0.06956379
13
Frame=5 idx=000686 GeodesicLength=0.3637901377273001 rxn_smarts="[C:1]([c:2]1[c:3]([H:10])[n:4]([H:11])[c:5]([H:12])[c:6]1[H:13])([H:7])([H:8])[H:9]>>[C:1](=[C:2]1[C-:3]([H:10])[N+:4]([H:7])([H:11])[C:5]([H:12])=[C:6]1[H:13])([H:8])[H:9]"
C        1.83986492       0.05958850      -0.02614627
C        0.60260775       0.25597204      -0.62891772
C       -0.21179312      -0.88384351      -0.86447600
N       -1.23614680      -0.74630223       0.00881894
C       -1.42405989       0.63259202       0.25622451
C       -0.32942681       1.27808110      -0.19008555
H        0.14971216      -0.71308232       1.69397380
H        2.43349360      -0.79640766      -0.32606878
H        2.39722811       0.93139271       0.29467324
H        0.10082167      -1.86596639      -1.18391929
H       -1.99305734      -1.40672785       0.07753829
H       -2.27295786       0.96337331       0.83081947
H       -0.05628639       2.29133028       0.05756537
13
Frame=6 idx=000686 GeodesicLength=0.43663005711936675 rxn_smarts="[C:1]([c:2]1[c:3]([H:10])[n:4]([H:11])[c:5]([H:12])[c:6]1[H:13])([H:7])([H:8])[H:9]>>[C:1](=[C:2]1[C-:3]([H:10])[N+:4]([H:7])([H:11])[C:5]([H:12])=[C:6]1[H:13])([H:8])[H:9]"
C        1.82952759       0.05253748       0.00134030
C        0.60286759       0.25533893      -0.63270411
C       -0.21789358      -0.87901911      -0.87394925
N       -1.22529365      -0.74834194       0.03364617
C       -1.42877400       0.63527032       0.25044348
C       -0.33398812       1.27852280      -0.20110036
H        0.18210588      -0.72320891       1.64864330
H        2.43071464      -0.79507670      -0.30828795
H        2.38844350       0.92922161       0.30705708
H        0.09200983      -1.86180322      -1.19423372
H       -1.98817975      -1.40334690       0.09112396
H       -2.27267162       0.96846597       0.83121492
H       -0.05886832       2.29143965       0.04680616
13
Frame=7 idx=000686 GeodesicLength=0.5094066737128788 rxn_smarts="[C:1]([c:2]1[c:3]([H:10])[n:4]([H:11])[c:5]([H:12])[c:6]1[H:13])([H:7])([H:8])[H:9]>>[C:1](=[C:2]1[C-:3]([H:10])[N+:4]([H:7])([H:11])[C:5]([H:12])=[C:6]1[H:13])([H:8])[H:9]"
C        1.81974799       0.04611534       0.02647503
C        0.60322653       0.25469170      -0.63655125
C       -0.22374558      -0.87437729      -0.88280666
N       -1.21462679      -0.74967858       0.05716314
C       -1.43321238       0.63766301       0.24503823
C       -0.33813682       1.27876891      -0.21123471
H        0.21191063      -0.73343560       1.60439516
H        2.42825763      -0.79348528      -0.29167921
H        2.37968668       0.92688862       0.31960512
H        0.08329549      -1.85796515      -1.20355959
H       -1.98239521      -1.40006455       0.10556067
H       -2.27293207       0.97356200       0.83051397
H       -0.06107611       2.29131688       0.03708009
13
Frame=8 idx=000686 GeodesicLength=0.5820958232632468 rxn_smarts="[C:1]([c:2]1[c:3]([H:10])[n:4]([H:11])[c:5]([H:12])[c:6]1[H:13])([H:7])([H:8])[H:9]>>[C:1](=[C:2]1[C-:3]([H:10])[N+:4]([H:7])([H:11])[C:5]([H:12])=[C:6]1[H:13])([H:8])[H:9]"
C        1.81050941       0.04021031       0.04960092
C        0.60368793       0.25399728      -0.64040753
C       -0.22936993      -0.86991959      -0.89110879
N       -1.20408283      -0.75043489       0.07964483
C       -1.43739459       0.63980143       0.23999461
C       -0.34191380       1.27883080      -0.22058455
H        0.23938380      -0.74370254       1.56122404
H        2.42615409      -0.79164601      -0.27615060
H        2.37099045       0.92453100       0.33217035
H        0.07466599      -1.85443769      -1.21199555
H       -1.97601727      -1.39682525       0.12044764
H       -2.27366441       0.97861144       0.82892447
H       -0.06294884       2.29098372       0.02824017
13
Frame=9 idx=000686 GeodesicLength=0.6544578729186225 rxn_smarts="[C:1]([c:2]1[c:3]([H:10])[n:4]([H:11])[c:5]([H:12])[c:6]1[H:13])([H:7])([H:8])[H:9]>>[C:1](=[C:2]1[C-:3]([H:10])[N+:4]([H:7])([H:11])[C:5]([H:12])=[C:6]1[H:13])([H:8])[H:9]"
C        1.80185453       0.03485313       0.07066530
C        0.60422838       0.25326162      -0.64424183
C       -0.23475665      -0.86565020      -0.89882285
N       -1.19361591      -0.75069652       0.10134060
C       -1.44137294       0.64172670       0.23524604
C       -0.34530454       1.27871063      -0.22908990
H        0.26441954      -0.75408016       1.51903707
H        2.42443851      -0.78950652      -0.26187041
H        2.36237006       0.92210415       0.34480722
H        0.06617706      -1.85124949      -1.21949734
H       -1.96903834      -1.39356915       0.13580143
H       -2.27493541       0.98365638       0.82625294
H       -0.06446429       2.29043944       0.02037175
13
Frame=10 idx=000686 GeodesicLength=0.7268117302250986 rxn_smarts="[C:1]([c:2]1[c:3]([H:10])[n:4]([H:11])[c:5]([H:12])[c:6]1[H:13])([H:7])([H:8])[H:9]>>[C:1](=[C:2]1[C-:3]([H:10])[N+:4]([H:7])([H:11])[C:5]([H:12])=[C:6]1[H:13])([H:8])[H:9]"
C        1.79366383       0.02977094       0.09044434
C        0.60487168       0.25243965      -0.64802351
C       -0.23997275      -0.86153875      -0.90613374
N       -1.18322798      -0.75051007       0.12230313
C       -1.44514252       0.64344704       0.23078250
C       -0.34840636       1.27843922      -0.23701594
H        0.28758495      -0.76442832       1.47784487
H        2.42310376      -0.78715159      -0.24848775
H        2.35385573       0.91984678       0.35724986
H        0.05770684      -1.84832311      -1.22634010
H       -1.96176969      -1.39029624       0.15119312
H       -2.27654173       0.98857184       0.82306015
H       -0.06572576       2.28973261       0.01312307
13
Frame=11 idx=000686 GeodesicLength=0.7991584233763933 rxn_smarts="[C:1]([c:2]1[c:3]([H:10])[n:4]([H:11])[c:5]([H:12])[c:6]1[H:13])([H:7])([H:8])[H:9]>>[C:1](=[C:2]1[C-:3]([H:10])[N+:4]([H:7])([H:11])[C:5]([H:12])=[C:6]1[H:13])([H:8])[H:9]"
C        1.78588539       0.02492159       0.10909957
C        0.60560503       0.25153674      -0.65176898
C       -0.24504289      -0.85756017      -0.91311454
N       -1.17290050      -0.74992029       0.14261833
C       -1.44871757       0.64498099       0.22658017
C       -0.35125866       1.27803917      -0.24445284
H        0.30911280      -0.77471562       1.43756202
H        2.42209981      -0.78460970      -0.23586633
H        2.34540485       0.91771787       0.36954567
H        0.04923505      -1.84562297      -1.23262559
H       -1.95423010      -1.38699598       0.16658405
H       -2.27842245       0.99333495       0.81945047
H       -0.06677075       2.28889342       0.00638800
13
Frame=12 idx=000686 GeodesicLength=0.8715129794788493 rxn_smarts="[C:1]([c:2]1[c:3]([H:10])[n:4]([H:11])[c:5]([H:12])[c:6]1[H:13])([H:7])([H:8])[H:9]>>[C:1](=[C:2]1[C-:3]([H:10])[N+:4]([H:7])([H:11])[C:5]([H:12])=[C:6]1[H:13])([H:8])[H:9]"
C        1.77847931       0.02027023       0.12676727
C        0.60641931       0.25055489      -0.65548831
C       -0.24998435      -0.85369949      -0.91981090
N       -1.16260526      -0.74897200       0.16239235
C       -1.45210959       0.64634212       0.22262109
C       -0.35388825       1.27752416      -0.25146476
H        0.32917429      -0.78491497       1.39811651
H        2.42139823      -0.78189255      -0.22391574
H        2.33699285       0.91570407       0.38170376
H        0.04075145      -1.84312794      -1.23841648
H       -1.94647548      -1.38365544       0.18189740
H       -2.28053199       0.99793221       0.81549877
H       -0.06762053       2.28793470       0.00009905
13
Frame=13 idx=000686 GeodesicLength=0.9439399057901359 rxn_smarts="[C:1]([c:2]1[c:3]([H:10])[n:4]([H:11])[c:5]([H:12])[c:6]1[H:13])([H:7])([H:8])[H:9]>>[C:1](=[C:2]1[C-:3]([H:10])[N+:4]([H:7])([H:11])[C:5]([H:12])=[C:6]1[H:13])([H:8])[H:9]"
C        1.77138843       0.01577523       0.14360116
C        0.60730503       0.24950242      -0.65920144
C       -0.25481916      -0.84993345      -0.92628397
N       -1.15232099      -0.74769586       0.18169004
C       -1.45533365       0.64754795       0.21887256
C       -0.35632765       1.27691216      -0.25812966
H        0.34794453      -0.79500221       1.35940924
H        2.42095132      -0.77902525      -0.21252701
H        2.32858575       0.91377224       0.39376728
H        0.03223814      -1.84080832      -1.24380350
H       -1.93849189      -1.38027252       0.19714070
H       -2.28281499       1.00235033       0.81129310
H       -0.06830488       2.28687728      -0.00582849
13
Frame=14 idx=000686 GeodesicLength=1.0164041713133052 rxn_smarts="[C:1]([c:2]1[c:3]([H:10])[n:4]([H:11])[c:5]([H:12])[c:6]1[H:13])([H:7])([H:8])[H:9]>>[C:1](=[C:2]1[C-:3]([H:10])[N+:4]([H:7])([H:11])[C:5]([H:12])=[C:6]1[H:13])([H:8])[H:9]"
C        1.76457613       0.01141246       0.15968370
C        0.60825783       0.24837919      -0.66291082
C       -0.25956075      -0.84625061      -0.93256561
N       -1.14202995      -0.74611439       0.20055641
C       -1.45840050       0.64860884       0.21531593
C       -0.35859386       1.27620855      -0.26448492
H        0.36552311      -0.80496318       1.32136849
H        2.42073361      -0.77601774      -0.20162974
H        2.32016627       0.91191955       0.40574156
H        0.02368589      -1.83864910      -1.24882071
H       -1.93028711      -1.37684266       0.21229515
H       -2.28523523       1.00658646       0.80687687
H       -0.06883544       2.28572263      -0.01142631
13
Frame=15 idx=000686 GeodesicLength=1.0889593956137662 rxn_smarts="[C:1]([c:2]1[c:3]([H:10])[n:4]([H:11])[c:5]([H:12])[c:6]1[H:13])([H:7])([H:8])[H:9]>>[C:1](=[C:2]1[C-:3]([H:10])[N+:4]([H:7])([H:11])[C:5]([H:12])=[C:6]1[H:13])([H:8])[H:9]"
C        1.75799447       0.00714924       0.17512170
C        0.60927184       0.24719062      -0.66662933
C       -0.26422644      -0.84263400      -0.93869857
N       -1.13170983      -0.74424862       0.21904824
C       -1.46131840       0.64953253       0.21193507
C       -0.36070892       1.27542476      -0.27058330
H        0.38203313      -0.81477785       1.28390848
H        2.42070776      -0.77288906      -0.19114316
H        2.31171487       0.91012856       0.41765558
H        0.01507966      -1.83662822      -1.25353018
H       -1.92185004      -1.37336720       0.22736565
H       -2.28775665       1.01063575       0.80230011
H       -0.06923146       2.28448350      -0.01675028
13
Frame=16 idx=000686 GeodesicLength=1.1616567940396823 rxn_smarts="[C:1]([c:2]1[c:3]([H:10])[n:4]([H:11])[c:5]([H:12])[c:6]1[H:13])([H:7])([H:8])[H:9]>>[C:1](=[C:2]1[C-:3]([H:10])[N+:4]([H:7])([H:11])[C:5]([H:12])=[C:6]1[H:13])([H:8])[H:9]"
C        1.75159832       0.00295533       0.19000540
C        0.61034304       0.24594064      -0.67036787
C       -0.26882964      -0.83906978      -0.94471831
N       -1.12133653      -0.74211858       0.23721423
C       -1.46409673       0.65032708       0.20870941
C       -0.36269066       1.27456803      -0.27646755
H        0.39757175      -0.82442033       1.24694917
H        2.42084010      -0.76965533      -0.18100111
H        2.30321330       0.90838541       0.42953402
H        0.00640687      -1.83472570      -1.25798282
H       -1.91316653      -1.36984910       0.24236157
H       -2.29034587       1.01449692       0.79760478
H       -0.06950741       2.28316542      -0.02184093
