12
Frame=0 idx=004671 GeodesicLength=0.0 rxn_smarts="[O:1]=[C:2]1[C:3]([H:7])([H:8])[C@@:4]2([H:9])[C:5]([H:10])([H:11])[C@@:6]12[H:12]>>[O:1]([C:2]1=[C:3]([H:8])[C@@:4]2([H:9])[C:5]([H:10])([H:11])[C@@:6]12[H:12])[H:7]"
O       -1.65591370       1.62578748       0.36152068
C       -0.67474947       0.89335189       0.00013495
C       -1.05947612      -0.30190261      -0.71645789
C        0.04179799      -0.89552893       0.17237203
C        1.37666529      -0.39891356      -0.19480309
C        0.56492655       0.57043911       0.63236650
H       -2.18733410       0.64264487      -0.14896027
H       -0.93843159      -0.42840192      -1.78815866
H       -0.12183263      -1.63000463       0.94994599
H        1.56880816      -0.15712552      -1.23419183
H        2.22735820      -0.80380209       0.34220131
H        0.85818142       0.88345586       1.62403023
12
Frame=1 idx=004671 GeodesicLength=0.05165981778886846 rxn_smarts="[O:1]=[C:2]1[C:3]([H:7])([H:8])[C@@:4]2([H:9])[C:5]([H:10])([H:11])[C@@:6]12[H:12]>>[O:1]([C:2]1=[C:3]([H:8])[C@@:4]2([H:9])[C:5]([H:10])([H:11])[C@@:6]12[H:12])[H:7]"
O       -1.65113228       1.63841790       0.34780814
C       -0.66979385       0.90203087      -0.00513221
C       -1.05758159      -0.30061379      -0.70790417
C        0.04519255      -0.89627614       0.17632113
C        1.37885809      -0.39610816      -0.19461809
C        0.56285102       0.56334924       0.63998008
H       -2.19573727       0.64394172      -0.15838694
H       -0.95446755      -0.43798801      -1.78011793
H       -0.11411246      -1.64085928       0.94492575
H        1.56816774      -0.14856724      -1.23317439
H        2.23202727      -0.80161836       0.33795864
H        0.85572832       0.87429126       1.63233999
12
Frame=2 idx=004671 GeodesicLength=0.10331377288284223 rxn_smarts="[O:1]=[C:2]1[C:3]([H:7])([H:8])[C@@:4]2([H:9])[C:5]([H:10])([H:11])[C@@:6]12[H:12]>>[O:1]([C:2]1=[C:3]([H:8])[C@@:4]2([H:9])[C:5]([H:10])([H:11])[C@@:6]12[H:12])[H:7]"
O       -1.64617311       1.65092434       0.33408937
C       -0.66465032       0.91072288      -0.01044670
C       -1.05567887      -0.29912916      -0.69932167
C        0.04858427      -0.89707921       0.18017585
C        1.38105738      -0.39327535      -0.19435159
C        0.56071630       0.55628572       0.64745019
H       -2.20418646       0.64505808      -0.16789257
H       -0.97078140      -0.44747874      -1.77165616
H       -0.10636004      -1.65173484       0.93959472
H        1.56761921      -0.14012719      -1.23205744
H        2.23664381      -0.79932382       0.33390788
H        0.85320923       0.86515729       1.64050814
12
Frame=3 idx=004671 GeodesicLength=0.15495206666494094 rxn_smarts="[O:1]=[C:2]1[C:3]([H:7])([H:8])[C@@:4]2([H:9])[C:5]([H:10])([H:11])[C@@:6]12[H:12]>>[O:1]([C:2]1=[C:3]([H:8])[C@@:4]2([H:9])[C:5]([H:10])([H:11])[C@@:6]12[H:12])[H:7]"
O       -1.64103980       1.66330346       0.32035639
C       -0.65932032       0.91942586      -0.01581009
C       -1.05376227      -0.29744304      -0.69071825
C        0.05197318      -0.89793173       0.18393381
C        1.38326178      -0.39041897      -0.19400246
C        0.55852436       0.54925049       0.65476926
H       -2.21268356       0.64596503      -0.17745745
H       -0.98736286      -0.45685207      -1.76276274
H       -0.09858127      -1.66261344       0.93395155
H        1.56716338      -0.13181009      -1.23084006
H        2.24120325      -0.79692764       0.33005430
H        0.85062412       0.85605216       1.64852574
12
Frame=4 idx=004671 GeodesicLength=0.20657551859225837 rxn_smarts="[O:1]=[C:2]1[C:3]([H:7])([H:8])[C@@:4]2([H:9])[C:5]([H:10])([H:11])[C@@:6]12[H:12]>>[O:1]([C:2]1=[C:3]([H:8])[C@@:4]2([H:9])[C:5]([H:10])([H:11])[C@@:6]12[H:12])[H:7]"
O       -1.63575706       1.67552832       0.30664808
C       -0.65381192       0.92814099      -0.02121886
C       -1.05182387      -0.29554962      -0.68212044
C        0.05534991      -0.89882748       0.18759114
C        1.38547640      -0.38755200      -0.19357250
C        0.55628351       0.54225496       0.66192227
H       -2.22124370       0.64661686      -0.18705703
H       -1.00417553      -0.46606538      -1.75345436
H       -0.09081238      -1.67346043       0.92801185
H        1.56681936      -0.12364186      -1.22952973
H        2.24570211      -0.79445143       0.32640836
H        0.84799317       0.84700707       1.65637121
12
Frame=5 idx=004671 GeodesicLength=0.25819168292686967 rxn_smarts="[O:1]=[C:2]1[C:3]([H:7])([H:8])[C@@:4]2([H:9])[C:5]([H:10])([H:11])[C@@:6]12[H:12]>>[O:1]([C:2]1=[C:3]([H:8])[C@@:4]2([H:9])[C:5]([H:10])([H:11])[C@@:6]12[H:12])[H:7]"
O       -1.63031549       1.68762441       0.29292787
C       -0.64812182       0.93686693      -0.02667250
C       -1.04986601      -0.29345039      -0.67352316
C        0.05871672      -0.89976407       0.19114621
C        1.38770243      -0.38467041      -0.19306200
C        0.55399400       0.53529822       0.66891691
H       -2.22986955       0.64700640      -0.19668360
H       -1.02123309      -0.47513066      -1.74370861
H       -0.08304529      -1.68428274       0.92175976
H        1.56658760      -0.11560730      -1.22812691
H        2.25014435      -0.79189491       0.32296627
H        0.84530616       0.83800452       1.66405976
12
Frame=6 idx=004671 GeodesicLength=0.30980404462380096 rxn_smarts="[O:1]=[C:2]1[C:3]([H:7])([H:8])[C@@:4]2([H:9])[C:5]([H:10])([H:11])[C@@:6]12[H:12]>>[O:1]([C:2]1=[C:3]([H:8])[C@@:4]2([H:9])[C:5]([H:10])([H:11])[C@@:6]12[H:12])[H:7]"
O       -1.62470582       1.69961335       0.27915780
C       -0.64224690       0.94560052      -0.03217094
C       -1.04788981      -0.29114789      -0.66492313
C        0.06207662      -0.90073827       0.19459674
C        1.38994248      -0.38177083      -0.19247379
C        0.55165751       0.52837987       0.67575763
H       -2.23856360       0.64712063      -0.20632181
H       -1.03854383      -0.48404953      -1.73350508
H       -0.07527600      -1.69507590       0.91518785
H        1.56646947      -0.10769617      -1.22663579
H        2.25453419      -0.78925834       0.31972236
H        0.84254568       0.82902255       1.67160815
12
Frame=7 idx=004671 GeodesicLength=0.3614070611845656 rxn_smarts="[O:1]=[C:2]1[C:3]([H:7])([H:8])[C@@:4]2([H:9])[C:5]([H:10])([H:11])[C@@:6]12[H:12]>>[O:1]([C:2]1=[C:3]([H:8])[C@@:4]2([H:9])[C:5]([H:10])([H:11])[C@@:6]12[H:12])[H:7]"
O       -1.61894445       1.71147613       0.26535888
C       -0.63619248       0.95434439      -0.03771769
C       -1.04588669      -0.28863314      -0.65634711
C        0.06542084      -0.90174162       0.19793865
C        1.39219742      -0.37886582      -0.19180773
C        0.54928024       0.52150868       0.68242926
H       -2.24733634       0.64690991      -0.21592746
H       -1.05606920      -0.49278468      -1.72285780
H       -0.06753627      -1.70580898       0.90830709
H        1.56647749      -0.09992571      -1.22505804
H        2.25886601      -0.78656144       0.31668661
H        0.83972343       0.82008227       1.67899534
12
Frame=8 idx=004671 GeodesicLength=0.41299433243211964 rxn_smarts="[O:1]=[C:2]1[C:3]([H:7])([H:8])[C@@:4]2([H:9])[C:5]([H:10])([H:11])[C@@:6]12[H:12]>>[O:1]([C:2]1=[C:3]([H:8])[C@@:4]2([H:9])[C:5]([H:10])([H:11])[C@@:6]12[H:12])[H:7]"
O       -1.61305295       1.72319026       0.25155866
C       -0.62996665       0.96309966      -0.04331213
C       -1.04384673      -0.28589954      -0.64782341
C        0.06874065      -0.90276542       0.20116890
C        1.39446849      -0.37596788      -0.19106530
C        0.54686886       0.51469434       0.68891735
H       -2.25620016       0.64632278      -0.22546063
H       -1.07376368      -0.50129247      -1.71178760
H       -0.05986117      -1.71644676       0.90113546
H        1.56662443      -0.09231541      -1.22339772
H        2.26313210      -0.78382901       0.31386716
H        0.83685681       0.81120944       1.68619925
12
Frame=9 idx=004671 GeodesicLength=0.46457439691917046 rxn_smarts="[O:1]=[C:2]1[C:3]([H:7])([H:8])[C@@:4]2([H:9])[C:5]([H:10])([H:11])[C@@:6]12[H:12]>>[O:1]([C:2]1=[C:3]([H:8])[C@@:4]2([H:9])[C:5]([H:10])([H:11])[C@@:6]12[H:12])[H:7]"
O       -1.60701809       1.73478425       0.23771108
C       -0.62356502       0.97186501      -0.04895715
C       -1.04177356      -0.28295000      -0.63934829
C        0.07203759      -0.90380629       0.20428558
C        1.39675829      -0.37307383      -0.19024797
C        0.54442467       0.50793645       0.69522823
H       -2.26515923       0.64534840      -0.23489840
H       -1.09163776      -0.50958095      -1.70027430
H       -0.05224387      -1.72699436       0.89365920
H        1.56691202      -0.08485017      -1.22165620
H        2.26733857      -0.78105931       0.31125930
H        0.83392638       0.80238081       1.69323892
12
Frame=10 idx=004671 GeodesicLength=0.5161537563450502 rxn_smarts="[O:1]=[C:2]1[C:3]([H:7])([H:8])[C@@:4]2([H:9])[C:5]([H:10])([H:11])[C@@:6]12[H:12]>>[O:1]([C:2]1=[C:3]([H:8])[C@@:4]2([H:9])[C:5]([H:10])([H:11])[C@@:6]12[H:12])[H:7]"
O       -1.60082598       1.74628674       0.22376569
C       -0.61698285       0.98064035      -0.05465791
C       -1.03966970      -0.27978599      -0.63092182
C        0.07531223      -0.90486023       0.20728434
C        1.39906941      -0.37017999      -0.18935624
C        0.54194722       0.50123584       0.70136714
H       -2.27421776       0.64396944      -0.24420167
H       -1.10969908      -0.51765648      -1.68830073
H       -0.04467834      -1.73745516       0.88586115
H        1.56734470      -0.07751617      -1.21983313
H        2.27148763      -0.77825426       0.30886193
H        0.83091252       0.79357590       1.70013125
12
Frame=11 idx=004671 GeodesicLength=0.5677275962301331 rxn_smarts="[O:1]=[C:2]1[C:3]([H:7])([H:8])[C@@:4]2([H:9])[C:5]([H:10])([H:11])[C@@:6]12[H:12]>>[O:1]([C:2]1=[C:3]([H:8])[C@@:4]2([H:9])[C:5]([H:10])([H:11])[C@@:6]12[H:12])[H:7]"
O       -1.59449657       1.75767431       0.20975112
C       -0.61022745       0.98942769      -0.06041448
C       -1.03752476      -0.27639877      -0.62257586
C        0.07855467      -0.90591738       0.21016193
C        1.40140221      -0.36729853      -0.18839053
C        0.53944260       0.49460018       0.70732163
H       -2.28338860       0.64213406      -0.25332533
H       -1.12790190      -0.52548290      -1.67589164
H       -0.03720313      -1.74779698       0.87775637
H        1.56793848      -0.07032509      -1.21792937
H        2.27556903      -0.77544370       0.30668340
H        0.82783541       0.78482711       1.70685274
12
Frame=12 idx=004671 GeodesicLength=0.6192999374717225 rxn_smarts="[O:1]=[C:2]1[C:3]([H:7])([H:8])[C@@:4]2([H:9])[C:5]([H:10])([H:11])[C@@:6]12[H:12]>>[O:1]([C:2]1=[C:3]([H:8])[C@@:4]2([H:9])[C:5]([H:10])([H:11])[C@@:6]12[H:12])[H:7]"
O       -1.58801614       1.76897307       0.19561665
C       -0.60329473       0.99822750      -0.06623343
C       -1.03533955      -0.27278857      -0.61431165
C        0.08176336      -0.90697352       0.21291511
C        1.40375655      -0.36442739      -0.18735049
C        0.53690893       0.48803055       0.71309487
H       -2.29267624       0.63982158      -0.26222150
H       -1.14624096      -0.53306087      -1.66303051
H       -0.02981651      -1.75802449       0.86932733
H        1.56869563      -0.06326604      -1.21594185
H        2.27958371      -0.77262784       0.30472104
H        0.82467595       0.77611603       1.71341443
12
Frame=13 idx=004671 GeodesicLength=0.6708819353404115 rxn_smarts="[O:1]=[C:2]1[C:3]([H:7])([H:8])[C@@:4]2([H:9])[C:5]([H:10])([H:11])[C@@:6]12[H:12]>>[O:1]([C:2]1=[C:3]([H:8])[C@@:4]2([H:9])[C:5]([H:10])([H:11])[C@@:6]12[H:12])[H:7]"
O       -1.58137169       1.78020562       0.18132150
C       -0.59618042       1.00703884      -0.07211996
C       -1.03311891      -0.26895729      -0.60613518
C        0.08493585      -0.90802584       0.21554024
C        1.40613702      -0.36156537      -0.18623710
C        0.53434674       0.48152644       0.71869276
H       -2.30208968       0.63701617      -0.27084994
H       -1.16471955      -0.54039387      -1.64970758
H       -0.02252202      -1.76813948       0.86056042
H        1.56962451      -0.05633042      -1.21387386
H        2.28354121      -0.76980362       0.30297466
H        0.82141695       0.76742882       1.71983405
12
Frame=14 idx=004671 GeodesicLength=0.7224805277124247 rxn_smarts="[O:1]=[C:2]1[C:3]([H:7])([H:8])[C@@:4]2([H:9])[C:5]([H:10])([H:11])[C@@:6]12[H:12]>>[O:1]([C:2]1=[C:3]([H:8])[C@@:4]2([H:9])[C:5]([H:10])([H:11])[C@@:6]12[H:12])[H:7]"
O       -1.57454227       1.79139904       0.16681148
C       -0.58887777       1.01586178      -0.07807932
C       -1.03086546      -0.26490427      -0.59804272
C        0.08807348      -0.90906969       0.21803090
C        1.40854205      -0.35870977      -0.18504964
C        0.53175456       0.47508612       0.72411998
H       -2.31163057       0.63370425      -0.27916790
H       -1.18334063      -0.54749293      -1.63590294
H       -0.01530998      -1.77814558       0.85143162
H        1.57072427      -0.04950366      -1.21171960
H        2.28744013      -0.76696790       0.30144274
H        0.81803219       0.75874261       1.72612539
12
Frame=15 idx=004671 GeodesicLength=0.7740882359870456 rxn_smarts="[O:1]=[C:2]1[C:3]([H:7])([H:8])[C@@:4]2([H:9])[C:5]([H:10])([H:11])[C@@:6]12[H:12]>>[O:1]([C:2]1=[C:3]([H:8])[C@@:4]2([H:9])[C:5]([H:10])([H:11])[C@@:6]12[H:12])[H:7]"
O       -1.56754499       1.80253218       0.15210508
C       -0.58139319       1.02469786      -0.08411794
C       -1.02856964      -0.26062408      -0.59007125
C        0.09116352      -0.91009605       0.22038562
C        1.41097363      -0.35587218      -0.18378928
C        0.52913618       0.46871942       0.72936320
H       -2.32131320       0.62982982      -0.28710554
H       -1.20204788      -0.55431226      -1.62164851
H       -0.00822435      -1.78801231       0.84195828
H        1.57201026      -0.04280226      -1.20948378
H        2.29127454      -0.76414485       0.30013540
H        0.81453512       0.75008470       1.73226871
12
Frame=16 idx=004671 GeodesicLength=0.8256975882892355 rxn_smarts="[O:1]=[C:2]1[C:3]([H:7])([H:8])[C@@:4]2([H:9])[C:5]([H:10])([H:11])[C@@:6]12[H:12]>>[O:1]([C:2]1=[C:3]([H:8])[C@@:4]2([H:9])[C:5]([H:10])([H:11])[C@@:6]12[H:12])[H:7]"
O       -1.56039733       1.81358569       0.13722292
C       -0.57373420       1.03354944      -0.09023805
C       -1.02622192      -0.25611134      -0.58225293
C        0.09419484      -0.91109479       0.22260303
C        1.41342963      -0.35306466      -0.18245763
C        0.52649597       0.46243567       0.73441005
H       -2.33114906       0.62533911      -0.29460090
H       -1.22077993      -0.56080944      -1.60698258
H       -0.00130134      -1.79770722       0.83216242
H        1.57349148      -0.03624029      -1.20716789
H        2.29503264      -0.76136182       0.29905795
H        0.81093924       0.74147964       1.73824360
