13
Frame=0 idx=002365 GeodesicLength=0.0 rxn_smarts="[C:1]1([H:6])([H:7])[C@:2]2([H:8])[C:3]([H:9])([H:10])[C:4]([H:11])([H:12])[C@:5]12[H:13]>>[C:1]1([H:6])([H:7])[C:2]([H:8])([H:13])[C:3]([H:9])([H:10])[C:4]([H:11])([H:12])[C:5]1"
C        1.25856981      -0.59058254      -0.20444024
C        0.60587745       0.47686445       0.63950137
C       -0.63963706       0.93072688      -0.11299096
C       -1.10835497      -0.51462901      -0.39428171
C        0.03285714      -1.26859564       0.33678278
H        1.28458220      -0.36336536      -1.26782373
H        2.20594397      -0.96493091       0.17149477
H        1.22456313       1.09365459       1.28657026
H       -0.42306520       1.55423934      -0.98295015
H       -1.34324428       1.46768526       0.52226682
H       -2.09180290      -0.73543112       0.01774946
H       -1.11668300      -0.79161171      -1.45207872
H        0.11039366      -0.29402428       1.44019999
13
Frame=1 idx=002365 GeodesicLength=0.054783963786028525 rxn_smarts="[C:1]1([H:6])([H:7])[C@:2]2([H:8])[C:3]([H:9])([H:10])[C:4]([H:11])([H:12])[C@:5]12[H:13]>>[C:1]1([H:6])([H:7])[C:2]([H:8])([H:13])[C:3]([H:9])([H:10])[C:4]([H:11])([H:12])[C:5]1"
C        1.26120570      -0.58717686      -0.20236361
C        0.60313811       0.47640965       0.64276125
C       -0.63929297       0.93163975      -0.11451812
C       -1.10872209      -0.51286684      -0.39900969
C        0.03238084      -1.26713365       0.32478860
H        1.29227959      -0.36425674      -1.26687563
H        2.20580114      -0.96557622       0.17651267
H        1.22208656       1.10146086       1.28115209
H       -0.41927753       1.55277858      -0.98536016
H       -1.34458955       1.47106766       0.51675851
H       -2.08478331      -0.73753804       0.02972703
H       -1.13246627      -0.78838784      -1.45665595
H        0.11223978      -0.31042030       1.45308302
13
Frame=2 idx=002365 GeodesicLength=0.10955341161803724 rxn_smarts="[C:1]1([H:6])([H:7])[C@:2]2([H:8])[C:3]([H:9])([H:10])[C:4]([H:11])([H:12])[C@:5]12[H:13]>>[C:1]1([H:6])([H:7])[C:2]([H:8])([H:13])[C:3]([H:9])([H:10])[C:4]([H:11])([H:12])[C:5]1"
C        1.26382910      -0.58370448      -0.20024651
C        0.60035186       0.47601225       0.64602750
C       -0.63894135       0.93259823      -0.11612830
C       -1.10912372      -0.51107954      -0.40367989
C        0.03198155      -1.26550898       0.31281951
H        1.30003960      -0.36511944      -1.26585320
H        2.20561767      -0.96616550       0.18155087
H        1.21943213       1.10922638       1.27575882
H       -0.41545904       1.55128497      -0.98788052
H       -1.34590348       1.47454773       0.51111225
H       -2.07756302      -0.73955918       0.04154926
H       -1.14854964      -0.78519037      -1.46092853
H        0.11428836      -0.32734206       1.46589875
13
Frame=3 idx=002365 GeodesicLength=0.16370728410399077 rxn_smarts="[C:1]1([H:6])([H:7])[C@:2]2([H:8])[C:3]([H:9])([H:10])[C:4]([H:11])([H:12])[C@:5]12[H:13]>>[C:1]1([H:6])([H:7])[C:2]([H:8])([H:13])[C:3]([H:9])([H:10])[C:4]([H:11])([H:12])[C:5]1"
C        1.26646463      -0.58020804      -0.19812169
C        0.59754264       0.47560319       0.64932482
C       -0.63858086       0.93355288      -0.11775444
C       -1.10953777      -0.50929823      -0.40833050
C        0.03161052      -1.26386008       0.30087817
H        1.30781230      -0.36597659      -1.26481502
H        2.20545343      -0.96672365       0.18658799
H        1.21673835       1.11698989       1.27039369
H       -0.41161983       1.54976704      -0.99042054
H       -1.34720952       1.47804634       0.50542991
H       -2.07030223      -0.74153655       0.05324894
H       -1.16476151      -0.78199432      -1.46503829
H        0.11638985      -0.34436188       1.47861695
13
Frame=4 idx=002365 GeodesicLength=0.21840927278615496 rxn_smarts="[C:1]1([H:6])([H:7])[C@:2]2([H:8])[C:3]([H:9])([H:10])[C:4]([H:11])([H:12])[C@:5]12[H:13]>>[C:1]1([H:6])([H:7])[C:2]([H:8])([H:13])[C:3]([H:9])([H:10])[C:4]([H:11])([H:12])[C:5]1"
C        1.26905722      -0.57660605      -0.19592089
C        0.59466552       0.47532964       0.65259150
C       -0.63821490       0.93460373      -0.11953361
C       -1.11000096      -0.50746511      -0.41288883
C        0.03136075      -1.26191129       0.28897059
H        1.31569744      -0.36678340      -1.26363638
H        2.20518722      -0.96720055       0.19166723
H        1.21373927       1.12466413       1.26506125
H       -0.40774675       1.54820871      -0.99316342
H       -1.34846114       1.48171585       0.49950632
H       -2.06271035      -0.74337697       0.06474997
H       -1.18141946      -0.77885425      -1.46868193
H        0.11884614      -0.36232444       1.49127821
13
Frame=5 idx=002365 GeodesicLength=0.27311431352021676 rxn_smarts="[C:1]1([H:6])([H:7])[C@:2]2([H:8])[C:3]([H:9])([H:10])[C:4]([H:11])([H:12])[C@:5]12[H:13]>>[C:1]1([H:6])([H:7])[C:2]([H:8])([H:13])[C:3]([H:9])([H:10])[C:4]([H:11])([H:12])[C:5]1"
C        1.27163282      -0.57293638      -0.19367077
C        0.59173930       0.47512894       0.65585528
C       -0.63784362       0.93570841      -0.12140546
C       -1.11049506      -0.50560475      -0.41739114
C        0.03117710      -1.25978596       0.27709668
H        1.32365053      -0.36756449      -1.26237190
H        2.20487437      -0.96762013       0.19677389
H        1.21056429       1.13229793       1.25976119
H       -0.40384879       1.54661787      -0.99602932
H       -1.34968270       1.48548899       0.49343236
H       -2.05492904      -0.74512640       0.07609210
H       -1.19836439      -0.77574157      -1.47198742
H        0.12152519      -0.38086246       1.50384451
13
Frame=6 idx=002365 GeodesicLength=0.327827445860182 rxn_smarts="[C:1]1([H:6])([H:7])[C@:2]2([H:8])[C:3]([H:9])([H:10])[C:4]([H:11])([H:12])[C@:5]12[H:13]>>[C:1]1([H:6])([H:7])[C:2]([H:8])([H:13])[C:3]([H:9])([H:10])[C:4]([H:11])([H:12])[C:5]1"
C        1.27418820      -0.56919824      -0.19137031
C        0.58876177       0.47500401       0.65911210
C       -0.63746738       0.93686882      -0.12337337
C       -1.11101997      -0.50371673      -0.42184162
C        0.03106143      -1.25748629       0.26525831
H        1.33167154      -0.36831830      -1.26101654
H        2.20451177      -0.96797986       0.20190916
H        1.20721450       1.13988892       1.25449726
H       -0.39992500       1.54499621      -0.99902009
H       -1.35087486       1.48936610       0.48720244
H       -2.04696324      -0.74677710       0.08727855
H       -1.21559148      -0.77266193      -1.47494798
H        0.12443272      -0.39998559       1.51631210
13
Frame=7 idx=002365 GeodesicLength=0.3825600677139329 rxn_smarts="[C:1]1([H:6])([H:7])[C@:2]2([H:8])[C:3]([H:9])([H:10])[C:4]([H:11])([H:12])[C@:5]12[H:13]>>[C:1]1([H:6])([H:7])[C:2]([H:8])([H:13])[C:3]([H:9])([H:10])[C:4]([H:11])([H:12])[C:5]1"
C        1.27672017      -0.56538822      -0.18901792
C        0.58572902       0.47495830       0.66235920
C       -0.63708613       0.93808800      -0.12544146
C       -1.11157531      -0.50180101      -0.42624285
C        0.03101955      -1.25501500       0.25345456
H        1.33976447      -0.36903957      -1.25956285
H        2.20409529      -0.96827693       0.20707703
H        1.20368896       1.14743360       1.24926987
H       -0.39597335       1.54334442      -1.00213819
H       -1.35203721       1.49334901       0.48080769
H       -2.03882462      -0.74831785       0.09831612
H       -1.23310043      -0.76962353      -1.47755894
H        0.12757960      -0.41971123       1.52867773
13
Frame=8 idx=002365 GeodesicLength=0.4379616156787162 rxn_smarts="[C:1]1([H:6])([H:7])[C@:2]2([H:8])[C:3]([H:9])([H:10])[C:4]([H:11])([H:12])[C@:5]12[H:13]>>[C:1]1([H:6])([H:7])[C:2]([H:8])([H:13])[C:3]([H:9])([H:10])[C:4]([H:11])([H:12])[C:5]1"
C        1.27918057      -0.56147201      -0.18653557
C        0.58260676       0.47511033       0.66557395
C       -0.63671272       0.93944490      -0.12770853
C       -1.11218792      -0.49979228      -0.43053047
C        0.03103102      -1.25215077       0.24179178
H        1.34797168      -0.36971645      -1.25794999
H        2.20356031      -0.96845208       0.21231440
H        1.19985100       1.15495932       1.24412502
H       -0.39197788       1.54165782      -1.00554655
H       -1.35315283       1.49759026       0.47409433
H       -2.03031143      -0.74970099       0.10918048
H       -1.25103541      -0.76667855      -1.47958984
H        0.13117686      -0.44079949       1.54078099
13
Frame=9 idx=002365 GeodesicLength=0.49328220379219084 rxn_smarts="[C:1]1([H:6])([H:7])[C@:2]2([H:8])[C:3]([H:9])([H:10])[C:4]([H:11])([H:12])[C@:5]12[H:13]>>[C:1]1([H:6])([H:7])[C:2]([H:8])([H:13])[C:3]([H:9])([H:10])[C:4]([H:11])([H:12])[C:5]1"
C        1.28164436      -0.55754719      -0.18411274
C        0.57946604       0.47526573       0.66875859
C       -0.63632739       0.94082793      -0.13002126
C       -1.11277099      -0.49777753      -0.43488886
C        0.03110946      -1.24930475       0.23000247
H        1.35619770      -0.37036391      -1.25638193
H        2.20306890      -0.96864739       0.21765040
H        1.19596221       1.16242237       1.23897375
H       -0.38795155       1.53998143      -1.00893621
H       -1.35427617       1.50176918       0.46734674
H       -2.02177980      -0.75105445       0.12004873
H       -1.26910074      -0.76372464      -1.48148853
H        0.13475798      -0.46184679       1.55304886
13
Frame=10 idx=002365 GeodesicLength=0.5474985576924084 rxn_smarts="[C:1]1([H:6])([H:7])[C@:2]2([H:8])[C:3]([H:9])([H:10])[C:4]([H:11])([H:12])[C@:5]12[H:13]>>[C:1]1([H:6])([H:7])[C:2]([H:8])([H:13])[C:3]([H:9])([H:10])[C:4]([H:11])([H:12])[C:5]1"
C        1.28417510      -0.55344358      -0.18154520
C        0.57623023       0.47542275       0.67203274
C       -0.63590820       0.94219577      -0.13240194
C       -1.11346836      -0.49580970      -0.43910543
C        0.03124740      -1.24631791       0.21824002
H        1.36458130      -0.37101007      -1.25451608
H        2.20245246      -0.96875584       0.22292558
H        1.19187823       1.16990496       1.23393599
H       -0.38389965       1.53816159      -1.01249184
H       -1.35534659       1.50613954       0.46038051
H       -2.01312188      -0.75227207       0.13057395
H       -1.28759657      -0.76074083      -1.48285892
H        0.13877653      -0.48347460       1.56483064
13
Frame=11 idx=002365 GeodesicLength=0.6022659894605259 rxn_smarts="[C:1]1([H:6])([H:7])[C@:2]2([H:8])[C:3]([H:9])([H:10])[C:4]([H:11])([H:12])[C@:5]12[H:13]>>[C:1]1([H:6])([H:7])[C:2]([H:8])([H:13])[C:3]([H:9])([H:10])[C:4]([H:11])([H:12])[C:5]1"
C        1.28662372      -0.54932025      -0.17894265
C        0.57294342       0.47572642       0.67524662
C       -0.63550188       0.94367401      -0.13492115
C       -1.11415613      -0.49376467      -0.44330928
C        0.03144450      -1.24312151       0.20656604
H        1.37299072      -0.37161122      -1.25263261
H        2.20181400      -0.96877854       0.22829671
H        1.18763526       1.17735302       1.22891100
H       -0.37980621       1.53636103      -1.01619349
H       -1.35639636       1.51061351       0.45322865
H       -2.00428462      -0.75336577       0.14106633
H       -1.30626396      -0.75784271      -1.48388162
H        0.14295754      -0.50592333       1.57656543
13
Frame=12 idx=002365 GeodesicLength=0.6570379280708777 rxn_smarts="[C:1]1([H:6])([H:7])[C@:2]2([H:8])[C:3]([H:9])([H:10])[C:4]([H:11])([H:12])[C@:5]12[H:13]>>[C:1]1([H:6])([H:7])[C:2]([H:8])([H:13])[C:3]([H:9])([H:10])[C:4]([H:11])([H:12])[C:5]1"
C        1.28904623      -0.54511967      -0.17626793
C        0.56958843       0.47612831       0.67844503
C       -0.63509044       0.94522271      -0.13756200
C       -1.11487684      -0.49168547      -0.44746825
C        0.03169364      -1.23973918       0.19493266
H        1.38148387      -0.37218394      -1.25062651
H        2.20111713      -0.96872951       0.23373312
H        1.18321371       1.18478691       1.22393747
H       -0.37567795       1.53452345      -1.02004989
H       -1.35741980       1.51521583       0.44587304
H       -1.99528149      -0.75433554       0.15142583
H       -1.32521278      -0.75498179      -1.48447694
H        0.14741630      -0.52910210       1.58810437
13
Frame=13 idx=002365 GeodesicLength=0.7118119180534829 rxn_smarts="[C:1]1([H:6])([H:7])[C@:2]2([H:8])[C:3]([H:9])([H:10])[C:4]([H:11])([H:12])[C@:5]12[H:13]>>[C:1]1([H:6])([H:7])[C:2]([H:8])([H:13])[C:3]([H:9])([H:10])[C:4]([H:11])([H:12])[C:5]1"
C        1.29144004      -0.54084029      -0.17351686
C        0.56616303       0.47663507       0.68162451
C       -0.63467444       0.94684500      -0.14032800
C       -1.11563122      -0.48957079      -0.45158137
C        0.03199410      -1.23616880       0.18334553
H        1.39006061      -0.37272954      -1.24849043
H        2.20035740      -0.96860504       0.23924012
H        1.17861473       1.19221149       1.21901497
H       -0.37151507       1.53264770      -1.02406487
H       -1.35841590       1.51995016       0.43830640
H       -1.98611693      -0.75517412       0.16165364
H       -1.34443453      -0.75216085      -1.48462865
H        0.15215817      -0.55303997       1.59942502
13
Frame=14 idx=002365 GeodesicLength=0.7665842757143121 rxn_smarts="[C:1]1([H:6])([H:7])[C@:2]2([H:8])[C:3]([H:9])([H:10])[C:4]([H:11])([H:12])[C@:5]12[H:13]>>[C:1]1([H:6])([H:7])[C:2]([H:8])([H:13])[C:3]([H:9])([H:10])[C:4]([H:11])([H:12])[C:5]1"
C        1.29380319      -0.53648165      -0.17068508
C        0.56266511       0.47725213       0.68478196
C       -0.63425428       0.94854346      -0.14322293
C       -1.11641954      -0.48741916      -0.45565064
C        0.03234383      -1.23240801       0.17180836
H        1.39872192      -0.37324991      -1.24621758
H        2.19953204      -0.96840335       0.24482431
H        1.17383935       1.19963239       1.21414283
H       -0.36731727       1.53073372      -1.02824176
H       -1.35938492       1.52481929       0.43052237
H       -1.97679357      -0.75587739       0.17175111
H       -1.36392430      -0.74938087      -1.48431969
H        0.15718843      -0.57776066       1.61050673
13
Frame=15 idx=002365 GeodesicLength=0.8213487079248257 rxn_smarts="[C:1]1([H:6])([H:7])[C@:2]2([H:8])[C:3]([H:9])([H:10])[C:4]([H:11])([H:12])[C@:5]12[H:13]>>[C:1]1([H:6])([H:7])[C:2]([H:8])([H:13])[C:3]([H:9])([H:10])[C:4]([H:11])([H:12])[C:5]1"
C        1.29613356      -0.53204276      -0.16776752
C        0.55909302       0.47798669       0.68791421
C       -0.63383065       0.95032108      -0.14625023
C       -1.11724237      -0.48522926      -0.45967521
C        0.03274026      -1.22845438       0.16032828
H        1.40746707      -0.37374846      -1.24380072
H        2.19863881      -0.96812115       0.25049268
H        1.16888937       1.20705769       1.20932017
H       -0.36308524       1.52878058      -1.03258459
H       -1.36032674       1.52982690       0.42251446
H       -1.96731640      -0.75643865       0.18171828
H       -1.38367359      -0.74664359      -1.48353301
H        0.16251289      -0.60329469       1.62132319
13
Frame=16 idx=002365 GeodesicLength=0.8760958929194197 rxn_smarts="[C:1]1([H:6])([H:7])[C@:2]2([H:8])[C:3]([H:9])([H:10])[C:4]([H:11])([H:12])[C@:5]12[H:13]>>[C:1]1([H:6])([H:7])[C:2]([H:8])([H:13])[C:3]([H:9])([H:10])[C:4]([H:11])([H:12])[C:5]1"
C        1.29842888      -0.52752308      -0.16475894
C        0.55544482       0.47884551       0.69101816
C       -0.63340424       0.95218042      -0.14941340
C       -1.11810044      -0.48299975      -0.46365570
C        0.03318060      -1.22430602       0.14891179
H        1.41629526      -0.37422887      -1.24123247
H        2.19767558      -0.96775554       0.25625290
H        1.16376611       1.21449519       1.20454535
H       -0.35881933       1.52678765      -1.03709684
H       -1.36124153       1.53497615       0.41427620
H       -1.95768956      -0.75685199       0.19155586
H       -1.40367366      -0.74394967      -1.48225047
H        0.16813752      -0.62966999       1.63184756
