10
Frame=0 idx=006115 GeodesicLength=0.0 rxn_smarts="[C:1]1([H:6])([H:7])[C:2]([H:8])([H:9])[N:3]=[C:4]([H:10])[O:5]1>>[C:1]([C:2]([H:7])([H:8])[H:9])(=[O:5])[H:6].[N:3]#[C:4][H:10]"
C       -0.52108249      -0.78705138       0.10092762
C       -0.81263776       0.61555227       0.12451297
N        1.19263652       1.17929205       0.34215937
C        1.74214859       0.27819256      -0.15645289
O        0.38417185      -1.20021626      -0.71048931
H       -0.69291000      -1.31560865       1.05109891
H       -1.64677077      -0.63561545      -0.34824239
H       -0.79812198       1.14748655      -0.81704089
H       -1.39681006       1.03779133       0.93661538
H        2.54937610      -0.31982302      -0.52308875
10
Frame=1 idx=006115 GeodesicLength=0.061220722467261394 rxn_smarts="[C:1]1([H:6])([H:7])[C:2]([H:8])([H:9])[N:3]=[C:4]([H:10])[O:5]1>>[C:1]([C:2]([H:7])([H:8])[H:9])(=[O:5])[H:6].[N:3]#[C:4][H:10]"
C       -0.52512664      -0.79527947       0.10861595
C       -0.81310457       0.61272724       0.12373532
N        1.20594028       1.19114416       0.34187008
C        1.75102712       0.27495508      -0.13866569
O        0.40639806      -1.20593007      -0.67657696
H       -0.71995078      -1.32710287       1.05219487
H       -1.64949782      -0.62258072      -0.36584501
H       -0.79681161       1.14740544      -0.81641298
H       -1.39868060       1.03328070       0.93616106
H        2.53980655      -0.30861950      -0.56507663
10
Frame=2 idx=006115 GeodesicLength=0.12212661328528607 rxn_smarts="[C:1]1([H:6])([H:7])[C:2]([H:8])([H:9])[N:3]=[C:4]([H:10])[O:5]1>>[C:1]([C:2]([H:7])([H:8])[H:9])(=[O:5])[H:6].[N:3]#[C:4][H:10]"
C       -0.52899915      -0.80357933       0.11571377
C       -0.81333578       0.60975941       0.12295183
N        1.21971818       1.20294738       0.34035020
C        1.76001597       0.27248500      -0.12304886
O        0.42815175      -1.21111197      -0.64254472
H       -0.74586086      -1.33876852       1.05225398
H       -1.65176961      -0.60956943      -0.38307104
H       -0.79587872       1.14762408      -0.81553365
H       -1.39980037       1.02830910       0.93619968
H        2.52775858      -0.29809572      -0.60327119
10
Frame=3 idx=006115 GeodesicLength=0.18324256708855405 rxn_smarts="[C:1]1([H:6])([H:7])[C:2]([H:8])([H:9])[N:3]=[C:4]([H:10])[O:5]1>>[C:1]([C:2]([H:7])([H:8])[H:9])(=[O:5])[H:6].[N:3]#[C:4][H:10]"
C       -0.53274941      -0.81200836       0.12233096
C       -0.81343863       0.60670249       0.12218369
N        1.23400741       1.21473127       0.33802589
C        1.76918108       0.27077812      -0.10946314
O        0.44958018      -1.21597922      -0.60803241
H       -0.77101299      -1.35064216       1.05138143
H       -1.65367297      -0.59660322      -0.40013949
H       -0.79532002       1.14817314      -0.81440874
H       -1.40043112       1.02303664       0.93666284
H        2.51385647      -0.28818870      -0.63854102
10
Frame=4 idx=006115 GeodesicLength=0.24428604711269492 rxn_smarts="[C:1]1([H:6])([H:7])[C:2]([H:8])([H:9])[N:3]=[C:4]([H:10])[O:5]1>>[C:1]([C:2]([H:7])([H:8])[H:9])(=[O:5])[H:6].[N:3]#[C:4][H:10]"
C       -0.53641273      -0.82054298       0.12850251
C       -0.81342160       0.60352963       0.12146868
N        1.24873464       1.22658543       0.33486432
C        1.77841079       0.26997076      -0.09804174
O        0.47071416      -1.22040920      -0.57283314
H       -0.79566960      -1.36277927       1.04953249
H       -1.65514980      -0.58365913      -0.41706374
H       -0.79505916       1.14907012      -0.81293678
H       -1.40063245       1.01734131       0.93754136
H        2.49848575      -0.27910668      -0.67103396
10
Frame=5 idx=006115 GeodesicLength=0.3053758634079372 rxn_smarts="[C:1]1([H:6])([H:7])[C:2]([H:8])([H:9])[N:3]=[C:4]([H:10])[O:5]1>>[C:1]([C:2]([H:7])([H:8])[H:9])(=[O:5])[H:6].[N:3]#[C:4][H:10]"
C       -0.53992580      -0.82916608       0.13433334
C       -0.81328409       0.60024996       0.12081001
N        1.26386053       1.23843791       0.33136605
C        1.78769648       0.27006554      -0.08864674
O        0.49174263      -1.22449351      -0.53642960
H       -0.82006762      -1.37513211       1.04674207
H       -1.65606441      -0.57069471      -0.43410984
H       -0.79501700       1.15028143      -0.81115397
H       -1.40055678       1.01126491       0.93871904
H        2.48161605      -0.27081335      -0.70163037
10
Frame=6 idx=006115 GeodesicLength=0.36642650932744186 rxn_smarts="[C:1]1([H:6])([H:7])[C:2]([H:8])([H:9])[N:3]=[C:4]([H:10])[O:5]1>>[C:1]([C:2]([H:7])([H:8])[H:9])(=[O:5])[H:6].[N:3]#[C:4][H:10]"
C       -0.54331436      -0.83788417       0.13970379
C       -0.81310696       0.59686952       0.12020059
N        1.27930651       1.25049005       0.32704191
C        1.79697950       0.27084663      -0.08089474
O        0.51254852      -1.22800018      -0.49907228
H       -0.84396252      -1.38777973       1.04293068
H       -1.65657945      -0.55767972      -0.45111222
H       -0.79536502       1.15186133      -0.80903397
H       -1.40013324       1.00478448       0.94029164
H        2.46362702      -0.26350822      -0.73005539
10
Frame=7 idx=006115 GeodesicLength=0.4273883554227876 rxn_smarts="[C:1]1([H:6])([H:7])[C:2]([H:8])([H:9])[N:3]=[C:4]([H:10])[O:5]1>>[C:1]([C:2]([H:7])([H:8])[H:9])(=[O:5])[H:6].[N:3]#[C:4][H:10]"
C       -0.54653822      -0.84663870       0.14452480
C       -0.81295445       0.59339459       0.11971182
N        1.29502476       1.26291109       0.32175319
C        1.80620747       0.27256356      -0.07511239
O        0.53317324      -1.23076427      -0.46065694
H       -0.86734933      -1.40070827       1.03792406
H       -1.65673744      -0.54459614      -0.46810704
H       -0.79631771       1.15387706      -0.80641042
H       -1.39940146       0.99774378       0.94239051
H        2.44489315      -0.25778271      -0.75601759
10
Frame=8 idx=006115 GeodesicLength=0.48831518579692057 rxn_smarts="[C:1]1([H:6])([H:7])[C:2]([H:8])([H:9])[N:3]=[C:4]([H:10])[O:5]1>>[C:1]([C:2]([H:7])([H:8])[H:9])(=[O:5])[H:6].[N:3]#[C:4][H:10]"
C       -0.54962232      -0.85549680       0.14876593
C       -0.81284791       0.58983973       0.11930394
N        1.31099770       1.27574110       0.31542577
C        1.81540446       0.27491413      -0.07069906
O        0.55358638      -1.23274722      -0.42116362
H       -0.89018444      -1.41397426       1.03179027
H       -1.65660790      -0.53143984      -0.48506267
H       -0.79776376       1.15633887      -0.80336465
H       -1.39840714       0.99023488       0.94497414
H        2.42544495      -0.25341059      -0.77997003
10
Frame=9 idx=006115 GeodesicLength=0.5492725351910788 rxn_smarts="[C:1]1([H:6])([H:7])[C:2]([H:8])([H:9])[N:3]=[C:4]([H:10])[O:5]1>>[C:1]([C:2]([H:7])([H:8])[H:9])(=[O:5])[H:6].[N:3]#[C:4][H:10]"
C       -0.55254451      -0.86448535       0.15241781
C       -0.81278422       0.58620272       0.11896799
N        1.32726712       1.28896545       0.30813588
C        1.82462936       0.27783886      -0.06749293
O        0.57385407      -1.23393050      -0.38026772
H       -0.91257992      -1.42759615       1.02448097
H       -1.65617484      -0.51819691      -0.50204369
H       -0.79961626       1.15926593      -0.79987257
H       -1.39721897       0.98224056       0.94798463
H        2.40516818      -0.25030462      -0.80231037
10
Frame=10 idx=006115 GeodesicLength=0.6101558918607258 rxn_smarts="[C:1]1([H:6])([H:7])[C:2]([H:8])([H:9])[N:3]=[C:4]([H:10])[O:5]1>>[C:1]([C:2]([H:7])([H:8])[H:9])(=[O:5])[H:6].[N:3]#[C:4][H:10]"
C       -0.55526337      -0.87357553       0.15530607
C       -0.81282202       0.58248930       0.11871597
N        1.34375184       1.30270168       0.29944845
C        1.83380582       0.28126896      -0.06534150
O        0.59386537      -1.23407378      -0.33816206
H       -0.93425588      -1.44158931       1.01587175
H       -1.65559367      -0.50480275      -0.51893555
H       -0.80208904       1.16271533      -0.79586319
H       -1.39574045       0.97366646       0.95155349
H        2.38434139      -0.24880035      -0.82259343
10
Frame=11 idx=006115 GeodesicLength=0.6709781012487283 rxn_smarts="[C:1]1([H:6])([H:7])[C:2]([H:8])([H:9])[N:3]=[C:4]([H:10])[O:5]1>>[C:1]([C:2]([H:7])([H:8])[H:9])(=[O:5])[H:6].[N:3]#[C:4][H:10]"
C       -0.55772931      -0.88277773       0.15741085
C       -0.81295026       0.57869337       0.11857894
N        1.36047911       1.31696724       0.28924633
C        1.84295440       0.28516883      -0.06415803
O        0.61364601      -1.23309987      -0.29450597
H       -0.95535110      -1.45601749       1.00582592
H       -1.65480735      -0.49122045      -0.53582101
H       -0.80515578       1.16670852      -0.79125832
H       -1.39397654       0.96446094       0.95570192
H        2.36289083      -0.24888337      -0.84102064
10
Frame=12 idx=006115 GeodesicLength=0.7317959036194934 rxn_smarts="[C:1]1([H:6])([H:7])[C:2]([H:8])([H:9])[N:3]=[C:4]([H:10])[O:5]1>>[C:1]([C:2]([H:7])([H:8])[H:9])(=[O:5])[H:6].[N:3]#[C:4][H:10]"
C       -0.55986439      -0.89210346       0.15871365
C       -0.81315805       0.57481869       0.11859455
N        1.37748039       1.33176860       0.27739827
C        1.85210025       0.28949132      -0.06387132
O        0.63322271      -1.23090778      -0.24888995
H       -0.97598068      -1.47097543       0.99416853
H       -1.65371986      -0.47740472      -0.55279812
H       -0.80878909       1.17128516      -0.78597805
H       -1.39194801       0.95457884       0.96045515
H        2.34065673      -0.25055121      -0.85779270
10
Frame=13 idx=006115 GeodesicLength=0.7925415414520989 rxn_smarts="[C:1]1([H:6])([H:7])[C:2]([H:8])([H:9])[N:3]=[C:4]([H:10])[O:5]1>>[C:1]([C:2]([H:7])([H:8])[H:9])(=[O:5])[H:6].[N:3]#[C:4][H:10]"
C       -0.56161996      -0.90150644       0.15892507
C       -0.81357902       0.57090380       0.11880116
N        1.39462716       1.34727534       0.26315179
C        1.86114008       0.29420067      -0.06439857
O        0.65237338      -1.22717224      -0.20176062
H       -0.99573141      -1.48651108       0.98069640
H       -1.65266118      -0.46326749      -0.56961756
H       -0.81336798       1.17658809      -0.77987519
H       -1.38953319       0.94388370       0.96607449
H        2.31835212      -0.25439436      -0.87199698
10
Frame=14 idx=006115 GeodesicLength=0.8531580901414278 rxn_smarts="[C:1]1([H:6])([H:7])[C:2]([H:8])([H:9])[N:3]=[C:4]([H:10])[O:5]1>>[C:1]([C:2]([H:7])([H:8])[H:9])(=[O:5])[H:6].[N:3]#[C:4][H:10]"
C       -0.56289332      -0.91095605       0.15798111
C       -0.81421071       0.56694669       0.11923794
N        1.41192329       1.36341995       0.24625360
C        1.87005887       0.29921197      -0.06560134
O        0.67100706      -1.22169673      -0.15285823
H       -1.01456926      -1.50267146       0.96520254
H       -1.65160337      -0.44875072      -0.58629611
H       -0.81889412       1.18261865      -0.77283996
H       -1.38671038       0.93230572       0.97257426
H        2.29589194      -0.26042802      -0.88365381
10
Frame=15 idx=006115 GeodesicLength=0.9137821814700091 rxn_smarts="[C:1]1([H:6])([H:7])[C:2]([H:8])([H:9])[N:3]=[C:4]([H:10])[O:5]1>>[C:1]([C:2]([H:7])([H:8])[H:9])(=[O:5])[H:6].[N:3]#[C:4][H:10]"
C       -0.56362631      -0.92042331       0.15562572
C       -0.81522842       0.56302859       0.11994655
N        1.42923989       1.38028037       0.22597651
C        1.87880930       0.30443648      -0.06732606
O        0.68888962      -1.21425500      -0.10267277
H       -1.03212600      -1.51955105       0.94755903
H       -1.65092548      -0.43374952      -0.60256773
H       -0.82570475       1.18957288      -0.76474933
H       -1.38347211       0.91977463       0.98019817
H        2.27414425      -0.26911407      -0.89199010
10
Frame=16 idx=006115 GeodesicLength=0.974122711203189 rxn_smarts="[C:1]1([H:6])([H:7])[C:2]([H:8])([H:9])[N:3]=[C:4]([H:10])[O:5]1>>[C:1]([C:2]([H:7])([H:8])[H:9])(=[O:5])[H:6].[N:3]#[C:4][H:10]"
C       -0.56378696      -0.92978199       0.15156706
C       -0.81676772       0.55917522       0.12094943
N        1.44640240       1.39778285       0.20151170
C        1.88722453       0.30979592      -0.06932257
O        0.70560902      -1.20455385      -0.05200687
H       -1.04791351      -1.53705593       0.92763152
H       -1.65111601      -0.41817569      -0.61803660
H       -0.83413490       1.19747902      -0.75542092
H       -1.37961000       0.90615737       0.98910765
H        2.25409316      -0.28082292      -0.89598040
