13
Frame=0 idx=005542 GeodesicLength=0.0 rxn_smarts="[O:1]=[C:2]([C:3]([C@@:4]1([H:10])[C:5]([H:11])([H:12])[N:6]1[H:13])([H:8])[H:9])[H:7]>>[O:1]=[C:2]([C:3](/[C:4](=[N:6]/[C:5]([H:11])([H:12])[H:13])[H:10])([H:8])[H:9])[H:7]"
O        0.98725284       1.95996237       0.26399746
C        1.58298834       0.97613713      -0.08350940
C        1.02092195      -0.41665696      -0.05123526
C       -0.35419169      -0.54434696       0.59029490
C       -1.54361272       0.06932754      -0.23632552
N       -1.17885341      -1.56855149       0.26469083
H        2.61990655       1.05883881      -0.47147116
H        1.73191744      -1.05262221       0.48822598
H        0.99745422      -0.81028610      -1.07394327
H       -0.37274908      -0.14014816       1.61296789
H       -1.14440430       0.49850995      -1.14994417
H       -2.11547031       0.73206308       0.40284414
H       -2.23115979      -0.76222702      -0.55659241
13
Frame=1 idx=005542 GeodesicLength=0.09663289503782585 rxn_smarts="[O:1]=[C:2]([C:3]([C@@:4]1([H:10])[C:5]([H:11])([H:12])[N:6]1[H:13])([H:8])[H:9])[H:7]>>[O:1]=[C:2]([C:3](/[C:4](=[N:6]/[C:5]([H:11])([H:12])[H:13])[H:10])([H:8])[H:9])[H:7]"
O        1.00474661       1.96119670       0.27258200
C        1.59737604       0.97659084      -0.07775350
C        1.03062875      -0.41457184      -0.04979091
C       -0.34631461      -0.53712926       0.58506099
C       -1.55889164       0.06455257      -0.24129963
N       -1.17494125      -1.55120983       0.24145953
H        2.63541195       1.05631471      -0.46335900
H        1.73789990      -1.05265803       0.49236235
H        1.01136911      -0.80697587      -1.07292909
H       -0.37253492      -0.13529089       1.60781523
H       -1.17811019       0.48874309      -1.16521877
H       -2.12055127       0.73214548       0.40239611
H       -2.26608849      -0.78170769      -0.53132531
13
Frame=2 idx=005542 GeodesicLength=0.19352676658722962 rxn_smarts="[O:1]=[C:2]([C:3]([C@@:4]1([H:10])[C:5]([H:11])([H:12])[N:6]1[H:13])([H:8])[H:9])[H:7]>>[O:1]=[C:2]([C:3](/[C:4](=[N:6]/[C:5]([H:11])([H:12])[H:13])[H:10])([H:8])[H:9])[H:7]"
O        1.02316490       1.96249321       0.28183804
C        1.61232719       0.97698146      -0.07160680
C        1.04037054      -0.41231956      -0.04853776
C       -0.33864305      -0.52936653       0.57911621
C       -1.57467225       0.05986286      -0.24678109
N       -1.17081867      -1.53346033       0.21779842
H        2.65156737       1.05344563      -0.45466755
H        1.74350438      -1.05296224       0.49629866
H        1.02537410      -0.80316873      -1.07221557
H       -0.37259510      -0.13003859       1.60196447
H       -1.21310610       0.47874352      -1.18094003
H       -2.12627624       0.73213237       0.40134834
H       -2.30019707      -0.80234308      -0.50361537
13
Frame=3 idx=005542 GeodesicLength=0.2906988536556063 rxn_smarts="[O:1]=[C:2]([C:3]([C@@:4]1([H:10])[C:5]([H:11])([H:12])[N:6]1[H:13])([H:8])[H:9])[H:7]>>[O:1]=[C:2]([C:3](/[C:4](=[N:6]/[C:5]([H:11])([H:12])[H:13])[H:10])([H:8])[H:9])[H:7]"
O        1.04260700       1.96381712       0.29184648
C        1.62786374       0.97727462      -0.06506827
C        1.05011294      -0.40989295      -0.04748317
C       -0.33120773      -0.52098074       0.57243920
C       -1.59100328       0.05529013      -0.25278849
N       -1.16655008      -1.51522965       0.19374282
H        2.66836925       1.05014925      -0.44544995
H        1.74865969      -1.05355486       0.50001995
H        1.03941752      -0.79885953      -1.07180691
H       -0.37295009      -0.12429510       1.59538289
H       -1.24947407       0.46863888      -1.19704663
H       -2.13281750       0.73193392       0.39969635
H       -2.33302737      -0.82429109      -0.47348428
13
Frame=4 idx=005542 GeodesicLength=0.38814374818788866 rxn_smarts="[O:1]=[C:2]([C:3]([C@@:4]1([H:10])[C:5]([H:11])([H:12])[N:6]1[H:13])([H:8])[H:9])[H:7]>>[O:1]=[C:2]([C:3](/[C:4](=[N:6]/[C:5]([H:11])([H:12])[H:13])[H:10])([H:8])[H:9])[H:7]"
O        1.06317587       1.96512992       0.30267454
C        1.64400738       0.97743435      -0.05814619
C        1.05982158      -0.40728487      -0.04663109
C       -0.32403846      -0.51188424       0.56500940
C       -1.60794619       0.05085619      -0.25933133
N       -1.16219905      -1.49643884       0.16933200
H        2.68581370       1.04633184      -0.43575535
H        1.75329066      -1.05444907       0.50352137
H        1.05345040      -0.79405314      -1.07170010
H       -0.37361866      -0.11795132       1.58803862
H       -1.28731517       0.45854882      -1.21346651
H       -2.14035071       0.73144914       0.39746690
H       -2.36409135      -0.84768878      -0.44101226
13
Frame=5 idx=005542 GeodesicLength=0.4851897212738427 rxn_smarts="[O:1]=[C:2]([C:3]([C@@:4]1([H:10])[C:5]([H:11])([H:12])[N:6]1[H:13])([H:8])[H:9])[H:7]>>[O:1]=[C:2]([C:3](/[C:4](=[N:6]/[C:5]([H:11])([H:12])[H:13])[H:10])([H:8])[H:9])[H:7]"
O        1.08492709       1.96640073       0.31436315
C        1.66077162       0.97744080      -0.05085415
C        1.06949761      -0.40448503      -0.04597430
C       -0.31712645      -0.50199507       0.55680589
C       -1.62560362       0.04640096      -0.26637867
N       -1.15776454      -1.47705508       0.14457674
H        2.70392629       1.04195400      -0.42559889
H        1.75736032      -1.05563298       0.50682440
H        1.06748571      -0.78876509      -1.07187646
H       -0.37460067      -0.11089661       1.57990412
H       -1.32680823       0.44831983      -1.23012020
H       -2.14893675       0.73048776       0.39471338
H       -2.39312839      -0.87217422      -0.40638503
13
Frame=6 idx=005542 GeodesicLength=0.5822868084325498 rxn_smarts="[O:1]=[C:2]([C:3]([C@@:4]1([H:10])[C:5]([H:11])([H:12])[N:6]1[H:13])([H:8])[H:9])[H:7]>>[O:1]=[C:2]([C:3](/[C:4](=[N:6]/[C:5]([H:11])([H:12])[H:13])[H:10])([H:8])[H:9])[H:7]"
O        1.10800070       1.96758526       0.32694921
C        1.67818920       0.97724268      -0.04321355
C        1.07908223      -0.40148493      -0.04551622
C       -0.31052711      -0.49119450       0.54781481
C       -1.64401275       0.04206224      -0.27392134
N       -1.15333515      -1.45696936       0.11956802
H        2.72270591       1.03687228      -0.41504420
H        1.76076328      -1.05712593       0.50992963
H        1.08143421      -0.78300660      -1.07233013
H       -0.37591682      -0.10298805       1.57095189
H       -1.36801158       0.43820879      -1.24690691
H       -2.15884119       0.72896415       0.39152407
H       -2.41953093      -0.89816602      -0.36980527
13
Frame=7 idx=005542 GeodesicLength=0.6794795063105563 rxn_smarts="[O:1]=[C:2]([C:3]([C@@:4]1([H:10])[C:5]([H:11])([H:12])[N:6]1[H:13])([H:8])[H:9])[H:7]>>[O:1]=[C:2]([C:3](/[C:4](=[N:6]/[C:5]([H:11])([H:12])[H:13])[H:10])([H:8])[H:9])[H:7]"
O        1.13250261       1.96864237       0.34044761
C        1.69628511       0.97679615      -0.03525104
C        1.08853636      -0.39827599      -0.04525166
C       -0.30426618      -0.47936260       0.53803078
C       -1.66323251       0.03787488      -0.28191632
N       -1.14897134      -1.43610310       0.09438638
H        2.74216958       1.03097798      -0.40413660
H        1.76341669      -1.05893252       0.51285326
H        1.09524132      -0.77680334      -1.07304083
H       -0.37756538      -0.09407472       1.56116564
H       -1.41103381       0.42830679      -1.26371704
H       -2.17026155       0.72673982       0.38800521
H       -2.44282091      -0.92578572      -0.33157539
13
Frame=8 idx=005542 GeodesicLength=0.7767235073860479 rxn_smarts="[O:1]=[C:2]([C:3]([C@@:4]1([H:10])[C:5]([H:11])([H:12])[N:6]1[H:13])([H:8])[H:9])[H:7]>>[O:1]=[C:2]([C:3](/[C:4](=[N:6]/[C:5]([H:11])([H:12])[H:13])[H:10])([H:8])[H:9])[H:7]"
O        1.15852075       1.96951275       0.35485633
C        1.71508047       0.97605612      -0.02699398
C        1.09783140      -0.39484486      -0.04516792
C       -0.29835651      -0.46637536       0.52743358
C       -1.68333103       0.03383989      -0.29030840
N       -1.14471698      -1.41437463       0.06909988
H        2.76231655       1.02415824      -0.39291235
H        1.76523485      -1.06102860       0.51563330
H        1.10887877      -0.77018893      -1.07397749
H       -0.37953494      -0.08400145       1.55051844
H       -1.45599632       0.41863723      -1.28043997
H       -2.18335408       0.72367832       0.38431094
H       -2.46257294      -0.95506873      -0.29205237
13
Frame=9 idx=005542 GeodesicLength=0.8731502959915705 rxn_smarts="[O:1]=[C:2]([C:3]([C@@:4]1([H:10])[C:5]([H:11])([H:12])[N:6]1[H:13])([H:8])[H:9])[H:7]>>[O:1]=[C:2]([C:3](/[C:4](=[N:6]/[C:5]([H:11])([H:12])[H:13])[H:10])([H:8])[H:9])[H:7]"
O        1.18607076       1.97020166       0.37018168
C        1.73459971       0.97501874      -0.01844542
C        1.10698450      -0.39117574      -0.04526191
C       -0.29277157      -0.45212687       0.51595997
C       -1.70441176       0.02970099      -0.29900548
N       -1.14053149      -1.39175024       0.04369250
H        2.78321217       1.01640218      -0.38130866
H        1.76618145      -1.06338590       0.51830662
H        1.12240045      -0.76319166      -1.07511358
H       -0.38180061      -0.07266731       1.53894510
H       -1.50312571       0.40879818      -1.29698464
H       -2.19806378       0.71954001       0.38057661
H       -2.47874412      -0.98536406      -0.25154279
13
Frame=10 idx=005542 GeodesicLength=0.9696570401648705 rxn_smarts="[O:1]=[C:2]([C:3]([C@@:4]1([H:10])[C:5]([H:11])([H:12])[N:6]1[H:13])([H:8])[H:9])[H:7]>>[O:1]=[C:2]([C:3](/[C:4](=[N:6]/[C:5]([H:11])([H:12])[H:13])[H:10])([H:8])[H:9])[H:7]"
O        1.21529228       1.97062606       0.38636307
C        1.75487658       0.97360529      -0.00964487
C        1.11593115      -0.38725170      -0.04551102
C       -0.28756291      -0.43644706       0.50361289
C       -1.72648410       0.02571025      -0.30795404
N       -1.13652390      -1.36808937       0.01826264
H        2.80484163       1.00750714      -0.36940255
H        1.76611961      -1.06599117       0.52092938
H        1.13572702      -0.75585000      -1.07640960
H       -0.38436810      -0.05986314       1.52644650
H       -1.55245439       0.39908802      -1.31321414
H       -2.21467613       0.71430947       0.37701205
H       -2.49071875      -1.01735380      -0.21049029
13
Frame=11 idx=005542 GeodesicLength=1.0662994922182545 rxn_smarts="[O:1]=[C:2]([C:3]([C@@:4]1([H:10])[C:5]([H:11])([H:12])[N:6]1[H:13])([H:8])[H:9])[H:7]>>[O:1]=[C:2]([C:3](/[C:4](=[N:6]/[C:5]([H:11])([H:12])[H:13])[H:10])([H:8])[H:9])[H:7]"
O        1.24625286       1.97074805       0.40336028
C        1.77594319       0.97177937      -0.00060707
C        1.12464849      -0.38305102      -0.04590038
C       -0.28273097      -0.41918306       0.49035967
C       -1.74959149       0.02185609      -0.31706960
N       -1.13273458      -1.34330826      -0.00719594
H        2.82724208       0.99737417      -0.35717750
H        1.76495741      -1.06881676       0.52355410
H        1.14886092      -0.74819859      -1.07782921
H       -0.38721944      -0.04543506       1.51299380
H       -1.60411479       0.38938994      -1.32901618
H       -2.23326454       0.70788700       0.37379078
H       -2.49824914      -1.05104186      -0.16926276
13
Frame=12 idx=005542 GeodesicLength=1.1630870142811505 rxn_smarts="[O:1]=[C:2]([C:3]([C@@:4]1([H:10])[C:5]([H:11])([H:12])[N:6]1[H:13])([H:8])[H:9])[H:7]>>[O:1]=[C:2]([C:3](/[C:4](=[N:6]/[C:5]([H:11])([H:12])[H:13])[H:10])([H:8])[H:9])[H:7]"
O        1.27899508       1.97048457       0.42110728
C        1.79781347       0.96948495       0.00865867
C        1.13311945      -0.37854463      -0.04640846
C       -0.27826288      -0.40017110       0.47613425
C       -1.77378021       0.01813671      -0.32625756
N       -1.12917844      -1.31730778      -0.03268738
H        2.85040322       0.98587401      -0.34460442
H        1.76258781      -1.07179381       0.52626556
H        1.16182076      -0.74027395      -1.07933123
H       -0.39032114      -0.02921596       1.49852903
H       -1.65824701       0.37955843      -1.34425771
H       -2.25386701       0.70019335       0.37114295
H       -2.50108312      -1.08642481      -0.12829098
13
Frame=13 idx=005542 GeodesicLength=1.2592972486759642 rxn_smarts="[O:1]=[C:2]([C:3]([C@@:4]1([H:10])[C:5]([H:11])([H:12])[N:6]1[H:13])([H:8])[H:9])[H:7]>>[O:1]=[C:2]([C:3](/[C:4](=[N:6]/[C:5]([H:11])([H:12])[H:13])[H:10])([H:8])[H:9])[H:7]"
O        1.31355678       1.96987306       0.43968495
C        1.82053537       0.96672520       0.01817836
C        1.14132991      -0.37370790      -0.04705675
C       -0.27415241      -0.37925093       0.46075784
C       -1.79913805       0.01429524      -0.33541238
N       -1.12583616      -1.28995863      -0.05824754
H        2.87440567       0.97295933      -0.33153682
H        1.75887478      -1.07489523       0.52907277
H        1.17465550      -0.73212170      -1.08088257
H       -0.39365368      -0.01107820       1.48287057
H       -1.71512868       0.36907566      -1.35882647
H       -2.27632746       0.69090280       0.36919150
H       -2.49912158      -1.12281870      -0.08779346
13
Frame=14 idx=005542 GeodesicLength=1.3558773161219415 rxn_smarts="[O:1]=[C:2]([C:3]([C@@:4]1([H:10])[C:5]([H:11])([H:12])[N:6]1[H:13])([H:8])[H:9])[H:7]>>[O:1]=[C:2]([C:3](/[C:4](=[N:6]/[C:5]([H:11])([H:12])[H:13])[H:10])([H:8])[H:9])[H:7]"
O        1.35004130       1.96878070       0.45889405
C        1.84412568       0.96340205       0.02790504
C        1.14922583      -0.36849846      -0.04779869
C       -0.27041333      -0.35617847       0.44422234
C       -1.82566212       0.01057909      -0.34444365
N       -1.12279515      -1.26112075      -0.08393512
H        2.89923863       0.95838352      -0.31797023
H        1.75365930      -1.07804652       0.53212197
H        1.18734792      -0.72378431      -1.08243403
H       -0.39721662       0.00924042       1.46603580
H       -1.77481010       0.35807906      -1.37252289
H       -2.30085293       0.68011698       0.36824067
H       -2.49188841      -1.16095331      -0.04831527
13
Frame=15 idx=005542 GeodesicLength=1.4527732826834654 rxn_smarts="[O:1]=[C:2]([C:3]([C@@:4]1([H:10])[C:5]([H:11])([H:12])[N:6]1[H:13])([H:8])[H:9])[H:7]>>[O:1]=[C:2]([C:3](/[C:4](=[N:6]/[C:5]([H:11])([H:12])[H:13])[H:10])([H:8])[H:9])[H:7]"
O        1.38849741       1.96718321       0.47866996
C        1.86861017       0.95946404       0.03783900
C        1.15675645      -0.36288238      -0.04863253
C       -0.26705605      -0.33073298       0.42638892
C       -1.85339630       0.00694125      -0.35324397
N       -1.12008992      -1.23063841      -0.10982535
H        2.92494951       0.94198627      -0.30376369
H        1.74674867      -1.08119692       0.53548675
H        1.19991012      -0.71531641      -1.08394419
H       -0.40100768       0.03194404       1.44789345
H       -1.83747411       0.34630350      -1.38516316
H       -2.32740199       0.66764883       0.36849611
H       -2.47904629      -1.20070404      -0.01020129
13
Frame=16 idx=005542 GeodesicLength=1.5499093927892864 rxn_smarts="[O:1]=[C:2]([C:3]([C@@:4]1([H:10])[C:5]([H:11])([H:12])[N:6]1[H:13])([H:8])[H:9])[H:7]>>[O:1]=[C:2]([C:3](/[C:4](=[N:6]/[C:5]([H:11])([H:12])[H:13])[H:10])([H:8])[H:9])[H:7]"
O        1.42897414       1.96503139       0.49893468
C        1.89400477       0.95485383       0.04797550
C        1.16386044      -0.35681319      -0.04955664
C       -0.26409077      -0.30265217       0.40706449
C       -1.88240033       0.00331198      -0.36168590
N       -1.11774523      -1.19831625      -0.13602825
H        2.95158346       0.92355936      -0.28873340
H        1.73791517      -1.08427282       0.53927314
H        1.21236871      -0.70678518      -1.08536926
H       -0.40503288       0.05727902       1.42826767
H       -1.90334056       0.33343020      -1.39650165
H       -2.35589387       0.65327946       0.37021849
H       -2.46020305      -1.24190563       0.02614113
