16
Frame=0 idx=007615 GeodesicLength=0.0 rxn_smarts="[C:1]([C@@:2]1([H:11])[N:3]([H:12])[C@:4]1([C:5]([C:6](=[O:7])[H:16])([H:14])[H:15])[H:13])([H:8])([H:9])[H:10]>>[C:1]([C:2][C@@:4]([N:3]([H:11])[H:12])([C:5]([C:6](=[O:7])[H:16])([H:14])[H:15])[H:13])([H:8])([H:9])[H:10]"
C       -1.31457711      -0.24494779       1.24318097
C       -1.32583252      -0.32588809      -0.25619183
N       -0.89521854       1.36107654      -0.90938767
C       -0.07637288       0.12570541      -0.92100622
C        1.24194842       0.27698385      -0.19549854
C        1.90758604      -1.02853049       0.13748376
O        1.43249622      -2.11229807      -0.06461876
H       -0.74298900       0.57676295       1.68415360
H       -2.32468138      -0.23117207       1.65026517
H       -0.84839997      -1.18496277       1.56215841
H       -1.93058938       0.80922967      -0.68031453
H       -1.18503332       1.50601559      -1.87811427
H        0.07266708      -0.29678955      -1.91377787
H        1.13458220       0.84301958       0.73370028
H        1.94578224       0.85958192      -0.80055630
H        2.90863186      -0.93378668       0.60852373
16
Frame=1 idx=007615 GeodesicLength=0.0433471278151214 rxn_smarts="[C:1]([C@@:2]1([H:11])[N:3]([H:12])[C@:4]1([C:5]([C:6](=[O:7])[H:16])([H:14])[H:15])[H:13])([H:8])([H:9])[H:10]>>[C:1]([C:2][C@@:4]([N:3]([H:11])[H:12])([C:5]([C:6](=[O:7])[H:16])([H:14])[H:15])[H:13])([H:8])([H:9])[H:10]"
C       -1.31547252      -0.24829743       1.24401673
C       -1.32435604      -0.31608516      -0.25493244
N       -0.89236461       1.35876241      -0.91494567
C       -0.07385407       0.12485825      -0.92190778
C        1.24448334       0.27866680      -0.19735933
C        1.90930425      -1.02589756       0.14074723
O        1.43687373      -2.11045972      -0.06340748
H       -0.73465570       0.56384549       1.69063817
H       -2.32560744      -0.22437250       1.65083678
H       -0.86335163      -1.19718071       1.55688212
H       -1.94328177       0.82091063      -0.67306230
H       -1.18686240       1.50078939      -1.88202250
H        0.07317805      -0.30254671      -1.91273757
H        1.13736395       0.84793566       0.73002931
H        1.94827738       0.85924842      -0.80443129
H        2.91032548      -0.93017727       0.61165602
16
Frame=2 idx=007615 GeodesicLength=0.0866965209981701 rxn_smarts="[C:1]([C@@:2]1([H:11])[N:3]([H:12])[C@:4]1([C:5]([C:6](=[O:7])[H:16])([H:14])[H:15])[H:13])([H:8])([H:9])[H:10]>>[C:1]([C:2][C@@:4]([N:3]([H:11])[H:12])([C:5]([C:6](=[O:7])[H:16])([H:14])[H:15])[H:13])([H:8])([H:9])[H:10]"
C       -1.31636444      -0.25175218       1.24475978
C       -1.32286011      -0.30611769      -0.25366796
N       -0.88949627       1.35643554      -0.92064936
C       -0.07130966       0.12398859      -0.92282526
C        1.24703688       0.28039545      -0.19925083
C        1.91102672      -1.02317873       0.14408711
O        1.44123294      -2.10855123      -0.06193651
H       -0.72615632       0.55041645       1.69708051
H       -2.32634750      -0.21746136       1.65149881
H       -0.87869507      -1.20946163       1.55118626
H       -1.95575811       0.83297447      -0.66541965
H       -1.18892314       1.49533453      -1.88599616
H        0.07367346      -0.30843718      -1.91163576
H        1.14012433       0.85294832       0.72627831
H        1.95079436       0.85890734      -0.80836820
H        2.91202191      -0.92644070       0.61485891
16
Frame=3 idx=007615 GeodesicLength=0.13003679000708834 rxn_smarts="[C:1]([C@@:2]1([H:11])[N:3]([H:12])[C@:4]1([C:5]([C:6](=[O:7])[H:16])([H:14])[H:15])[H:13])([H:8])([H:9])[H:10]>>[C:1]([C:2][C@@:4]([N:3]([H:11])[H:12])([C:5]([C:6](=[O:7])[H:16])([H:14])[H:15])[H:13])([H:8])([H:9])[H:10]"
C       -1.31725824      -0.25530167       1.24541004
C       -1.32133311      -0.29599815      -0.25239090
N       -0.88661790       1.35409133      -0.92649397
C       -0.06874014       0.12309753      -0.92375546
C        1.24960619       0.28216542      -0.20116474
C        1.91275503      -1.02038095       0.14748811
O        1.44556227      -2.10657724      -0.06021088
H       -0.71753244       0.53650304       1.70346005
H       -2.32690129      -0.21047015       1.65225265
H       -0.89439536      -1.22174794       1.54508817
H       -1.96800635       0.84540069      -0.65740847
H       -1.19120936       1.48965729      -1.89002595
H        0.07415498      -0.31445266      -1.91046964
H        1.14285901       0.85803902       0.72246319
H        1.95332867       0.85856627      -0.81234846
H        2.91372802      -0.92259184       0.61810626
16
Frame=4 idx=007615 GeodesicLength=0.17335663068308982 rxn_smarts="[C:1]([C@@:2]1([H:11])[N:3]([H:12])[C@:4]1([C:5]([C:6](=[O:7])[H:16])([H:14])[H:15])[H:13])([H:8])([H:9])[H:10]>>[C:1]([C:2][C@@:4]([N:3]([H:11])[H:12])([C:5]([C:6](=[O:7])[H:16])([H:14])[H:15])[H:13])([H:8])([H:9])[H:10]"
C       -1.31816078      -0.25893348       1.24596836
C       -1.31976385      -0.28574063      -0.25109307
N       -0.88373490       1.35172573      -0.93247314
C       -0.06614607       0.12218623      -0.92469460
C        1.25218940       0.28397189      -0.20309146
C        1.91449282      -1.01751307       0.15093470
O        1.44985165      -2.10454618      -0.05824055
H       -0.70883054       0.52214024       1.70975574
H       -2.32727364      -0.20343280       1.65309823
H       -0.91041263      -1.23397871       1.53861016
H       -1.98001796       0.85816419      -0.64905441
H       -1.19371406       1.48376686      -1.89410236
H        0.07462361      -0.32058414      -1.90923715
H        1.14556541       0.86318840       0.71860219
H        1.95587674       0.85823371      -0.81635185
H        2.91545480      -0.91864824       0.62136923
16
Frame=5 idx=007615 GeodesicLength=0.21664202822341871 rxn_smarts="[C:1]([C@@:2]1([H:11])[N:3]([H:12])[C@:4]1([C:5]([C:6](=[O:7])[H:16])([H:14])[H:15])[H:13])([H:8])([H:9])[H:10]>>[C:1]([C:2][C@@:4]([N:3]([H:11])[H:12])([C:5]([C:6](=[O:7])[H:16])([H:14])[H:15])[H:13])([H:8])([H:9])[H:10]"
C       -1.31907861      -0.26263381       1.24643681
C       -1.31814021      -0.27535871      -0.24976713
N       -0.88085350       1.34933194      -0.93857774
C       -0.06352779       0.12125526      -0.92563757
C        1.25478337       0.28580911      -0.20502124
C        1.91624299      -1.01458412       0.15440892
O        1.45409396      -2.10246391      -0.05603879
H       -0.70010094       0.50737249       1.71594929
H       -2.32747224      -0.19638184       1.65402950
H       -0.92670503      -1.24609690       1.53178187
H       -1.99178639       0.87123699      -0.64038732
H       -1.19642472       1.47767198      -1.89821221
H        0.07508274      -0.32682158      -1.90793338
H        1.14823941       0.86837492       0.71471432
H        1.95843301       0.85791730      -0.82035735
H        2.91721394      -0.91462913       0.62461202
16
Frame=6 idx=007615 GeodesicLength=0.2598828410407372 rxn_smarts="[C:1]([C@@:2]1([H:11])[N:3]([H:12])[C@:4]1([C:5]([C:6](=[O:7])[H:16])([H:14])[H:15])[H:13])([H:8])([H:9])[H:10]>>[C:1]([C:2][C@@:4]([N:3]([H:11])[H:12])([C:5]([C:6](=[O:7])[H:16])([H:14])[H:15])[H:13])([H:8])([H:9])[H:10]"
C       -1.32002979      -0.26637913       1.24681641
C       -1.31645809      -0.26486907      -0.24840804
N       -0.87797953       1.34690703      -0.94479917
C       -0.06088633       0.12030508      -0.92657707
C        1.25738468       0.28766612      -0.20693212
C        1.91800458      -1.01161694       0.15790235
O        1.45828396      -2.10033297      -0.05361590
H       -0.69140781       0.49226671       1.72201645
H       -2.32751249      -0.18936188       1.65503571
H       -0.94319686      -1.25803716       1.52464271
H       -2.00331607       0.88458859      -0.63145235
H       -1.19933113       1.47138514      -1.90234301
H        0.07553573      -0.33315254      -1.90655470
H        1.15087678       0.87356911       0.71083389
H        1.96099515       0.85762394      -0.82432784
H        2.91903723      -0.91056203       0.62776267
16
Frame=7 idx=007615 GeodesicLength=0.30308204285583357 rxn_smarts="[C:1]([C@@:2]1([H:11])[N:3]([H:12])[C@:4]1([C:5]([C:6](=[O:7])[H:16])([H:14])[H:15])[H:13])([H:8])([H:9])[H:10]>>[C:1]([C:2][C@@:4]([N:3]([H:11])[H:12])([C:5]([C:6](=[O:7])[H:16])([H:14])[H:15])[H:13])([H:8])([H:9])[H:10]"
C       -1.32099794      -0.27019035       1.24710565
C       -1.31470179      -0.25426755      -0.24700780
N       -0.87510506       1.34444196      -0.95113659
C       -0.05822164       0.11933635      -0.92751715
C        1.25999188       0.28955594      -0.20884823
C        1.91978171      -1.00857846       0.16140600
O        1.46240699      -2.09814144      -0.05095110
H       -0.68268781       0.47673920       1.72796786
H       -2.32737806      -0.18232026       1.65613229
H       -0.95997820      -1.26984109       1.51715617
H       -2.01458179       0.89821910      -0.62222843
H       -1.20242722       1.46489629      -1.90648833
H        0.07597928      -0.33958421      -1.90509846
H        1.15347696       0.87878983       0.70692991
H        1.96355394       0.85735556      -0.82830177
H        2.92088874      -0.90641085       0.63087998
16
Frame=8 idx=007615 GeodesicLength=0.3462544358962063 rxn_smarts="[C:1]([C@@:2]1([H:11])[N:3]([H:12])[C@:4]1([C:5]([C:6](=[O:7])[H:16])([H:14])[H:15])[H:13])([H:8])([H:9])[H:10]>>[C:1]([C:2][C@@:4]([N:3]([H:11])[H:12])([C:5]([C:6](=[O:7])[H:16])([H:14])[H:15])[H:13])([H:8])([H:9])[H:10]"
C       -1.32199206      -0.27405959       1.24730241
C       -1.31287440      -0.24356629      -0.24556629
N       -0.87224347       1.34194620      -0.95758686
C       -0.05553989       0.11834946      -0.92845780
C        1.26261193       0.29147594      -0.21076388
C        1.92159036      -1.00548557       0.16491477
O        1.46647189      -2.09590518      -0.04804333
H       -0.67396827       0.46081135       1.73378667
H       -2.32707305      -0.17527408       1.65731579
H       -0.97701984      -1.28148012       1.50933664
H       -2.02560007       0.91212122      -0.61273964
H       -1.20572684       1.45822542      -1.91064070
H        0.07640262      -0.34611749      -1.90356607
H        1.15604996       0.88403433       0.70301400
H        1.96611805       0.85711806      -0.83226891
H        2.92279308      -0.90219368       0.63396320
16
Frame=9 idx=007615 GeodesicLength=0.3893846306542962 rxn_smarts="[C:1]([C@@:2]1([H:11])[N:3]([H:12])[C@:4]1([C:5]([C:6](=[O:7])[H:16])([H:14])[H:15])[H:13])([H:8])([H:9])[H:10]>>[C:1]([C:2][C@@:4]([N:3]([H:11])[H:12])([C:5]([C:6](=[O:7])[H:16])([H:14])[H:15])[H:13])([H:8])([H:9])[H:10]"
C       -1.32301181      -0.27798211       1.24740777
C       -1.31095608      -0.23277616      -0.24407362
N       -0.86938555       1.33940798      -0.96414020
C       -0.05283600       0.11734621      -0.92939451
C        1.26523859       0.29342312      -0.21268025
C        1.92342182      -1.00233073       0.16841558
O        1.47046454      -2.09361005      -0.04489854
H       -0.66528296       0.44448087       1.73945614
H       -2.32659206      -0.16823744       1.65858947
H       -0.99431106      -1.29290618       1.50119593
H       -2.03635279       0.92626832      -0.60299433
H       -1.20920658       1.45136986      -1.91478285
H        0.07681211      -0.35274199      -1.90195088
H        1.15858581       0.88928674       0.69908618
H        1.96867853       0.85691022      -0.83622866
H        2.92473348      -0.89790866       0.63699278
16
Frame=10 idx=007615 GeodesicLength=0.43246158339553853 rxn_smarts="[C:1]([C@@:2]1([H:11])[N:3]([H:12])[C@:4]1([C:5]([C:6](=[O:7])[H:16])([H:14])[H:15])[H:13])([H:8])([H:9])[H:10]>>[C:1]([C:2][C@@:4]([N:3]([H:11])[H:12])([C:5]([C:6](=[O:7])[H:16])([H:14])[H:15])[H:13])([H:8])([H:9])[H:10]"
C       -1.32407583      -0.28193260       1.24742420
C       -1.30895089      -0.22190703      -0.24252896
N       -0.86654359       1.33682666      -0.97078567
C       -0.05011540       0.11632517      -0.93032082
C        1.26787020       0.29538875      -0.21457565
C        1.92528528      -0.99913995       0.17189333
O        1.47438411      -2.09127085      -0.04152749
H       -0.65668229       0.42784772       1.74496043
H       -2.32595802      -0.16125721       1.65993386
H       -1.01177519      -1.30408575       1.49278038
H       -2.04686003       0.94062987      -0.59304616
H       -1.21285510       1.44434981      -1.91890574
H        0.07720695      -0.35945114      -1.90025013
H        1.16108617       0.89451991       0.69518608
H        1.97123200       0.85674684      -0.84014245
H        2.92675162      -0.89359020       0.63990480
16
Frame=11 idx=007615 GeodesicLength=0.47550672368979546 rxn_smarts="[C:1]([C@@:2]1([H:11])[N:3]([H:12])[C@:4]1([C:5]([C:6](=[O:7])[H:16])([H:14])[H:15])[H:13])([H:8])([H:9])[H:10]>>[C:1]([C:2][C@@:4]([N:3]([H:11])[H:12])([C:5]([C:6](=[O:7])[H:16])([H:14])[H:15])[H:13])([H:8])([H:9])[H:10]"
C       -1.32517130      -0.28592844       1.24734846
C       -1.30684785      -0.21095995      -0.24092699
N       -0.86371471       1.33419973      -0.97752458
C       -0.04737736       0.11528825      -0.93124069
C        1.27051069       0.29738252      -0.21646812
C        1.92718638      -0.99589195       0.17535228
O        1.47822633      -2.08887813      -0.03791091
H       -0.64812176       0.41082037       1.75030245
H       -2.32515671      -0.15428131       1.66136448
H       -1.02948566      -1.31504005       1.48405524
H       -2.05711555       0.95520899      -0.58287772
H       -1.21667957       1.43716002      -1.92300276
H        0.07758284      -0.36624987      -1.89846238
H        1.16355615       0.89975632       0.69128594
H        1.97377998       0.85662360      -0.84404311
H        2.92882810      -0.88921009       0.64274839
16
Frame=12 idx=007615 GeodesicLength=0.5185294975569423 rxn_smarts="[C:1]([C@@:2]1([H:11])[N:3]([H:12])[C@:4]1([C:5]([C:6](=[O:7])[H:16])([H:14])[H:15])[H:13])([H:8])([H:9])[H:10]>>[C:1]([C:2][C@@:4]([N:3]([H:11])[H:12])([C:5]([C:6](=[O:7])[H:16])([H:14])[H:15])[H:13])([H:8])([H:9])[H:10]"
C       -1.32629930      -0.28998253       1.24717429
C       -1.30464254      -0.19993291      -0.23926710
N       -0.86089688       1.33152643      -0.98436099
C       -0.04462214       0.11423585      -0.93215492
C        1.27316183       0.29941230      -0.21836331
C        1.92913094      -0.99257422       0.17879731
O        1.48198028      -2.08641983      -0.03400432
H       -0.63957182       0.39334184       1.75547923
H       -2.32417016      -0.14727840       1.66288892
H       -1.04750162      -1.32579087       1.47499237
H       -2.06711206       0.97001271      -0.57248044
H       -1.22068726       1.42979522      -1.92706838
H        0.07793925      -0.37314592      -1.89658240
H        1.16599629       0.90500946       0.68737726
H        1.97632188       0.85654257      -0.84794470
H        2.93097330      -0.88475170       0.64551718
16
Frame=13 idx=007615 GeodesicLength=0.5615444774038836 rxn_smarts="[C:1]([C@@:2]1([H:11])[N:3]([H:12])[C@:4]1([C:5]([C:6](=[O:7])[H:16])([H:14])[H:15])[H:13])([H:8])([H:9])[H:10]>>[C:1]([C:2][C@@:4]([N:3]([H:11])[H:12])([C:5]([C:6](=[O:7])[H:16])([H:14])[H:15])[H:13])([H:8])([H:9])[H:10]"
C       -1.32745741      -0.29410879       1.24689502
C       -1.30233088      -0.18882289      -0.23754928
N       -0.85808740       1.32880518      -0.99129686
C       -0.04185162       0.11316699      -0.93306714
C        1.27582589       0.30148613      -0.22027475
C        1.93112779      -0.98916971       0.18222782
O        1.48563616      -2.08388078      -0.02975877
H       -0.63098843       0.37532705       1.76048375
H       -2.32297363      -0.14021004       1.66451653
H       -1.06589237      -1.33636253       1.46556349
H       -2.07684175       0.98505332      -0.56184428
H       -1.22488418       1.42225455      -1.93109322
H        0.07826939      -0.38014905      -1.89460659
H        1.16840861       0.91029431       0.68344099
H        1.97885581       0.85650507      -0.85187032
H        2.93318402      -0.88018878       0.64823361
16
Frame=14 idx=007615 GeodesicLength=0.6045726514291097 rxn_smarts="[C:1]([C@@:2]1([H:11])[N:3]([H:12])[C@:4]1([C:5]([C:6](=[O:7])[H:16])([H:14])[H:15])[H:13])([H:8])([H:9])[H:10]>>[C:1]([C:2][C@@:4]([N:3]([H:11])[H:12])([C:5]([C:6](=[O:7])[H:16])([H:14])[H:15])[H:13])([H:8])([H:9])[H:10]"
C       -1.32864555      -0.29832173       1.24650205
C       -1.29990922      -0.17762497      -0.23577223
N       -0.85528303       1.32603510      -0.99833844
C       -0.03906608       0.11208060      -0.93397933
C        1.27850467       0.30361299      -0.22221022
C        1.93318070      -0.98566337       0.18565644
O        1.48918312      -2.08124519      -0.02512226
H       -0.62233693       0.35669443       1.76530559
H       -2.32154262      -0.13304206       1.66626185
H       -1.08472747      -1.34677222       1.45572951
H       -2.08629730       1.00034378      -0.55095143
H       -1.22927625       1.41453355      -1.93507466
H        0.07856982      -0.38727392      -1.89252785
H        1.17079254       0.91562885       0.67946442
H        1.98138272       0.85651227      -0.85583634
H        2.93547088      -0.87549812       0.65089289
16
Frame=15 idx=007615 GeodesicLength=0.647634943653589 rxn_smarts="[C:1]([C@@:2]1([H:11])[N:3]([H:12])[C@:4]1([C:5]([C:6](=[O:7])[H:16])([H:14])[H:15])[H:13])([H:8])([H:9])[H:10]>>[C:1]([C:2][C@@:4]([N:3]([H:11])[H:12])([C:5]([C:6](=[O:7])[H:16])([H:14])[H:15])[H:13])([H:8])([H:9])[H:10]"
C       -1.32985471      -0.30264335       1.24598836
C       -1.29737388      -0.16633474      -0.23393653
N       -0.85248666       1.32321588      -1.00549458
C       -0.03626766       0.11097976      -0.93490176
C        1.28120391       0.30580367      -0.22419122
C        1.93530045      -0.98203681       0.18907649
O        1.49260979      -2.07849554      -0.02004948
H       -0.61355999       0.33734014       1.76993022
H       -2.31983395      -0.12573229       1.66814967
H       -1.10408502      -1.35704578       1.44545153
H       -2.09547043       1.01590246      -0.53978181
H       -1.23388252       1.40662887      -1.93900730
H        0.07883087      -0.39452864      -1.89034845
H        1.17315486       0.92103267       0.67542038
H        1.98390737       0.85656539      -0.85987615
H        2.93780756      -0.87065169       0.65357064
16
Frame=16 idx=007615 GeodesicLength=0.6907446982644496 rxn_smarts="[C:1]([C@@:2]1([H:11])[N:3]([H:12])[C@:4]1([C:5]([C:6](=[O:7])[H:16])([H:14])[H:15])[H:13])([H:8])([H:9])[H:10]>>[C:1]([C:2][C@@:4]([N:3]([H:11])[H:12])([C:5]([C:6](=[O:7])[H:16])([H:14])[H:15])[H:13])([H:8])([H:9])[H:10]"
C       -1.33107097      -0.30709265       1.24533481
C       -1.29470968      -0.15494641      -0.23204239
N       -0.84969527       1.32034095      -1.01276959
C       -0.03345514       0.10986260      -0.93583660
C        1.28392037       0.30807019      -0.22623304
C        1.93748882      -0.97826660       0.19248380
O        1.49589158      -2.07560653      -0.01447578
H       -0.60460631       0.31714908       1.77433236
H       -2.31778725      -0.11823367       1.67019913
H       -1.12405047      -1.36719521       1.43466850
H       -2.10433702       1.03174671      -0.52830129
H       -1.23871479       1.39852410      -1.94287802
H        0.07905148      -0.40192863      -1.88805778
H        1.17548631       0.92652592       0.67128594
H        1.98641999       0.85666420      -0.86401142
H        2.94016836      -0.86561405       0.65630137
