17
Frame=0 idx=007398 GeodesicLength=0.0 rxn_smarts="[C:1]([C@@:2]1([H:11])[O:3][C:4]([H:12])([H:13])[C:5]([H:14])([H:15])[C@:6]1([O:7][H:17])[H:16])([H:8])([H:9])[H:10]>>[C:1]([C:2][H:11])([H:8])([H:9])[H:10].[O:3]1[C:4]([H:12])([H:13])[C:5]([H:14])([H:15])[C@:6]1([O:7][H:17])[H:16]"
C        2.31226334      -0.02741597      -0.20539902
C        1.10706778       0.50094403       0.52890591
O        0.02965811       0.63672912      -0.60114147
C       -1.19372647       1.08979973      -0.03846096
C       -1.66098242      -0.18911615       0.65407624
C       -0.60133512      -1.07718737       0.06196465
O       -0.81116516      -1.75146027      -1.04363156
H        2.59472163       0.55337666      -1.09747375
H        2.19343829      -1.07002772      -0.53019110
H        3.16173922      -0.00950734       0.48278859
H        1.30029477       1.54966670       0.79809505
H       -1.85074352       1.40188355      -0.85381445
H       -1.04208144       1.93182003       0.63862070
H       -1.55332258      -0.16626225       1.73552182
H       -2.66570157      -0.52364435       0.38363168
H        0.16343595      -1.51612511       0.68141840
H       -1.48356087      -1.33347321      -1.59491075
17
Frame=1 idx=007398 GeodesicLength=0.05773835009780373 rxn_smarts="[C:1]([C@@:2]1([H:11])[O:3][C:4]([H:12])([H:13])[C:5]([H:14])([H:15])[C@:6]1([O:7][H:17])[H:16])([H:8])([H:9])[H:10]>>[C:1]([C:2][H:11])([H:8])([H:9])[H:10].[O:3]1[C:4]([H:12])([H:13])[C:5]([H:14])([H:15])[C@:6]1([O:7][H:17])[H:16]"
C        2.30874841      -0.03092982      -0.22157185
C        1.10383198       0.48886999       0.51835928
O        0.02323819       0.64108270      -0.60228429
C       -1.19720209       1.09715439      -0.03405320
C       -1.66723865      -0.18489332       0.65098933
C       -0.58872493      -1.06337672       0.07551040
O       -0.78815940      -1.76117399      -1.02245641
H        2.59204612       0.56404519      -1.10349464
H        2.19078455      -1.06809406      -0.56211462
H        3.15666755      -0.02448782       0.46875626
H        1.29606241       1.53163036       0.80943953
H       -1.85280355       1.41920399      -0.84638922
H       -1.04031456       1.93288708       0.64968272
H       -1.58164058      -0.15971150       1.73445250
H       -2.66427984      -0.52599190       0.36185432
H        0.15025348      -1.51334454       0.71908948
H       -1.44126909      -1.34287003      -1.59576958
17
Frame=2 idx=007398 GeodesicLength=0.11548344119185867 rxn_smarts="[C:1]([C@@:2]1([H:11])[O:3][C:4]([H:12])([H:13])[C:5]([H:14])([H:15])[C@:6]1([O:7][H:17])[H:16])([H:8])([H:9])[H:10]>>[C:1]([C:2][H:11])([H:8])([H:9])[H:10].[O:3]1[C:4]([H:12])([H:13])[C:5]([H:14])([H:15])[C@:6]1([O:7][H:17])[H:16]"
C        2.30522433      -0.03442815      -0.23766802
C        1.10068332       0.47719518       0.50774696
O        0.01683722       0.64525562      -0.60334949
C       -1.20063422       1.10440024      -0.02951545
C       -1.67346985      -0.18090991       0.64775465
C       -0.57635689      -1.04967348       0.08918079
O       -0.76537897      -1.77050171      -1.00095333
H        2.58955962       0.57439619      -1.10930842
H        2.18788090      -1.06589537      -0.59382089
H        3.15159485      -0.03966270       0.45465525
H        1.29203220       1.51364913       0.82015974
H       -1.85475691       1.43656706      -0.83874397
H       -1.03855719       1.93362822       0.66099651
H       -1.61017901      -0.15375135       1.73284299
H       -2.66248479      -0.52838263       0.33991686
H        0.13666783      -1.50951422       0.75595650
H       -1.39866243      -1.35237213      -1.59585069
17
Frame=3 idx=007398 GeodesicLength=0.17333207611456103 rxn_smarts="[C:1]([C@@:2]1([H:11])[O:3][C:4]([H:12])([H:13])[C:5]([H:14])([H:15])[C@:6]1([O:7][H:17])[H:16])([H:8])([H:9])[H:10]>>[C:1]([C:2][H:11])([H:8])([H:9])[H:10].[O:3]1[C:4]([H:12])([H:13])[C:5]([H:14])([H:15])[C@:6]1([O:7][H:17])[H:16]"
C        2.30139734      -0.03790350      -0.25365454
C        1.09748768       0.46592593       0.49705020
O        0.01046209       0.64922085      -0.60423910
C       -1.20385174       1.11152648      -0.02481440
C       -1.67946072      -0.17714391       0.64427782
C       -0.56418388      -1.03606003       0.10291983
O       -0.74275516      -1.77946461      -0.97908492
H        2.58693853       0.58443502      -1.11474643
H        2.18442819      -1.06341895      -0.62529888
H        3.14611016      -0.05503246       0.44043768
H        1.28805561       1.49576100       0.83023553
H       -1.85633855       1.45393145      -0.83073598
H       -1.03664921       1.93404561       0.67253463
H       -1.63872059      -0.14832981       1.73045050
H       -2.65996868      -0.53080667       0.31775819
H        0.12270740      -1.50463715       0.79185916
H       -1.35565847      -1.36204926      -1.59494929
17
Frame=4 idx=007398 GeodesicLength=0.23124101832771965 rxn_smarts="[C:1]([C@@:2]1([H:11])[O:3][C:4]([H:12])([H:13])[C:5]([H:14])([H:15])[C@:6]1([O:7][H:17])[H:16])([H:8])([H:9])[H:10]>>[C:1]([C:2][H:11])([H:8])([H:9])[H:10].[O:3]1[C:4]([H:12])([H:13])[C:5]([H:14])([H:15])[C@:6]1([O:7][H:17])[H:16]"
C        2.29755628      -0.04137604      -0.26960529
C        1.09438662       0.45502986       0.48633179
O        0.00409257       0.65299187      -0.60502968
C       -1.20704020       1.11855857      -0.01996587
C       -1.68547713      -0.17359652       0.64063921
C       -0.55227481      -1.02252775       0.11681889
O       -0.72030477      -1.78807978      -0.95686617
H        2.58449666       0.59416904      -1.12002501
H        2.18070366      -1.06067698      -0.65664088
H        3.14063662      -0.07064192       0.42607879
H        1.28429588       1.47795445       0.83973395
H       -1.85781086       1.47137335      -0.82249072
H       -1.03476892       1.93412785       0.68435656
H       -1.66757325      -0.14348693       1.72748784
H       -2.65710891      -0.53323792       0.29536753
H        0.10846586      -1.49875078       0.82705129
H       -1.31227531      -1.37183038      -1.59324226
17
Frame=5 idx=007398 GeodesicLength=0.28921546268026693 rxn_smarts="[C:1]([C@@:2]1([H:11])[O:3][C:4]([H:12])([H:13])[C:5]([H:14])([H:15])[C@:6]1([O:7][H:17])[H:16])([H:8])([H:9])[H:10]>>[C:1]([C:2][H:11])([H:8])([H:9])[H:10].[O:3]1[C:4]([H:12])([H:13])[C:5]([H:14])([H:15])[C@:6]1([O:7][H:17])[H:16]"
C        2.29359390      -0.04484111      -0.28548561
C        1.09132514       0.44451405       0.47559774
O       -0.00226758       0.65656371      -0.60569713
C       -1.21013722       1.12548826      -0.01496728
C       -1.69142037      -0.17026212       0.63681321
C       -0.54061672      -1.00906645       0.13082391
O       -0.69803848      -1.79634164      -0.93433075
H        2.58212328       0.60358541      -1.12507649
H        2.17659539      -1.05767655      -0.68778461
H        3.13501449      -0.08646411       0.41159378
H        1.28070066       1.46027543       0.84863885
H       -1.85908206       1.48885392      -0.81396715
H       -1.03286105       1.93388016       0.69643056
H       -1.69659877      -0.13921025       1.72386693
H       -2.65376468      -0.53567178       0.27276317
H        0.09400226      -1.49190343       0.86142686
H       -1.26856818      -1.38172350      -1.59064600
17
Frame=6 idx=007398 GeodesicLength=0.3472296793416581 rxn_smarts="[C:1]([C@@:2]1([H:11])[O:3][C:4]([H:12])([H:13])[C:5]([H:14])([H:15])[C@:6]1([O:7][H:17])[H:16])([H:8])([H:9])[H:10]>>[C:1]([C:2][H:11])([H:8])([H:9])[H:10].[O:3]1[C:4]([H:12])([H:13])[C:5]([H:14])([H:15])[C@:6]1([O:7][H:17])[H:16]"
C        2.28951609      -0.04830795      -0.30126273
C        1.08829101       0.43437782       0.46486379
O       -0.00861531       0.65994903      -0.60624966
C       -1.21315200       1.13231568      -0.00983150
C       -1.69726489      -0.16713465       0.63281150
C       -0.52920871      -0.99566601       0.14488055
O       -0.67596880      -1.80421915      -0.91156126
H        2.57981780       0.61263789      -1.12990574
H        2.17212715      -1.05445556      -0.71863548
H        3.12924241      -0.10244897       0.39701354
H        1.27724961       1.44275454       0.85696041
H       -1.86017009       1.50634119      -0.80517504
H       -1.03095032       1.93331592       0.70872238
H       -1.72571024      -0.13549142       1.71958358
H       -2.64991965      -0.53810905       0.25002005
H        0.07938708      -1.48416254       0.89492022
H       -1.22467114      -1.39169674      -1.58715460
17
Frame=7 idx=007398 GeodesicLength=0.40534272091688983 rxn_smarts="[C:1]([C@@:2]1([H:11])[O:3][C:4]([H:12])([H:13])[C:5]([H:14])([H:15])[C@:6]1([O:7][H:17])[H:16])([H:8])([H:9])[H:10]>>[C:1]([C:2][H:11])([H:8])([H:9])[H:10].[O:3]1[C:4]([H:12])([H:13])[C:5]([H:14])([H:15])[C@:6]1([O:7][H:17])[H:16]"
C        2.28530357      -0.05179154      -0.31697300
C        1.08528649       0.42461010       0.45414540
O       -0.01496348       0.66315487      -0.60667014
C       -1.21609398       1.13905131      -0.00453239
C       -1.70304494      -0.16421002       0.62861705
C       -0.51805254      -0.98230137       0.15902276
O       -0.65405951      -1.81173813      -0.88850262
H        2.57754580       0.62130581      -1.13457328
H        2.16727026      -1.05103468      -0.74921978
H        3.12331987      -0.11861400       0.38227423
H        1.27396662       1.42541207       0.86469492
H       -1.86107121       1.52387191      -0.79608149
H       -1.02904896       1.93241898       0.72127727
H       -1.75498924      -0.13235085       1.71460769
H       -2.64558280      -0.54053369       0.22705979
H        0.06465464      -1.47553903       0.92761286
H       -1.18044060      -1.40171173      -1.58275927
17
Frame=8 idx=007398 GeodesicLength=0.4636032613037688 rxn_smarts="[C:1]([C@@:2]1([H:11])[O:3][C:4]([H:12])([H:13])[C:5]([H:14])([H:15])[C@:6]1([O:7][H:17])[H:16])([H:8])([H:9])[H:10]>>[C:1]([C:2][H:11])([H:8])([H:9])[H:10].[O:3]1[C:4]([H:12])([H:13])[C:5]([H:14])([H:15])[C@:6]1([O:7][H:17])[H:16]"
C        2.28092039      -0.05529164      -0.33264920
C        1.08230932       0.41520959       0.44345063
O       -0.02132236       0.66618623      -0.60695103
C       -1.21895504       1.14570213       0.00094337
C       -1.70876840      -0.16148494       0.62420349
C       -0.50714392      -0.96895615       0.17327796
O       -0.63227117      -1.81893711      -0.86510649
H        2.57530351       0.62964327      -1.13905987
H        2.16195101      -1.04738147      -0.77964382
H        3.11719978      -0.13504535       0.36733780
H        1.27086995       1.40826800       0.87186647
H       -1.86176465       1.54147257      -0.78666271
H       -1.02714073       1.93117775       0.73412347
H       -1.78447547      -0.12977242       1.70889396
H       -2.64073058      -0.54294217       0.20380580
H        0.04983505      -1.46603425       0.95959392
H       -1.13581670      -1.41181404      -1.57742377
17
Frame=9 idx=007398 GeodesicLength=0.5219988611622539 rxn_smarts="[C:1]([C@@:2]1([H:11])[O:3][C:4]([H:12])([H:13])[C:5]([H:14])([H:15])[C@:6]1([O:7][H:17])[H:16])([H:8])([H:9])[H:10]>>[C:1]([C:2][H:11])([H:8])([H:9])[H:10].[O:3]1[C:4]([H:12])([H:13])[C:5]([H:14])([H:15])[C@:6]1([O:7][H:17])[H:16]"
C        2.27637486      -0.05882779      -0.34825394
C        1.07934318       0.40617521       0.43279499
O       -0.02768912       0.66906570      -0.60710377
C       -1.22175410       1.15226813       0.00658503
C       -1.71440715      -0.15895354       0.61959094
C       -0.49647624      -0.95561490       0.18758633
O       -0.61061474      -1.82576753      -0.84146435
H        2.57307811       0.63755863      -1.14340750
H        2.15621403      -1.04356550      -0.80976844
H        3.11088732      -0.15166398       0.35224056
H        1.26793404       1.39135509       0.87847478
H       -1.86228164       1.55910373      -0.77692835
H       -1.02527167       1.92960463       0.74723027
H       -1.81407311      -0.12776293       1.70245044
H       -2.63534219      -0.54533404       0.18034945
H        0.03498542      -1.45571718       0.99078603
H       -1.09090701      -1.42192371      -1.57116247
17
Frame=10 idx=007398 GeodesicLength=0.5805725602314341 rxn_smarts="[C:1]([C@@:2]1([H:11])[O:3][C:4]([H:12])([H:13])[C:5]([H:14])([H:15])[C@:6]1([O:7][H:17])[H:16])([H:8])([H:9])[H:10]>>[C:1]([C:2][H:11])([H:8])([H:9])[H:10].[O:3]1[C:4]([H:12])([H:13])[C:5]([H:14])([H:15])[C@:6]1([O:7][H:17])[H:16]"
C        2.27164889      -0.06240798      -0.36381648
C        1.07639128       0.39750004       0.42218716
O       -0.03407355       0.67180884      -0.60711988
C       -1.22449748       1.15876072       0.01240810
C       -1.71998077      -0.15661616       0.61475823
C       -0.48604727      -0.94225856       0.20196990
O       -0.58906255      -1.83225315      -0.81753235
H        2.57085838       0.64506357      -1.14764213
H        2.15002350      -1.03959134      -0.83964076
H        3.10437141      -0.16850786       0.33693995
H        1.26518451       1.37469222       0.88453264
H       -1.86262365       1.57679461      -0.76685515
H       -1.02344494       1.92769208       0.76062554
H       -1.84382952      -0.12633133       1.69523725
H       -2.62941338      -0.54770473       0.15662870
H        0.02012593      -1.44460770       1.02126638
H       -1.04563077      -1.43203326      -1.56394712
17
Frame=11 idx=007398 GeodesicLength=0.6393029381530331 rxn_smarts="[C:1]([C@@:2]1([H:11])[O:3][C:4]([H:12])([H:13])[C:5]([H:14])([H:15])[C@:6]1([O:7][H:17])[H:16])([H:8])([H:9])[H:10]>>[C:1]([C:2][H:11])([H:8])([H:9])[H:10].[O:3]1[C:4]([H:12])([H:13])[C:5]([H:14])([H:15])[C@:6]1([O:7][H:17])[H:16]"
C        2.26674096      -0.06604350      -0.37929174
C        1.07343502       0.38918505       0.41164190
O       -0.04047101       0.67443410      -0.60701361
C       -1.22719462       1.16517154       0.01839374
C       -1.72544618      -0.15446925       0.60972921
C       -0.47584807      -0.92887827       0.21636287
O       -0.56764501      -1.83834745      -0.79341410
H        2.56863376       0.65209328      -1.15177823
H        2.14340357      -1.03551734      -0.86913273
H        3.09764250      -0.18549892       0.32149322
H        1.26260018       1.35831414       0.89004281
H       -1.86281616       1.59448407      -0.75646524
H       -1.02168839       1.92545550       0.77426057
H       -1.87360986      -0.12547160       1.68727081
H       -2.62292077      -0.55005257       0.13274592
H        0.00530512      -1.43279181       1.05095274
H       -1.00012104      -1.44206697      -1.55579814
17
Frame=12 idx=007398 GeodesicLength=0.6981530440459501 rxn_smarts="[C:1]([C@@:2]1([H:11])[O:3][C:4]([H:12])([H:13])[C:5]([H:14])([H:15])[C@:6]1([O:7][H:17])[H:16])([H:8])([H:9])[H:10]>>[C:1]([C:2][H:11])([H:8])([H:9])[H:10].[O:3]1[C:4]([H:12])([H:13])[C:5]([H:14])([H:15])[C@:6]1([O:7][H:17])[H:16]"
C        2.26166084      -0.06974603      -0.39462702
C        1.07045930       0.38122700       0.40117569
O       -0.04687250       0.67696335      -0.60679853
C       -1.22985775       1.17149154       0.02451711
C       -1.73076242      -0.15250990       0.60453710
C       -0.46587209      -0.91547037       0.23069242
O       -0.54640292      -1.84400179      -0.76923032
H        2.56638570       0.65857398      -1.15584922
H        2.13640395      -1.03142547      -0.89808146
H        3.09071372      -0.20252256       0.30596659
H        1.26015920       1.34225172       0.89501467
H       -1.86289266       1.61210199      -0.74579298
H       -1.02003106       1.92291981       0.78807136
H       -1.90326198      -0.12517763       1.67858579
H       -2.61585957      -0.55237939       0.10882741
H       -0.00943726      -1.42037929       1.07975286
H       -0.95453250      -1.45191696      -1.54676145
17
Frame=13 idx=007398 GeodesicLength=0.7571917480041632 rxn_smarts="[C:1]([C@@:2]1([H:11])[O:3][C:4]([H:12])([H:13])[C:5]([H:14])([H:15])[C@:6]1([O:7][H:17])[H:16])([H:8])([H:9])[H:10]>>[C:1]([C:2][H:11])([H:8])([H:9])[H:10].[O:3]1[C:4]([H:12])([H:13])[C:5]([H:14])([H:15])[C@:6]1([O:7][H:17])[H:16]"
C        2.25639263      -0.07352542      -0.40985220
C        1.06746297       0.37362075       0.39079263
O       -0.05328780       0.67941087      -0.60647255
C       -1.23249747       1.17773213       0.03078938
C       -1.73594231      -0.15073227       0.59916862
C       -0.45610722      -0.90201808       0.24498185
O       -0.52529507      -1.84924163      -0.74494255
H        2.56412184       0.66453296      -1.15986287
H        2.12899890      -1.02731278      -0.92656977
H        3.08356040      -0.21965584       0.29033357
H        1.25787058       1.32652321       0.89946118
H       -1.86286172       1.62967502      -0.73482061
H       -1.01848977       1.92008385       0.80208197
H       -1.93282676      -0.12544370       1.66915896
H       -2.60821830      -0.55468024       0.08482746
H       -0.02408845      -1.40738126       1.10774640
H       -0.90879243      -1.46158758      -1.53682147
17
Frame=14 idx=007398 GeodesicLength=0.8164754397188597 rxn_smarts="[C:1]([C@@:2]1([H:11])[O:3][C:4]([H:12])([H:13])[C:5]([H:14])([H:15])[C@:6]1([O:7][H:17])[H:16])([H:8])([H:9])[H:10]>>[C:1]([C:2][H:11])([H:8])([H:9])[H:10].[O:3]1[C:4]([H:12])([H:13])[C:5]([H:14])([H:15])[C@:6]1([O:7][H:17])[H:16]"
C        2.25091212      -0.07738214      -0.42498990
C        1.06444338       0.36636126       0.38049023
O       -0.05971856       0.68178229      -0.60603021
C       -1.23510901       1.18388569       0.03721617
C       -1.74098626      -0.14913706       0.59360613
C       -0.44654552      -0.88850116       0.25924893
O       -0.50429537      -1.85407691      -0.72050611
H        2.56185711       0.67000987      -1.16379541
H        2.12114035      -1.02314367      -0.95468376
H        3.07613128      -0.23697790       0.27456911
H        1.25574244       1.31113905       0.90339026
H       -1.86271120       1.64719604      -0.72352937
H       -1.01706068       1.91692712       0.81629421
H       -1.96231997      -0.12625876       1.65894846
H       -2.59997526      -0.55695639       0.06071372
H       -0.03864974      -1.39379592       1.13499325
H       -0.86285511      -1.47107142      -1.52593570
17
Frame=15 idx=007398 GeodesicLength=0.8759776767160103 rxn_smarts="[C:1]([C@@:2]1([H:11])[O:3][C:4]([H:12])([H:13])[C:5]([H:14])([H:15])[C@:6]1([O:7][H:17])[H:16])([H:8])([H:9])[H:10]>>[C:1]([C:2][H:11])([H:8])([H:9])[H:10].[O:3]1[C:4]([H:12])([H:13])[C:5]([H:14])([H:15])[C@:6]1([O:7][H:17])[H:16]"
C        2.24524177      -0.08133446      -0.43998318
C        1.06138687       0.35943963       0.37029193
O       -0.06615696       0.68410464      -0.60548869
C       -1.23771629       1.18995478       0.04377104
C       -1.74585698      -0.14771542       0.58789514
C       -0.43717640      -0.87492569       0.27341706
O       -0.48344028      -1.85846171      -0.69607141
H        2.55955398       0.67490870      -1.16771811
H        2.11291809      -1.01904101      -0.98222946
H        3.06847295      -0.25433299       0.25875257
H        1.25374733       1.29612441       0.90682838
H       -1.86249294       1.66460913      -0.71196849
H       -1.01578605       1.91349691       0.83064876
H       -1.99158331      -0.12761421       1.64802233
H       -2.59114168      -0.55920211       0.03662604
H       -0.05308556      -1.37975754       1.16139854
H       -0.81688456      -1.48025307      -1.51419244
17
Frame=16 idx=007398 GeodesicLength=0.9356577495154763 rxn_smarts="[C:1]([C@@:2]1([H:11])[O:3][C:4]([H:12])([H:13])[C:5]([H:14])([H:15])[C@:6]1([O:7][H:17])[H:16])([H:8])([H:9])[H:10]>>[C:1]([C:2][H:11])([H:8])([H:9])[H:10].[O:3]1[C:4]([H:12])([H:13])[C:5]([H:14])([H:15])[C@:6]1([O:7][H:17])[H:16]"
C        2.23939683      -0.08538563      -0.45476866
C        1.05827889       0.35284695       0.36021111
O       -0.07258598       0.68639048      -0.60486195
C       -1.24032496       1.19591863       0.05041546
C       -1.75050723      -0.14646138       0.58208638
C       -0.42799245      -0.86129887       0.28740861
O       -0.46278872      -1.86234211      -0.67178504
H        2.55719948       0.67917836      -1.17164539
H        2.10439633      -1.01508291      -1.00904380
H        3.06060301      -0.27159130       0.24297463
H        1.25185546       1.28149360       0.90979117
H       -1.86223692       1.68181376      -0.70019641
H       -1.01468237       1.90982705       0.84504873
H       -2.02043296      -0.12947969       1.63645329
H       -2.58173674      -0.56141781       0.01273055
H       -0.06737178      -1.36539945       1.18685361
H       -0.77106988      -1.48900969      -1.50167230
