12
Frame=0 idx=003158 GeodesicLength=0.0 rxn_smarts="[O:1]=[C:2]1[C:3]([H:7])([H:8])[C:4]([H:9])([H:10])[C:5]([H:11])=[C:6]1[H:12]>>[O:1]=[C:2]([C:3]([C:4]([H:9])([H:10])[H:11])([H:7])[H:8])[C:6](=[C:5])[H:12]"
O        2.35293794      -0.68519096       0.28936507
C        1.26346041      -0.22290191       0.09987653
C       -0.00848925      -1.04658576      -0.08324667
C       -1.21366600      -0.18373162       0.09565425
C       -0.27298514       1.68628034      -0.15636855
C        0.95307911       1.22455331      -0.03102266
H        0.01680519      -1.87344360       0.62728126
H        0.03568702      -1.47632464      -1.08643545
H       -2.03543559      -0.38924539      -0.59062664
H       -1.57307425      -0.10799755       1.11962043
H       -1.30357105       1.15533965      -0.25068406
H        1.78525165       1.91924818      -0.03341350
12
Frame=1 idx=003158 GeodesicLength=0.04759499036258764 rxn_smarts="[O:1]=[C:2]1[C:3]([H:7])([H:8])[C:4]([H:9])([H:10])[C:5]([H:11])=[C:6]1[H:12]>>[O:1]=[C:2]([C:3]([C:4]([H:9])([H:10])[H:11])([H:7])[H:8])[C:6](=[C:5])[H:12]"
O        2.35325771      -0.68570008       0.29553849
C        1.26451465      -0.22338115       0.10100329
C       -0.00807121      -1.04489767      -0.08273119
C       -1.21350364      -0.17839922       0.09394481
C       -0.27065879       1.68592360      -0.11592246
C        0.95882591       1.22420760      -0.04224858
H        0.01621277      -1.87135460       0.62830374
H        0.03682015      -1.47662863      -1.08510867
H       -2.03356140      -0.39527048      -0.59124457
H       -1.58166769      -0.11697022       1.11610790
H       -1.31251129       1.16273332      -0.26562054
H        1.79034281       1.91973753      -0.05202221
12
Frame=2 idx=003158 GeodesicLength=0.09507333575053774 rxn_smarts="[O:1]=[C:2]1[C:3]([H:7])([H:8])[C:4]([H:9])([H:10])[C:5]([H:11])=[C:6]1[H:12]>>[O:1]=[C:2]([C:3]([C:4]([H:9])([H:10])[H:11])([H:7])[H:8])[C:6](=[C:5])[H:12]"
O        2.35368899      -0.68602586       0.30054117
C        1.26558359      -0.22390297       0.10117449
C       -0.00775613      -1.04338319      -0.08219766
C       -1.21339592      -0.17307706       0.09234534
C       -0.26776857       1.68393081      -0.07937652
C        0.96365720       1.22394377      -0.05132998
H        0.01582050      -1.86916856       0.62962994
H        0.03745003      -1.47720578      -1.08373396
H       -2.03193213      -0.40098226      -0.59142628
H       -1.58936761      -0.12511408       1.11274856
H       -1.32016669       1.17037148      -0.28011245
H        1.79418674       1.92061370      -0.06826265
12
Frame=3 idx=003158 GeodesicLength=0.14246456468462096 rxn_smarts="[O:1]=[C:2]1[C:3]([H:7])([H:8])[C:4]([H:9])([H:10])[C:5]([H:11])=[C:6]1[H:12]>>[O:1]=[C:2]([C:3]([C:4]([H:9])([H:10])[H:11])([H:7])[H:8])[C:6](=[C:5])[H:12]"
O        2.35422082      -0.68633187       0.30439611
C        1.26668861      -0.22451969       0.10043840
C       -0.00753542      -1.04201877      -0.08173052
C       -1.21330491      -0.16776184       0.09095227
C       -0.26452128       1.68069255      -0.04725275
C        0.96783475       1.22378405      -0.05822027
H        0.01560954      -1.86698754       0.63104246
H        0.03756087      -1.47789903      -1.08246105
H       -2.03070924      -0.40673246      -0.59073494
H       -1.59589119      -0.13215101       1.10977920
H       -1.32702696       1.17803711      -0.29464081
H        1.79707443       1.92188849      -0.08156810
12
Frame=4 idx=003158 GeodesicLength=0.189845943359939 rxn_smarts="[O:1]=[C:2]1[C:3]([H:7])([H:8])[C:4]([H:9])([H:10])[C:5]([H:11])=[C:6]1[H:12]>>[O:1]=[C:2]([C:3]([C:4]([H:9])([H:10])[H:11])([H:7])[H:8])[C:6](=[C:5])[H:12]"
O        2.35482750      -0.68668680       0.30739442
C        1.26782331      -0.22523269       0.09903625
C       -0.00739554      -1.04078160      -0.08134993
C       -1.21322878      -0.16246356       0.08976452
C       -0.26108241       1.67659933      -0.01892925
C        0.97159360       1.22373666      -0.06338072
H        0.01553511      -1.86489700       0.63243068
H        0.03723557      -1.47861949      -1.08134591
H       -2.02987805      -0.41260418      -0.58918945
H       -1.60134967      -0.13824110       1.10722671
H       -1.33339321       1.18565647      -0.30932098
H        1.79931257       1.92353397      -0.09233635
12
Frame=5 idx=003158 GeodesicLength=0.23702515264459084 rxn_smarts="[O:1]=[C:2]1[C:3]([H:7])([H:8])[C:4]([H:9])([H:10])[C:5]([H:11])=[C:6]1[H:12]>>[O:1]=[C:2]([C:3]([C:4]([H:9])([H:10])[H:11])([H:7])[H:8])[C:6](=[C:5])[H:12]"
O        2.35543811      -0.68709694       0.30971511
C        1.26895009      -0.22603899       0.09714068
C       -0.00729063      -1.03956126      -0.08106417
C       -1.21314767      -0.15715286       0.08877469
C       -0.25759275       1.67181055       0.00615360
C        0.97502218       1.22364411      -0.06722744
H        0.01558109      -1.86277321       0.63364699
H        0.03665200      -1.47918649      -1.08033293
H       -2.02932448      -0.41858502      -0.58675529
H       -1.60587853      -0.14346658       1.10502397
H       -1.33944413       1.19308108      -0.32418538
H        1.80103472       1.92532562      -0.10088984
12
Frame=6 idx=003158 GeodesicLength=0.2842565104855632 rxn_smarts="[O:1]=[C:2]1[C:3]([H:7])([H:8])[C:4]([H:9])([H:10])[C:5]([H:11])=[C:6]1[H:12]>>[O:1]=[C:2]([C:3]([C:4]([H:9])([H:10])[H:11])([H:7])[H:8])[C:6](=[C:5])[H:12]"
O        2.35606800      -0.68754866       0.31167555
C        1.27007827      -0.22689426       0.09498600
C       -0.00724454      -1.03843096      -0.08084365
C       -1.21309536      -0.15188194       0.08791705
C       -0.25405084       1.66662541       0.02901646
C        0.97827971       1.22366277      -0.07008561
H        0.01566788      -1.86079767       0.63479268
H        0.03583029      -1.47972444      -1.07948197
H       -2.02897953      -0.42461366      -0.58382966
H       -1.60977522      -0.14822770       1.10311245
H       -1.34523418       1.20047073      -0.33908846
H        1.80245552       1.92736038      -0.10817083
12
Frame=7 idx=003158 GeodesicLength=0.3314854898310079 rxn_smarts="[O:1]=[C:2]1[C:3]([H:7])([H:8])[C:4]([H:9])([H:10])[C:5]([H:11])=[C:6]1[H:12]>>[O:1]=[C:2]([C:3]([C:4]([H:9])([H:10])[H:11])([H:7])[H:8])[C:6](=[C:5])[H:12]"
O        2.35669551      -0.68804296       0.31340497
C        1.27119644      -0.22779951       0.09268523
C       -0.00723295      -1.03734259      -0.08068711
C       -1.21306719      -0.14663296       0.08717356
C       -0.25049962       1.66111243       0.05008160
C        0.98139272       1.22371794      -0.07209743
H        0.01578111      -1.85892394       0.63579968
H        0.03487229      -1.48014881      -1.07876667
H       -2.02877016      -0.43065288      -0.58045624
H       -1.61315361      -0.15260485       1.10142668
H       -1.35083283       1.20778194      -0.35401214
H        1.80361829       1.92953620      -0.11455211
12
Frame=8 idx=003158 GeodesicLength=0.3786991881955638 rxn_smarts="[O:1]=[C:2]1[C:3]([H:7])([H:8])[C:4]([H:9])([H:10])[C:5]([H:11])=[C:6]1[H:12]>>[O:1]=[C:2]([C:3]([C:4]([H:9])([H:10])[H:11])([H:7])[H:8])[C:6](=[C:5])[H:12]"
O        2.35730403      -0.68857632       0.31507015
C        1.27230001      -0.22874863       0.09034832
C       -0.00724107      -1.03628102      -0.08058122
C       -1.21306270      -0.14140242       0.08651181
C       -0.24694600       1.65533963       0.06989706
C        0.98439540       1.22380204      -0.07335333
H        0.01590759      -1.85715276       0.63666309
H        0.03385013      -1.48043893      -1.07817046
H       -2.02860969      -0.43662393      -0.57680230
H       -1.61617041      -0.15675962       1.09988491
H       -1.35623580       1.21505659      -0.36886987
H        1.80450850       1.93178536      -0.12059816
12
Frame=9 idx=003158 GeodesicLength=0.4258786013588633 rxn_smarts="[O:1]=[C:2]1[C:3]([H:7])([H:8])[C:4]([H:9])([H:10])[C:5]([H:11])=[C:6]1[H:12]>>[O:1]=[C:2]([C:3]([C:4]([H:9])([H:10])[H:11])([H:7])[H:8])[C:6](=[C:5])[H:12]"
O        2.35787567      -0.68913650       0.31655618
C        1.27337428      -0.22972877       0.08789646
C       -0.00728123      -1.03524932      -0.08051851
C       -1.21307192      -0.13619339       0.08593982
C       -0.24340764       1.64935852       0.08841338
C        0.98730764       1.22389874      -0.07415926
H        0.01605216      -1.85545279       0.63743087
H        0.03271342      -1.48065019      -1.07765738
H       -2.02851601      -0.44259148      -0.57277921
H       -1.61877576      -0.16064198       1.09851401
H       -1.36151951       1.22223404      -0.38379356
H        1.80524890       1.93415312      -0.12584279
12
Frame=10 idx=003158 GeodesicLength=0.47306815272495056 rxn_smarts="[O:1]=[C:2]1[C:3]([H:7])([H:8])[C:4]([H:9])([H:10])[C:5]([H:11])=[C:6]1[H:12]>>[O:1]=[C:2]([C:3]([C:4]([H:9])([H:10])[H:11])([H:7])[H:8])[C:6](=[C:5])[H:12]"
O        2.35844159      -0.68972936       0.31792087
C        1.27443635      -0.23073814       0.08539687
C       -0.00734235      -1.03424148      -0.08048724
C       -1.21310863      -0.13099858       0.08543762
C       -0.23987533       1.64320975       0.10595691
C        0.99015345       1.22400739      -0.07453520
H        0.01621176      -1.85381837       0.63811644
H        0.03150514      -1.48078582      -1.07722411
H       -2.02846010      -0.44851641      -0.56849677
H       -1.62108598      -0.16432490       1.09727436
H       -1.36669014       1.22933771      -0.39875555
H        1.80581425       1.93659821      -0.13060420
12
Frame=11 idx=003158 GeodesicLength=0.5202571663613146 rxn_smarts="[O:1]=[C:2]1[C:3]([H:7])([H:8])[C:4]([H:9])([H:10])[C:5]([H:11])=[C:6]1[H:12]>>[O:1]=[C:2]([C:3]([C:4]([H:9])([H:10])[H:11])([H:7])[H:8])[C:6](=[C:5])[H:12]"
O        2.35898791      -0.69034933       0.31922295
C        1.27548044      -0.23177278       0.08288594
C       -0.00742160      -1.03325215      -0.08048150
C       -1.21316904      -0.12581762       0.08499114
C       -0.23634980       1.63691815       0.12275164
C        0.99294152       1.22412418      -0.07451366
H        0.01637545      -1.85225059       0.63871892
H        0.03024853      -1.48084096      -1.07685900
H       -2.02840630      -0.45437294      -0.56401298
H       -1.62315691      -0.16787413       1.09612931
H       -1.37175183       1.23637964      -0.41373657
H        1.80622163       1.93910855      -0.13509620
12
Frame=12 idx=003158 GeodesicLength=0.5674821093852468 rxn_smarts="[O:1]=[C:2]1[C:3]([H:7])([H:8])[C:4]([H:9])([H:10])[C:5]([H:11])=[C:6]1[H:12]>>[O:1]=[C:2]([C:3]([C:4]([H:9])([H:10])[H:11])([H:7])[H:8])[C:6](=[C:5])[H:12]"
O        2.35952125      -0.69101116       0.32052144
C        1.27651122      -0.23284121       0.08040266
C       -0.00751088      -1.03228852      -0.08049276
C       -1.21325393      -0.12064390       0.08458693
C       -0.23282329       1.63049244       0.13902460
C        0.99567116       1.22426588      -0.07413350
H        0.01654105      -1.85076473       0.63925554
H        0.02897281      -1.48083637      -1.07656257
H       -2.02832301      -0.46012153      -0.55941169
H       -1.62505608      -0.17134669       1.09504705
H       -1.37671384       1.24340272      -0.42869803
H        1.80646355       1.94169306      -0.13953966
12
Frame=13 idx=003158 GeodesicLength=0.6146516403970954 rxn_smarts="[O:1]=[C:2]1[C:3]([H:7])([H:8])[C:4]([H:9])([H:10])[C:5]([H:11])=[C:6]1[H:12]>>[O:1]=[C:2]([C:3]([C:4]([H:9])([H:10])[H:11])([H:7])[H:8])[C:6](=[C:5])[H:12]"
O        2.36002047      -0.69167183       0.32180890
C        1.27752055      -0.23391590       0.07795470
C       -0.00761881      -1.03132039      -0.08052636
C       -1.21335489      -0.11548279       0.08422647
C       -0.22929752       1.62396717       0.15481371
C        0.99836567       1.22436666      -0.07324785
H        0.01668141      -1.84933148       0.63968049
H        0.02767029      -1.48070046      -1.07631947
H       -2.02820018      -0.46579223      -0.55465609
H       -1.62677188      -0.17474936       1.09401503
H       -1.38155079       1.25033915      -0.44370992
H        1.80653567       1.94429145      -0.14403960
12
Frame=14 idx=003158 GeodesicLength=0.6618594169173865 rxn_smarts="[O:1]=[C:2]1[C:3]([H:7])([H:8])[C:4]([H:9])([H:10])[C:5]([H:11])=[C:6]1[H:12]>>[O:1]=[C:2]([C:3]([C:4]([H:9])([H:10])[H:11])([H:7])[H:8])[C:6](=[C:5])[H:12]"
O        2.36050876      -0.69235993       0.32305172
C        1.27851796      -0.23501539       0.07550291
C       -0.00773785      -1.03037462      -0.08056164
C       -1.21347695      -0.11032520       0.08389759
C       -0.22574953       1.61730859       0.17024655
C        1.00101570       1.22449630      -0.07220143
H        0.01682273      -1.84793787       0.64009523
H        0.02633940      -1.48056056      -1.07610092
H       -2.02802697      -0.47134663      -0.54982423
H       -1.62835655      -0.17810025       1.09301923
H       -1.38631487       1.25725594      -0.45872550
H        1.80645817       1.94695963      -0.14839952
12
Frame=15 idx=003158 GeodesicLength=0.7090512455957103 rxn_smarts="[O:1]=[C:2]1[C:3]([H:7])([H:8])[C:4]([H:9])([H:10])[C:5]([H:11])=[C:6]1[H:12]>>[O:1]=[C:2]([C:3]([C:4]([H:9])([H:10])[H:11])([H:7])[H:8])[C:6](=[C:5])[H:12]"
O        2.36098656      -0.69306269       0.32425758
C        1.27950272      -0.23612711       0.07308161
C       -0.00786693      -1.02941926      -0.08060997
C       -1.21361667      -0.10516535       0.08361137
C       -0.22219633       1.61055435       0.18531412
C        1.00362957       1.22458609      -0.07083032
H        0.01696217      -1.84657408       0.64042474
H        0.02498196      -1.48031504      -1.07591717
H       -2.02781796      -0.47681324      -0.54484578
H       -1.62978010      -0.18136990       1.09206869
H       -1.39100143       1.26407523      -0.47384602
H        1.80621643       1.94963099      -0.15270886
12
Frame=16 idx=003158 GeodesicLength=0.7562581552300573 rxn_smarts="[O:1]=[C:2]1[C:3]([H:7])([H:8])[C:4]([H:9])([H:10])[C:5]([H:11])=[C:6]1[H:12]>>[O:1]=[C:2]([C:3]([C:4]([H:9])([H:10])[H:11])([H:7])[H:8])[C:6](=[C:5])[H:12]"
O        2.36145260      -0.69380108       0.32538046
C        1.28047231      -0.23725774       0.07065657
C       -0.00801056      -1.02848463      -0.08066280
C       -1.21377325      -0.10000197       0.08336880
C       -0.21862766       1.60371899       0.20004799
C        1.00621329       1.22468932      -0.06926679
H        0.01710107      -1.84526440       0.64072900
H        0.02358150      -1.48004817      -1.07576942
H       -2.02757119      -0.48219720      -0.53973937
H       -1.63104822      -0.18455365       1.09118494
H       -1.39562675       1.27082382      -0.48910512
H        1.80583688       1.95237670      -0.15682427
