11
Frame=0 idx=000905 GeodesicLength=0.0 rxn_smarts="[N:1]([c:2]1[n:3][n:4]([H:9])[c:5]([H:10])[c:6]1[H:11])([H:7])[H:8]>>[N:1]([C:2]1=[N:3][N+:4]([H:9])=[C-:5][C:6]1([H:10])[H:11])([H:7])[H:8]"
N       -1.88941312      -0.26021660       0.22815722
C       -0.52633843      -0.19639755       0.02432873
N        0.23097944      -1.25563040      -0.02714174
N        1.49678925      -0.78052875      -0.14633886
C        1.64647102       0.55436878      -0.27843703
C        0.28657356       0.98424775      -0.10047187
H       -2.42572729       0.45109710      -0.23830741
H       -2.27333073      -1.18300561       0.10294492
H        2.24117253      -1.45283957      -0.15719782
H        1.26132270       1.13241798       0.79445853
H       -0.04849893       2.00648691      -0.20199467
11
Frame=1 idx=000905 GeodesicLength=0.03720722295302549 rxn_smarts="[N:1]([c:2]1[n:3][n:4]([H:9])[c:5]([H:10])[c:6]1[H:11])([H:7])[H:8]>>[N:1]([C:2]1=[N:3][N+:4]([H:9])=[C-:5][C:6]1([H:10])[H:11])([H:7])[H:8]"
N       -1.88989777      -0.26204736       0.22721697
C       -0.52647934      -0.19793899       0.02897254
N        0.22884677      -1.25808493      -0.03049636
N        1.49597583      -0.78197269      -0.15080128
C        1.64305815       0.55166325      -0.27888659
C        0.28602696       0.98469459      -0.08996265
H       -2.42490471       0.45249420      -0.23565901
H       -2.27478450      -1.18376328       0.09739726
H        2.24105526      -1.45365235      -0.15660426
H        1.27302657       1.14495690       0.80124338
H       -0.05192321       2.00365065      -0.21242001
11
Frame=2 idx=000905 GeodesicLength=0.07438003202137376 rxn_smarts="[N:1]([c:2]1[n:3][n:4]([H:9])[c:5]([H:10])[c:6]1[H:11])([H:7])[H:8]>>[N:1]([C:2]1=[N:3][N+:4]([H:9])=[C-:5][C:6]1([H:10])[H:11])([H:7])[H:8]"
N       -1.89035782      -0.26383522       0.22628444
C       -0.52663081      -0.19950075       0.03346512
N        0.22664609      -1.26050990      -0.03421072
N        1.49512628      -0.78338321      -0.15531368
C        1.63963379       0.54899564      -0.27906307
C        0.28551185       0.98512345      -0.07931338
H       -2.42409871       0.45387478      -0.23298720
H       -2.27623866      -1.18446003       0.09200362
H        2.24088366      -1.45441431      -0.15590983
H        1.28482149       1.15775388       0.80792636
H       -0.05529715       2.00035567      -0.22288167
11
Frame=3 idx=000905 GeodesicLength=0.11157394913175298 rxn_smarts="[N:1]([c:2]1[n:3][n:4]([H:9])[c:5]([H:10])[c:6]1[H:11])([H:7])[H:8]>>[N:1]([C:2]1=[N:3][N+:4]([H:9])=[C-:5][C:6]1([H:10])[H:11])([H:7])[H:8]"
N       -1.89080455      -0.26557861       0.22535230
C       -0.52678985      -0.20107817       0.03789726
N        0.22437925      -1.26291459      -0.03826280
N        1.49424146      -0.78478011      -0.15990160
C        1.63618902       0.54635838      -0.27901539
C        0.28501727       0.98554572      -0.06852592
H       -2.42329538       0.45523005      -0.23035733
H       -2.27769414      -1.18510307       0.08674504
H        2.24065842      -1.45514753      -0.15510185
H        1.29673475       1.17084530       0.81446660
H       -0.05863624       1.99662263      -0.23329632
11
Frame=4 idx=000905 GeodesicLength=0.14876033978638473 rxn_smarts="[N:1]([c:2]1[n:3][n:4]([H:9])[c:5]([H:10])[c:6]1[H:11])([H:7])[H:8]>>[N:1]([C:2]1=[N:3][N+:4]([H:9])=[C-:5][C:6]1([H:10])[H:11])([H:7])[H:8]"
N       -1.89122249      -0.26730556       0.22445759
C       -0.52695007      -0.20268827       0.04223837
N        0.22204203      -1.26529836      -0.04278478
N        1.49332229      -0.78615733      -0.16460092
C        1.63272771       0.54374947      -0.27876744
C        0.28454515       0.98594022      -0.05765898
H       -2.42250195       0.45661491      -0.22757581
H       -2.27915730      -1.18568932       0.08150909
H        2.24039180      -1.45583935      -0.15397249
H        1.30874345       1.18423779       0.82080793
H       -0.06194061       1.99243580      -0.24365255
11
Frame=5 idx=000905 GeodesicLength=0.18596265127418174 rxn_smarts="[N:1]([c:2]1[n:3][n:4]([H:9])[c:5]([H:10])[c:6]1[H:11])([H:7])[H:8]>>[N:1]([C:2]1=[N:3][N+:4]([H:9])=[C-:5][C:6]1([H:10])[H:11])([H:7])[H:8]"
N       -1.89160824      -0.26903917       0.22361673
C       -0.52710820      -0.20433211       0.04650345
N        0.21963098      -1.26766164      -0.04783175
N        1.49237764      -0.78753301      -0.16942731
C        1.62925617       0.54115207      -0.27834927
C        0.28409048       0.98630744      -0.04676044
H       -2.42171801       0.45805529      -0.22452738
H       -2.28063358      -1.18621780       0.07619600
H        2.24008205      -1.45647615      -0.15240471
H        1.32084330       1.19795778       0.82689481
H       -0.06521259       1.98778730      -0.25391012
11
Frame=6 idx=000905 GeodesicLength=0.22319662937720597 rxn_smarts="[N:1]([c:2]1[n:3][n:4]([H:9])[c:5]([H:10])[c:6]1[H:11])([H:7])[H:8]>>[N:1]([C:2]1=[N:3][N+:4]([H:9])=[C-:5][C:6]1([H:10])[H:11])([H:7])[H:8]"
N       -1.89196604      -0.27078752       0.22283860
C       -0.52726252      -0.20602502       0.05075569
N        0.21715045      -1.27001239      -0.05344781
N        1.49141766      -0.78890570      -0.17436717
C        1.62577862       0.53856414      -0.27777181
C        0.28364439       0.98663201      -0.03585176
H       -2.42093115       0.45957347      -0.22117504
H       -2.28212540      -1.18668836       0.07074760
H        2.23972319      -1.45707260      -0.15036567
H        1.33303301       1.21203859       0.83268727
H       -0.06846221       1.98268337      -0.26404990
11
Frame=7 idx=000905 GeodesicLength=0.26042752265524693 rxn_smarts="[N:1]([c:2]1[n:3][n:4]([H:9])[c:5]([H:10])[c:6]1[H:11])([H:7])[H:8]>>[N:1]([C:2]1=[N:3][N+:4]([H:9])=[C-:5][C:6]1([H:10])[H:11])([H:7])[H:8]"
N       -1.89224562      -0.27262426       0.22220180
C       -0.52737532      -0.20781351       0.05481703
N        0.21459013      -1.27231990      -0.05987703
N        1.49048260      -0.79026433      -0.17925134
C        1.62234953       0.53596574      -0.27690633
C        0.28323641       0.98686651      -0.02505881
H       -2.42018194       0.46127038      -0.21705114
H       -2.28362863      -1.18709430       0.06496205
H        2.23926654      -1.45766159      -0.14775801
H        1.34514815       1.22658972       0.83817353
H       -0.07164186       1.97708553      -0.27425174
11
Frame=8 idx=000905 GeodesicLength=0.2976602802755208 rxn_smarts="[N:1]([c:2]1[n:3][n:4]([H:9])[c:5]([H:10])[c:6]1[H:11])([H:7])[H:8]>>[N:1]([C:2]1=[N:3][N+:4]([H:9])=[C-:5][C:6]1([H:10])[H:11])([H:7])[H:8]"
N       -1.89247248      -0.27447060       0.22161533
C       -0.52748937      -0.20963705       0.05875808
N        0.21197131      -1.27459930      -0.06678752
N        1.48953905      -0.79164794      -0.18417551
C        1.61894228       0.53335260      -0.27582167
C        0.28283732       0.98707125      -0.01436497
H       -2.41942430       0.46301994      -0.21259746
H       -2.28512959      -1.18742898       0.05905586
H        2.23874840      -1.45824228      -0.14477384
H        1.35726449       1.24152408       0.84334068
H       -0.07478712       1.97105829      -0.28424896
11
Frame=9 idx=000905 GeodesicLength=0.33492291804933494 rxn_smarts="[N:1]([c:2]1[n:3][n:4]([H:9])[c:5]([H:10])[c:6]1[H:11])([H:7])[H:8]>>[N:1]([C:2]1=[N:3][N+:4]([H:9])=[C-:5][C:6]1([H:10])[H:11])([H:7])[H:8]"
N       -1.89264843      -0.27636465       0.22111298
C       -0.52758017      -0.21154366       0.06253380
N        0.20929860      -1.27684609      -0.07425926
N        1.48862067      -0.79303683      -0.18902275
C        1.61559898       0.53071584      -0.27443589
C        0.28246191       0.98719850      -0.00381670
H       -2.41869609       0.46487943      -0.20761735
H       -2.28664542      -1.18768975       0.05292048
H        2.23815451      -1.45886467      -0.14145418
H        1.36930290       1.25694232       0.84818521
H       -0.07786746       1.96460956      -0.29414634
11
Frame=10 idx=000905 GeodesicLength=0.3722423450600051 rxn_smarts="[N:1]([c:2]1[n:3][n:4]([H:9])[c:5]([H:10])[c:6]1[H:11])([H:7])[H:8]>>[N:1]([C:2]1=[N:3][N+:4]([H:9])=[C-:5][C:6]1([H:10])[H:11])([H:7])[H:8]"
N       -1.89276184      -0.27833528       0.22071272
C       -0.52764035      -0.21353690       0.06616675
N        0.20656777      -1.27904546      -0.08236881
N        1.48774305      -0.79444806      -0.19375244
C        1.61233113       0.52803684      -0.27274862
C        0.28210657       0.98724183       0.00654057
H       -2.41799065       0.46686303      -0.20197032
H       -2.28817278      -1.18786883       0.04644476
H        2.23745966      -1.45954277      -0.13773911
H        1.38123450       1.27289838       0.85266391
H       -0.08087706       1.95773722      -0.30394940
11
Frame=11 idx=000905 GeodesicLength=0.409504024783117 rxn_smarts="[N:1]([c:2]1[n:3][n:4]([H:9])[c:5]([H:10])[c:6]1[H:11])([H:7])[H:8]>>[N:1]([C:2]1=[N:3][N+:4]([H:9])=[C-:5][C:6]1([H:10])[H:11])([H:7])[H:8]"
N       -1.89281049      -0.28042345       0.22041772
C       -0.52766420      -0.21562426       0.06971425
N        0.20378541      -1.28118385      -0.09116808
N        1.48691190      -0.79589861      -0.19837409
C        1.60913309       0.52529933      -0.27078039
C        0.28175993       0.98721160       0.01674573
H       -2.41729826       0.46897839      -0.19554043
H       -2.28970124      -1.18797516       0.03948059
H        2.23660647      -1.46029396      -0.13351548
H        1.39309498       1.28945121       0.85664263
H       -0.08381759       1.95045876      -0.31362245
11
Frame=12 idx=000905 GeodesicLength=0.44680483909939883 rxn_smarts="[N:1]([c:2]1[n:3][n:4]([H:9])[c:5]([H:10])[c:6]1[H:11])([H:7])[H:8]>>[N:1]([C:2]1=[N:3][N+:4]([H:9])=[C-:5][C:6]1([H:10])[H:11])([H:7])[H:8]"
N       -1.89278913      -0.28261259       0.22022739
C       -0.52765208      -0.21781222       0.07309299
N        0.20095174      -1.28325467      -0.10065194
N        1.48612812      -0.79738795      -0.20289599
C        1.60602982       0.52250101      -0.26849760
C        0.28142848       0.98709436       0.02672749
H       -2.41662869       0.47120896      -0.18833466
H       -2.29123837      -1.18798627       0.03210821
H        2.23563132      -1.46113680      -0.12880482
H        1.40481854       1.30658627       0.86018129
H       -0.08667974       1.94279990      -0.32315236
11
Frame=13 idx=000905 GeodesicLength=0.4841337408384732 rxn_smarts="[N:1]([c:2]1[n:3][n:4]([H:9])[c:5]([H:10])[c:6]1[H:11])([H:7])[H:8]>>[N:1]([C:2]1=[N:3][N+:4]([H:9])=[C-:5][C:6]1([H:10])[H:11])([H:7])[H:8]"
N       -1.89270657      -0.28487475       0.22010406
C       -0.52760614      -0.22009513       0.07631384
N        0.19807140      -1.28524003      -0.11072104
N        1.48538548      -0.79891433      -0.20731420
C        1.60302767       0.51963558      -0.26586640
C        0.28111436       0.98688650       0.03650928
H       -2.41596660       0.47348378      -0.18056238
H       -2.29277842      -1.18790339       0.02447162
H        2.23450463      -1.46209425      -0.12375682
H        1.41640167       1.32430938       0.86328392
H       -0.08944748       1.93480664      -0.33246187
11
Frame=14 idx=000905 GeodesicLength=0.521477878283604 rxn_smarts="[N:1]([c:2]1[n:3][n:4]([H:9])[c:5]([H:10])[c:6]1[H:11])([H:7])[H:8]>>[N:1]([C:2]1=[N:3][N+:4]([H:9])=[C-:5][C:6]1([H:10])[H:11])([H:7])[H:8]"
N       -1.89257436      -0.28718306       0.22001025
C       -0.52752966      -0.22246250       0.07939819
N        0.19514812      -1.28713184      -0.12126638
N        1.48467552      -0.80048510      -0.21163749
C        1.60012985       0.51669998      -0.26285810
C        0.28081797       0.98660236       0.04612685
H       -2.41529871       0.47573563      -0.17244689
H       -2.29431679      -1.18773983       0.01671402
H        2.23320236      -1.46319010      -0.11852043
H        1.42784874       1.34262350       0.86595335
H       -0.09210305       1.92653095      -0.34147337
11
Frame=15 idx=000905 GeodesicLength=0.5588340380916994 rxn_smarts="[N:1]([c:2]1[n:3][n:4]([H:9])[c:5]([H:10])[c:6]1[H:11])([H:7])[H:8]>>[N:1]([C:2]1=[N:3][N+:4]([H:9])=[C-:5][C:6]1([H:10])[H:11])([H:7])[H:8]"
N       -1.89239564      -0.28953326       0.21993355
C       -0.52742444      -0.22491113       0.08233269
N        0.19218815      -1.28891985      -0.13224083
N        1.48399842      -0.80210455      -0.21586643
C        1.59734513       0.51368677      -0.25944268
C        0.28053835       0.98624518       0.05558972
H       -2.41462409       0.47793925      -0.16404395
H       -2.29585206      -1.18750150       0.00887766
H        2.23171258      -1.46444521      -0.11315722
H        1.43914440       1.36153677       0.86818571
H       -0.09463080       1.91800753      -0.35016821
11
Frame=16 idx=000905 GeodesicLength=0.5961985285484658 rxn_smarts="[N:1]([c:2]1[n:3][n:4]([H:9])[c:5]([H:10])[c:6]1[H:11])([H:7])[H:8]>>[N:1]([C:2]1=[N:3][N+:4]([H:9])=[C-:5][C:6]1([H:10])[H:11])([H:7])[H:8]"
N       -1.89217449      -0.29191801       0.21986076
C       -0.52729322      -0.22743745       0.08510891
N        0.18919797      -1.29059441      -0.14358931
N        1.48335334      -0.80377342      -0.22000031
C        1.59468134       0.51058876      -0.25558486
C        0.28027383       0.98581513       0.06491248
H       -2.41394080       0.48007131      -0.15541975
H       -2.29738300      -1.18719395       0.00101021
H        2.23002745      -1.46587898      -0.10774443
H        1.45027130       1.38105489       0.86998182
H       -0.09701371       1.90926612      -0.35853553
