10
Frame=0 idx=005708 GeodesicLength=0.0 rxn_smarts="[O:1]=[C:2]([O:3][C:4]([C:5]#[C:6][H:10])([H:8])[H:9])[H:7]>>[O:1]([C:2](=[O:3])[H:7])[C:5]1=[C:6]([H:10])[C:4]1([H:8])[H:9]"
O       -0.45432668      -1.00963118       0.83123637
C       -1.55907734      -0.58220325       0.34137125
O       -1.65171873       0.35682226      -0.45747621
C        0.22788784       0.83506222      -0.65169368
C        0.70450565      -0.19870685       0.21022189
C        1.97063586      -0.18009598       0.27240838
H       -2.45783712      -1.11434658       0.67941244
H        0.30713716       0.71728073      -1.72533112
H        0.13158810       1.84835385      -0.27980656
H        2.78120527      -0.67253522       0.77965723
10
Frame=1 idx=005708 GeodesicLength=0.0874936873449515 rxn_smarts="[O:1]=[C:2]([O:3][C:4]([C:5]#[C:6][H:10])([H:8])[H:9])[H:7]>>[O:1]([C:2](=[O:3])[H:7])[C:5]1=[C:6]([H:10])[C:4]1([H:8])[H:9]"
O       -0.48675282      -0.96070612       0.90467851
C       -1.57759216      -0.57709147       0.35242392
O       -1.64159093       0.30784538      -0.51015618
C        0.23544414       0.82860527      -0.64303864
C        0.71063860      -0.21647676       0.20719931
C        1.97462141      -0.17849010       0.25932394
H       -2.48058820      -1.11789753       0.66360290
H        0.32806170       0.74726678      -1.71903996
H        0.13077529       1.83329567      -0.24898441
H        2.80698296      -0.66635112       0.73399061
10
Frame=2 idx=005708 GeodesicLength=0.17465890600775275 rxn_smarts="[O:1]=[C:2]([O:3][C:4]([C:5]#[C:6][H:10])([H:8])[H:9])[H:7]>>[O:1]([C:2](=[O:3])[H:7])[C:5]1=[C:6]([H:10])[C:4]1([H:8])[H:9]"
O       -0.52048898      -0.91098704       0.96904221
C       -1.59623163      -0.57066112       0.36224124
O       -1.62835521       0.25825455      -0.55752883
C        0.24330819       0.82211043      -0.63405968
C        0.71612001      -0.23053473       0.20973204
C        1.97765551      -0.17405264       0.25134796
H       -2.50035812      -1.12286601       0.64806628
H        0.34781442       0.77332570      -1.71094513
H        0.12952125       1.81918082      -0.22203469
H        2.83101456      -0.66376996       0.68413860
10
Frame=3 idx=005708 GeodesicLength=0.26173873182887986 rxn_smarts="[O:1]=[C:2]([O:3][C:4]([C:5]#[C:6][H:10])([H:8])[H:9])[H:7]>>[O:1]([C:2](=[O:3])[H:7])[C:5]1=[C:6]([H:10])[C:4]1([H:8])[H:9]"
O       -0.55555700      -0.86222877       1.02519423
C       -1.61511878      -0.56388771       0.37017005
O       -1.61321102       0.21034565      -0.59823694
C        0.25147947       0.81533605      -0.62494150
C        0.72137348      -0.24304190       0.21520888
C        1.98045073      -0.17222397       0.24218183
H       -2.51832697      -1.12844831       0.63284893
H        0.36444680       0.79650267      -1.70191620
H        0.13062872       1.80559925      -0.19724520
H        2.85383456      -0.65795297       0.63673591
10
Frame=4 idx=005708 GeodesicLength=0.34880070021640835 rxn_smarts="[O:1]=[C:2]([O:3][C:4]([C:5]#[C:6][H:10])([H:8])[H:9])[H:7]>>[O:1]([C:2](=[O:3])[H:7])[C:5]1=[C:6]([H:10])[C:4]1([H:8])[H:9]"
O       -0.59241900      -0.81428839       1.07525229
C       -1.63391992      -0.55835848       0.37511925
O       -1.59545691       0.16158005      -0.63521971
C        0.25991990       0.80878203      -0.61502829
C        0.72688009      -0.25173257       0.22616904
C        1.98326698      -0.16715378       0.23806471
H       -2.53569736      -1.13322752       0.61874044
H        0.38054386       0.81621157      -1.69132571
H        0.13131241       1.79345102      -0.17530903
H        2.87556995      -0.65526394       0.58353701
10
Frame=5 idx=005708 GeodesicLength=0.43579111387139946 rxn_smarts="[O:1]=[C:2]([O:3][C:4]([C:5]#[C:6][H:10])([H:8])[H:9])[H:7]>>[O:1]([C:2](=[O:3])[H:7])[C:5]1=[C:6]([H:10])[C:4]1([H:8])[H:9]"
O       -0.63091666      -0.76662935       1.12015106
C       -1.65274593      -0.55326325       0.37821961
O       -1.57610806       0.11367189      -0.66739102
C        0.26861387       0.80189108      -0.60475024
C        0.73263066      -0.25973009       0.23889998
C        1.98618949      -0.16444939       0.23259857
H       -2.55243845      -1.13782880       0.60485969
H        0.39430024       0.83404113      -1.68001601
H        0.13413418       1.78157825      -0.15425421
H        2.89634065      -0.64928146       0.53168257
10
Frame=6 idx=005708 GeodesicLength=0.5227119425974759 rxn_smarts="[O:1]=[C:2]([O:3][C:4]([C:5]#[C:6][H:10])([H:8])[H:9])[H:7]>>[O:1]([C:2](=[O:3])[H:7])[C:5]1=[C:6]([H:10])[C:4]1([H:8])[H:9]"
O       -0.67099586      -0.71972777       1.16037484
C       -1.67136719      -0.54899100       0.37938879
O       -1.55469121       0.06543895      -0.69589431
C        0.27757513       0.79489353      -0.59391181
C        0.73901744      -0.26612365       0.25418321
C        1.98949319      -0.16145503       0.22812647
H       -2.56912256      -1.14144810       0.59160339
H        0.40665268       0.84988727      -1.66785231
H        0.13774236       1.77029228      -0.13431913
H        2.91569602      -0.64276647       0.47830084
10
Frame=7 idx=005708 GeodesicLength=0.6097164605371712 rxn_smarts="[O:1]=[C:2]([O:3][C:4]([C:5]#[C:6][H:10])([H:8])[H:9])[H:7]>>[O:1]([C:2](=[O:3])[H:7])[C:5]1=[C:6]([H:10])[C:4]1([H:8])[H:9]"
O       -0.71266245      -0.67263754       1.19673904
C       -1.68985173      -0.54525896       0.37912045
O       -1.53175468       0.01727701      -0.72062554
C        0.28674001       0.78771789      -0.58266098
C        0.74599665      -0.27184019       0.27085075
C        1.99312930      -0.15991549       0.22260031
H       -2.58558003      -1.14482069       0.57843573
H        0.41707003       0.86443944      -1.65514433
H        0.14296231       1.75934688      -0.11484425
H        2.93395058      -0.63430836       0.42552882
10
Frame=8 idx=005708 GeodesicLength=0.6967799360901558 rxn_smarts="[O:1]=[C:2]([O:3][C:4]([C:5]#[C:6][H:10])([H:8])[H:9])[H:7]>>[O:1]([C:2](=[O:3])[H:7])[C:5]1=[C:6]([H:10])[C:4]1([H:8])[H:9]"
O       -0.75627061      -0.62438088       1.22991777
C       -1.70816261      -0.54200353       0.37751480
O       -1.50706474      -0.03141716      -0.74202395
C        0.29612861       0.78047858      -0.57076134
C        0.75356949      -0.27645881       0.28950898
C        1.99699887      -0.15917680       0.21713671
H       -2.60154707      -1.14851693       0.56485322
H        0.42607792       0.87761201      -1.64168826
H        0.14943784       1.74896993      -0.09582017
H        2.95083230      -0.62510640       0.37136222
10
Frame=9 idx=005708 GeodesicLength=0.7836987476085061 rxn_smarts="[O:1]=[C:2]([O:3][C:4]([C:5]#[C:6][H:10])([H:8])[H:9])[H:7]>>[O:1]([C:2](=[O:3])[H:7])[C:5]1=[C:6]([H:10])[C:4]1([H:8])[H:9]"
O       -0.80129527      -0.57608509       1.25934455
C       -1.72606594      -0.53937327       0.37467805
O       -1.48089019      -0.07996249      -0.75970119
C        0.30569896       0.77315923      -0.55842540
C        0.76202228      -0.28021958       0.30929136
C        2.00126670      -0.15909117       0.21093701
H       -2.61720422      -1.15194486       0.55127990
H        0.43323306       0.88944919      -1.62776403
H        0.15719935       1.73900975      -0.07719615
H        2.96603528      -0.61494170       0.31755590
10
Frame=10 idx=005708 GeodesicLength=0.870772187161038 rxn_smarts="[O:1]=[C:2]([O:3][C:4]([C:5]#[C:6][H:10])([H:8])[H:9])[H:7]>>[O:1]([C:2](=[O:3])[H:7])[C:5]1=[C:6]([H:10])[C:4]1([H:8])[H:9]"
O       -0.84812777      -0.52616788       1.28555961
C       -1.74364286      -0.53720929       0.37077229
O       -1.45320707      -0.12905976      -0.77402630
C        0.31537739       0.76588979      -0.54553524
C        0.77124141      -0.28321426       0.33017997
C        2.00572028      -0.16051440       0.20326547
H       -2.63217972      -1.15590912       0.53739974
H        0.43851076       0.90059170      -1.61327299
H        0.16646532       1.72951899      -0.05849878
H        2.97984228      -0.60392578       0.26415624
10
Frame=11 idx=005708 GeodesicLength=0.9579583128415767 rxn_smarts="[O:1]=[C:2]([O:3][C:4]([C:5]#[C:6][H:10])([H:8])[H:9])[H:7]>>[O:1]([C:2](=[O:3])[H:7])[C:5]1=[C:6]([H:10])[C:4]1([H:8])[H:9]"
O       -0.89698871      -0.47427498       1.30851231
C       -1.76079673      -0.53567028       0.36579498
O       -1.42399740      -0.17853413      -0.78490517
C        0.32519922       0.75880375      -0.53197631
C        0.78127532      -0.28510409       0.35252141
C        2.01026620      -0.16304500       0.19479727
H       -2.64615424      -1.16095256       0.52303809
H        0.44211155       0.91084801      -1.59815685
H        0.17719764       1.72076721      -0.03983621
H        2.99188716      -0.59283794       0.21021048
10
Frame=12 idx=005708 GeodesicLength=1.0451563531655517 rxn_smarts="[O:1]=[C:2]([O:3][C:4]([C:5]#[C:6][H:10])([H:8])[H:9])[H:7]>>[O:1]([C:2](=[O:3])[H:7])[C:5]1=[C:6]([H:10])[C:4]1([H:8])[H:9]"
O       -0.94744450      -0.42130203       1.32766459
C       -1.77744730      -0.53464693       0.35989535
O       -1.39349373      -0.22807456      -0.79215576
C        0.33509870       0.75185862      -0.51793991
C        0.79234874      -0.28628540       0.37545151
C        2.01494183      -0.16664185       0.18489270
H       -2.65935773      -1.16642819       0.50862277
H        0.44363641       0.92039289      -1.58259668
H        0.18932171       1.71250603      -0.02104146
H        3.00239587      -0.58137857       0.15720689
10
Frame=13 idx=005708 GeodesicLength=1.1324891252938318 rxn_smarts="[O:1]=[C:2]([O:3][C:4]([C:5]#[C:6][H:10])([H:8])[H:9])[H:7]>>[O:1]([C:2](=[O:3])[H:7])[C:5]1=[C:6]([H:10])[C:4]1([H:8])[H:9]"
O       -0.99978125      -0.36662797       1.34295152
C       -1.79361185      -0.53416800       0.35310026
O       -1.36172127      -0.27775662      -0.79579086
C        0.34509720       0.74514529      -0.50331136
C        0.80447540      -0.28666829       0.39913509
C        2.01960329      -0.17138962       0.17373786
H       -2.67154558      -1.17284476       0.49405466
H        0.44319626       0.92932510      -1.56649293
H        0.20292646       1.70484782      -0.00197944
H        3.01136134      -0.56986295       0.10459521
10
Frame=14 idx=005708 GeodesicLength=1.2199943118208143 rxn_smarts="[O:1]=[C:2]([O:3][C:4]([C:5]#[C:6][H:10])([H:8])[H:9])[H:7]>>[O:1]([C:2](=[O:3])[H:7])[C:5]1=[C:6]([H:10])[C:4]1([H:8])[H:9]"
O       -1.05447811      -0.30920942       1.35401901
C       -1.80916828      -0.53439496       0.34535242
O       -1.32855757      -0.32753372      -0.79570316
C        0.35519808       0.73883768      -0.48786158
C        0.81762076      -0.28587691       0.42397122
C        2.02398459      -0.17747308       0.16148800
H       -2.68200553      -1.18111063       0.47924698
H        0.44092339       0.93772496      -1.54955770
H        0.21809583       1.69800765       0.01745230
H        3.01838685      -0.55897157       0.05159251
10
Frame=15 idx=005708 GeodesicLength=1.3076795678789523 rxn_smarts="[O:1]=[C:2]([O:3][C:4]([C:5]#[C:6][H:10])([H:8])[H:9])[H:7]>>[O:1]([C:2](=[O:3])[H:7])[C:5]1=[C:6]([H:10])[C:4]1([H:8])[H:9]"
O       -1.11131632      -0.24963474       1.36033029
C       -1.82414887      -0.53526183       0.33678906
O       -1.29443757      -0.37686117      -0.79179778
C        0.36541981       0.73286488      -0.47175738
C        0.83192139      -0.28446789       0.44922174
C        2.02805413      -0.18489729       0.14798316
H       -2.69088845      -1.19094019       0.46468925
H        0.43665338       0.94567849      -1.53195407
H        0.23491126       1.69177470       0.03739900
H        3.02383124      -0.54825497      -0.00090327
10
Frame=16 idx=005708 GeodesicLength=1.3954108126115758 rxn_smarts="[O:1]=[C:2]([O:3][C:4]([C:5]#[C:6][H:10])([H:8])[H:9])[H:7]>>[O:1]([C:2](=[O:3])[H:7])[C:5]1=[C:6]([H:10])[C:4]1([H:8])[H:9]"
O       -1.16995549      -0.18868366       1.36135246
C       -1.83870874      -0.53645746       0.32755988
O       -1.25991595      -0.42532105      -0.78399906
C        0.37578082       0.72682683      -0.45511442
C        0.84753392      -0.28332657       0.47403776
C        2.03187827      -0.19367793       0.13315047
H       -2.69873313      -1.20140292       0.45077457
H        0.43031525       0.95299249      -1.51364611
H        0.25330555       1.68546577       0.05808448
H        3.02849951      -0.53641550      -0.05220003
