12
Frame=0 idx=001413 GeodesicLength=0.0 rxn_smarts="[C:1]([C:2](=[O:3])[C:4]([C:5](=[O:6])[H:12])([H:10])[H:11])([H:7])([H:8])[H:9]>>[C:1](=[C:2]=[O:3])([H:8])[H:9].[C:4](=[C:5]([O:6][H:7])[H:12])([H:10])[H:11]"
C        1.40256274       0.30022433      -0.63095627
C        0.60936271       0.97556891       0.27195483
O        0.31625279       2.05747254       0.64669354
C       -0.54249408      -0.36148152       0.99388649
C       -1.39886838      -0.51617482      -0.08735824
O       -1.00622677      -0.78551750      -1.28354025
H       -0.00191437      -0.50405782      -1.31389922
H        1.75023543      -0.69272772      -0.38404752
H        2.04837289       0.92168135      -1.23882812
H        0.28252176      -1.05423292       1.10784796
H       -0.99567042      -0.03617831       1.92115042
H       -2.46413427      -0.30457649      -0.00290357
12
Frame=1 idx=001413 GeodesicLength=0.10857078526311915 rxn_smarts="[C:1]([C:2](=[O:3])[C:4]([C:5](=[O:6])[H:12])([H:10])[H:11])([H:7])([H:8])[H:9]>>[C:1](=[C:2]=[O:3])([H:8])[H:9].[C:4](=[C:5]([O:6][H:7])[H:12])([H:10])[H:11]"
C        1.40336287       0.30367654      -0.64289005
C        0.62317224       0.97600288       0.27674605
O        0.34271355       2.05773592       0.66181818
C       -0.55614412      -0.36395641       0.99936086
C       -1.40956767      -0.53294810      -0.08462064
O       -1.00708779      -0.80474970      -1.27643203
H        0.01433600      -0.50082983      -1.31348426
H        1.77514936      -0.67894972      -0.38809150
H        2.03136575       0.92924227      -1.26517008
H        0.26954032      -1.05468796       1.12172009
H       -1.01780825      -0.04264318       1.92417561
H       -2.46903226      -0.28789272      -0.01313223
12
Frame=2 idx=001413 GeodesicLength=0.21693244655499255 rxn_smarts="[C:1]([C:2](=[O:3])[C:4]([C:5](=[O:6])[H:12])([H:10])[H:11])([H:7])([H:8])[H:9]>>[C:1](=[C:2]=[O:3])([H:8])[H:9].[C:4](=[C:5]([O:6][H:7])[H:12])([H:10])[H:11]"
C        1.40452605       0.30709945      -0.65470926
C        0.63789751       0.97625165       0.28173615
O        0.37024712       2.05765350       0.67700955
C       -0.57027322      -0.36582403       1.00470719
C       -1.42074157      -0.54897403      -0.08188460
O       -1.00841064      -0.82359982      -1.26915513
H        0.03082625      -0.49761580      -1.31292338
H        1.80047364      -0.66477591      -0.39334065
H        2.01419229       0.93684785      -1.29100636
H        0.25566611      -1.05487507       1.13573787
H       -1.04033542      -0.04840402       1.92699402
H       -2.47406812      -0.27378376      -0.02316541
12
Frame=3 idx=001413 GeodesicLength=0.32516009793953254 rxn_smarts="[C:1]([C:2](=[O:3])[C:4]([C:5](=[O:6])[H:12])([H:10])[H:11])([H:7])([H:8])[H:9]>>[C:1](=[C:2]=[O:3])([H:8])[H:9].[C:4](=[C:5]([O:6][H:7])[H:12])([H:10])[H:11]"
C        1.40608453       0.31051612      -0.66640601
C        0.65355407       0.97625964       0.28694582
O        0.39878366       2.05716448       0.69224881
C       -0.58487372      -0.36709689       1.00992182
C       -1.43236966      -0.56431322      -0.07914902
O       -1.01021698      -0.84216389      -1.26170198
H        0.04765291      -0.49447262      -1.31222840
H        1.82628637      -0.65019348      -0.39984915
H        1.99682133       0.94458377      -1.31631615
H        0.24091848      -1.05478064       1.14991048
H       -1.06325700      -0.05347671       1.92960008
H       -2.47938398      -0.26202655      -0.03297629
12
Frame=4 idx=001413 GeodesicLength=0.43332024840665917 rxn_smarts="[C:1]([C:2](=[O:3])[C:4]([C:5](=[O:6])[H:12])([H:10])[H:11])([H:7])([H:8])[H:9]>>[C:1](=[C:2]=[O:3])([H:8])[H:9].[C:4](=[C:5]([O:6][H:7])[H:12])([H:10])[H:11]"
C        1.40804521       0.31396268      -0.67798652
C        0.67012181       0.97596015       0.29238727
O        0.42822050       2.05618734       0.70754556
C       -0.59993205      -0.36782096       1.01500974
C       -1.44442952      -0.57909067      -0.07639849
O       -1.01251682      -0.86062813      -1.25402717
H        0.06491699      -0.49152100      -1.31138916
H        1.85269274      -0.63513782      -0.40767257
H        1.97912681       0.95254797      -1.34109506
H        0.22534080      -1.05440031       1.16426070
H       -1.08657864      -0.05792228       1.93199594
H       -2.48500783      -0.25213695      -0.04263025
12
Frame=5 idx=001413 GeodesicLength=0.5414392554035767 rxn_smarts="[C:1]([C:2](=[O:3])[C:4]([C:5](=[O:6])[H:12])([H:10])[H:11])([H:7])([H:8])[H:9]>>[C:1](=[C:2]=[O:3])([H:8])[H:9].[C:4](=[C:5]([O:6][H:7])[H:12])([H:10])[H:11]"
C        1.41042120       0.31745988      -0.68944890
C        0.68760178       0.97530314       0.29806928
O        0.45849876       2.05467164       0.72289435
C       -0.61544699      -0.36801446       1.01997260
C       -1.45692570      -0.59336842      -0.07361396
O       -1.01532903      -0.87910717      -1.24611517
H        0.08269604      -0.48882520      -1.31041067
H        1.87976514      -0.61956687      -0.41685725
H        1.96106906       0.96081179      -1.36532676
H        0.20894809      -1.05372354       1.17879517
H       -1.11030284      -0.06176559       1.93418455
H       -2.49099552      -0.24387520      -0.05214324
12
Frame=6 idx=001413 GeodesicLength=0.6495942092741942 rxn_smarts="[C:1]([C:2](=[O:3])[C:4]([C:5](=[O:6])[H:12])([H:10])[H:11])([H:7])([H:8])[H:9]>>[C:1](=[C:2]=[O:3])([H:8])[H:9].[C:4](=[C:5]([O:6][H:7])[H:12])([H:10])[H:11]"
C        1.41321652       0.32103630      -0.70080375
C        0.70598638       0.97421763       0.30400279
O        0.48955768       2.05253436       0.73832812
C       -0.63141598      -0.36770353       1.02480820
C       -1.46985400      -0.60722863      -0.07078355
O       -1.01868104      -0.89778078      -1.23790746
H        0.10109441      -0.48651148      -1.30927712
H        1.90760116      -0.60338756      -0.42746842
H        1.94250518       0.96945772      -1.38899515
H        0.19176116      -1.05273714       1.19352925
H       -1.13443759      -0.06503969       1.93616281
H       -2.49733388      -0.23685720      -0.06159573
12
Frame=7 idx=001413 GeodesicLength=0.7578015956022943 rxn_smarts="[C:1]([C:2](=[O:3])[C:4]([C:5](=[O:6])[H:12])([H:10])[H:11])([H:7])([H:8])[H:9]>>[C:1](=[C:2]=[O:3])([H:8])[H:9].[C:4](=[C:5]([O:6][H:7])[H:12])([H:10])[H:11]"
C        1.41644546       0.32470830      -0.71205194
C        0.72528154       0.97265114       0.31019340
O        0.52137353       2.04972117       0.75386808
C       -0.64784445      -0.36688977       1.02950711
C       -1.48322463      -0.62070064      -0.06790210
O       -1.02260898      -0.91674968      -1.22936789
H        0.12019742      -0.48466068      -1.30798413
H        1.93627253      -0.58653164      -0.43955743
H        1.92336689       0.97853750      -1.41207572
H        0.17378247      -1.05141703       1.20845936
H       -1.15899153      -0.06775226       1.93792287
H       -2.50405024      -0.23091642      -0.07101161
12
Frame=8 idx=001413 GeodesicLength=0.8660886697248179 rxn_smarts="[C:1]([C:2](=[O:3])[C:4]([C:5](=[O:6])[H:12])([H:10])[H:11])([H:7])([H:8])[H:9]>>[C:1](=[C:2]=[O:3])([H:8])[H:9].[C:4](=[C:5]([O:6][H:7])[H:12])([H:10])[H:11]"
C        1.42011161       0.32850114      -0.72321092
C        0.74549011       0.97053188       0.31665419
O        0.55392478       2.04615024       0.76957247
C       -0.66474005      -0.36558247       1.03405742
C       -1.49704505      -0.63383153      -0.06497487
O       -1.02714777      -0.93616383      -1.22041602
H        0.14011466      -0.48342074      -1.30649191
H        1.96587215      -0.56888709      -0.45322791
H        1.90350604       0.98811926      -1.43453636
H        0.15501150      -1.04973248       1.22359896
H       -1.18398103      -0.06990898       1.93945243
H       -2.51111694      -0.22577540      -0.08047747
12
Frame=9 idx=001413 GeodesicLength=0.974539336184983 rxn_smarts="[C:1]([C:2](=[O:3])[C:4]([C:5](=[O:6])[H:12])([H:10])[H:11])([H:7])([H:8])[H:9]>>[C:1](=[C:2]=[O:3])([H:8])[H:9].[C:4](=[C:5]([O:6][H:7])[H:12])([H:10])[H:11]"
C        1.42419595       0.33244104      -0.73428271
C        0.76658122       0.96769115       0.32339737
O        0.58731215       2.04160292       0.78561869
C       -0.68212909      -0.36376486       1.03845415
C       -1.51140391      -0.64664803      -0.06193757
O       -1.03227836      -0.95640437      -1.21102693
H        0.16102746      -0.48302181      -1.30475075
H        1.99647874      -0.55003248      -0.46860024
H        1.88264458       0.99824952      -1.45641367
H        0.13541485      -1.04766216       1.23896270
H       -1.20942012      -0.07147679       1.94074251
H       -2.51842347      -0.22097414      -0.09016356
12
Frame=10 idx=001413 GeodesicLength=1.0830475330707554 rxn_smarts="[C:1]([C:2](=[O:3])[C:4]([C:5](=[O:6])[H:12])([H:10])[H:11])([H:7])([H:8])[H:9]>>[C:1](=[C:2]=[O:3])([H:8])[H:9].[C:4](=[C:5]([O:6][H:7])[H:12])([H:10])[H:11]"
C        1.42871125       0.33654034      -0.74528565
C        0.78862176       0.96413710       0.33043540
O        0.62146102       2.03610374       0.80194868
C       -0.70000296      -0.36145022       1.04268125
C       -1.52625165      -0.65919055      -0.05882788
O       -1.03807331      -0.97736698      -1.20110585
H        0.18299527      -0.48352053      -1.30273139
H        2.02813778      -0.53006287      -0.48574753
H        1.86070013       1.00895812      -1.47758412
H        0.11501367      -1.04517023       1.25454907
H       -1.23531731      -0.07245496       1.94177224
H       -2.52599563      -0.21652295      -0.10010422
12
Frame=11 idx=001413 GeodesicLength=1.1915904191531097 rxn_smarts="[C:1]([C:2](=[O:3])[C:4]([C:5](=[O:6])[H:12])([H:10])[H:11])([H:7])([H:8])[H:9]>>[C:1](=[C:2]=[O:3])([H:8])[H:9].[C:4](=[C:5]([O:6][H:7])[H:12])([H:10])[H:11]"
C        1.43365820       0.34080941      -0.75622080
C        0.81164105       0.95979244       0.33777637
O        0.65643189       2.02955469       0.81863653
C       -0.71837618      -0.35861347       1.04671980
C       -1.54161601      -0.67145643      -0.05563221
O       -1.04457497      -0.99915925      -1.19062556
H        0.20613267      -0.48502625      -1.30040808
H        2.06089218      -0.50881468      -0.50472511
H        1.83753600       1.02027769      -1.49802829
H        0.09378326      -1.04222020       1.27034854
H       -1.26168479      -0.07279240       1.94251445
H       -2.53382331      -0.21235154      -0.11035565
12
Frame=12 idx=001413 GeodesicLength=1.3001665970553398 rxn_smarts="[C:1]([C:2](=[O:3])[C:4]([C:5](=[O:6])[H:12])([H:10])[H:11])([H:7])([H:8])[H:9]>>[C:1](=[C:2]=[O:3])([H:8])[H:9].[C:4](=[C:5]([O:6][H:7])[H:12])([H:10])[H:11]"
C        1.43902180       0.34527103      -0.76710516
C        0.83567443       0.95454839       0.34544259
O        0.69229783       2.02180370       0.83579836
C       -0.73726576      -0.35523678       1.05055156
C       -1.55752321      -0.68347304      -0.05234125
O       -1.05181002      -1.02195259      -1.17949872
H        0.23060810      -0.48774325      -1.29770564
H        2.09480282      -0.48603685      -0.52567419
H        1.81283490       1.03223532      -1.51769250
H        0.07170166      -1.03876854       1.28637968
H       -1.28854876      -0.07243141       1.94293407
H       -2.54179379      -0.20821598      -0.12108881
12
Frame=13 idx=001413 GeodesicLength=1.4086840461928534 rxn_smarts="[C:1]([C:2](=[O:3])[C:4]([C:5](=[O:6])[H:12])([H:10])[H:11])([H:7])([H:8])[H:9]>>[C:1](=[C:2]=[O:3])([H:8])[H:9].[C:4](=[C:5]([O:6][H:7])[H:12])([H:10])[H:11]"
C        1.44480004       0.34993210      -0.77794191
C        0.86076300       0.94831760       0.35343926
O        0.72913789       2.01274311       0.85351811
C       -0.75668669      -0.35128496       1.05414031
C       -1.57400262      -0.69522445      -0.04895831
O       -1.05981809      -1.04582232      -1.16769085
H        0.25655346      -0.49181044      -1.29456603
H        2.12988938      -0.46152142      -0.54868738
H        1.78644652       1.04483178      -1.53651543
H        0.04874274      -1.03476101       1.30262539
H       -1.31591880      -0.07129778       1.94298840
H       -2.54990682      -0.20410223      -0.13235155
12
Frame=14 idx=001413 GeodesicLength=1.5171228836324 rxn_smarts="[C:1]([C:2](=[O:3])[C:4]([C:5](=[O:6])[H:12])([H:10])[H:11])([H:7])([H:8])[H:9]>>[C:1](=[C:2]=[O:3])([H:8])[H:9].[C:4](=[C:5]([O:6][H:7])[H:12])([H:10])[H:11]"
C        1.45096684       0.35481391      -0.78875232
C        0.88698486       0.94094090       0.36180774
O        0.76709316       2.00214387       0.87195872
C       -0.77665784      -0.34670736       1.05744667
C       -1.59107465      -0.70670575      -0.04549842
O       -1.06862276      -1.07094969      -1.15508682
H        0.28419385      -0.49749107      -1.29087465
H        2.16619054      -0.43492444      -0.57397792
H        1.75793664       1.05808973      -1.55439131
H        0.02485438      -1.03012221       1.31911047
H       -1.34382856      -0.06925277       1.94260442
H       -2.55803647      -0.19983511      -0.14434659
12
Frame=15 idx=001413 GeodesicLength=1.6254057361843777 rxn_smarts="[C:1]([C:2](=[O:3])[C:4]([C:5](=[O:6])[H:12])([H:10])[H:11])([H:7])([H:8])[H:9]>>[C:1](=[C:2]=[O:3])([H:8])[H:9].[C:4](=[C:5]([O:6][H:7])[H:12])([H:10])[H:11]"
C        1.45750490       0.35992306      -0.79953467
C        0.91442300       0.93226835       0.37057671
O        0.80629118       1.98981000       0.89124485
C       -0.79719314      -0.34145455       1.06042178
C       -1.60877095      -0.71789342      -0.04197468
O       -1.07824421      -1.09746549      -1.14160642
H        0.31374698      -0.50501594      -1.28651902
H        2.20370170      -0.40587943      -0.60174046
H        1.72694151       1.07197243      -1.57118786
H       -0.00000582      -1.02478249       1.33583335
H       -1.37229104      -0.06616421       1.94170833
H       -2.56610412      -0.19531831      -0.15722190
12
Frame=16 idx=001413 GeodesicLength=1.7334940412885345 rxn_smarts="[C:1]([C:2](=[O:3])[C:4]([C:5](=[O:6])[H:12])([H:10])[H:11])([H:7])([H:8])[H:9]>>[C:1](=[C:2]=[O:3])([H:8])[H:9].[C:4](=[C:5]([O:6][H:7])[H:12])([H:10])[H:11]"
C        1.46436561       0.36527217      -0.81030209
C        0.94320445       0.92208683       0.37980270
O        0.84693739       1.97545015       0.91156413
C       -0.81831734      -0.33545107       1.06300858
C       -1.62712638      -0.72875729      -0.03840750
O       -1.08867578      -1.12557241      -1.12712405
H        0.34550694      -0.51470079      -1.28135462
H        2.24241969      -0.37389291      -0.63228184
H        1.69293132       1.08645081      -1.58671637
H       -0.02591135      -1.01864903       1.35282760
H       -1.40134711      -0.06182261       1.94019009
H       -2.57398744      -0.19041385      -0.17120664
