14
Frame=0 idx=000643 GeodesicLength=0.0 rxn_smarts="[O:1]([C@@:2]1([H:8])[C:3]([H:9])([H:10])[C@@:4]2([H:11])[C:5]([H:12])([H:13])[C@@:6]12[H:14])[H:7]>>[O:1]([C@@:2]1([H:8])[C:3]([H:9])([H:10])[C:4][C@:6]1([C:5]([H:11])([H:12])[H:13])[H:14])[H:7]"
O       -0.83318307       1.91581408      -0.02323413
C       -0.75116011       0.65269896       0.58036954
C       -1.18041153      -0.63119151      -0.16350192
C        0.05133042      -1.38331105       0.41361640
C        1.35691680      -0.28746794      -0.47588189
C        0.59133446      -0.03211721       0.82186637
H       -0.42572819       1.88092376      -0.89045282
H       -1.29235726       0.74815630       1.52154587
H       -1.22827399      -0.55714377      -1.25128530
H       -2.10982619      -1.08972998       0.17660224
H        1.06560327      -1.35498615      -0.80370934
H        1.11492652       0.37456171      -1.30409132
H        2.42110766      -0.38565360      -0.29010669
H        1.21972125       0.14944643       1.68826299
14
Frame=1 idx=000643 GeodesicLength=0.058213212098503685 rxn_smarts="[O:1]([C@@:2]1([H:8])[C:3]([H:9])([H:10])[C@@:4]2([H:11])[C:5]([H:12])([H:13])[C@@:6]12[H:14])[H:7]>>[O:1]([C@@:2]1([H:8])[C:3]([H:9])([H:10])[C:4][C@:6]1([C:5]([H:11])([H:12])[H:13])[H:14])[H:7]"
O       -0.83728509       1.91388620      -0.02749086
C       -0.75263698       0.65311398       0.58035154
C       -1.18520632      -0.63265022      -0.15837615
C        0.05337924      -1.37837912       0.40371446
C        1.36034007      -0.28368675      -0.47557968
C        0.59192529      -0.02883529       0.81908605
H       -0.42890426       1.87676161      -0.89420020
H       -1.29068620       0.75135174       1.52305951
H       -1.23445964      -0.55848170      -1.24642269
H       -2.11288871      -1.09272930       0.18405010
H        1.06258607      -1.36374300      -0.81320282
H        1.13478350       0.38933178      -1.29949413
H        2.42282359      -0.39268790      -0.28514599
H        1.21622944       0.14674796       1.68965087
14
Frame=2 idx=000643 GeodesicLength=0.11641948122627455 rxn_smarts="[O:1]([C@@:2]1([H:8])[C:3]([H:9])([H:10])[C@@:4]2([H:11])[C:5]([H:12])([H:13])[C@@:6]12[H:14])[H:7]>>[O:1]([C@@:2]1([H:8])[C:3]([H:9])([H:10])[C:4][C@:6]1([C:5]([H:11])([H:12])[H:13])[H:14])[H:7]"
O       -0.84139849       1.91190101      -0.03189306
C       -0.75411909       0.65354002       0.58028413
C       -1.18999766      -0.63415811      -0.15315723
C        0.05543208      -1.37334515       0.39361680
C        1.36381137      -0.27971106      -0.47528431
C        0.59250031      -0.02554095       0.81628816
H       -0.43205845       1.87247669      -0.89806864
H       -1.28900699       0.75463766       1.52450074
H       -1.24083322      -0.55986218      -1.24146040
H       -2.11585616      -1.09583554       0.19172775
H        1.05939308      -1.37259646      -0.82290460
H        1.15504714       0.40437982      -1.29442969
H        2.42443161      -0.39981577      -0.28023773
H        1.21265447       0.14393002       1.69101807
14
Frame=3 idx=000643 GeodesicLength=0.17460524626859564 rxn_smarts="[O:1]([C@@:2]1([H:8])[C:3]([H:9])([H:10])[C@@:4]2([H:11])[C:5]([H:12])([H:13])[C@@:6]12[H:14])[H:7]>>[O:1]([C@@:2]1([H:8])[C:3]([H:9])([H:10])[C:4][C@:6]1([C:5]([H:11])([H:12])[H:13])[H:14])[H:7]"
O       -0.84552031       1.90985800      -0.03643981
C       -0.75560765       0.65397707       0.58016619
C       -1.19478115      -0.63571536      -0.14784635
C        0.05748519      -1.36820354       0.38332106
C        1.36732725      -0.27553760      -0.47499768
C        0.59305878      -0.02223440       0.81347322
H       -0.43517361       1.86807288      -0.90204979
H       -1.28732408       0.75801322       1.52586579
H       -1.24739419      -0.56128371      -1.23639872
H       -2.11872329      -1.09904937       0.19963043
H        1.05602691      -1.38156518      -0.83280154
H        1.17570304       0.41968704      -1.28888143
H        2.42592469      -0.40701180      -0.27540037
H        1.20899843       0.14099274       1.69235901
14
Frame=4 idx=000643 GeodesicLength=0.23275478864435106 rxn_smarts="[O:1]([C@@:2]1([H:8])[C:3]([H:9])([H:10])[C@@:4]2([H:11])[C:5]([H:12])([H:13])[C@@:6]12[H:14])[H:7]>>[O:1]([C@@:2]1([H:8])[C:3]([H:9])([H:10])[C:4][C@:6]1([C:5]([H:11])([H:12])[H:13])[H:14])[H:7]"
O       -0.84964764       1.90775864      -0.04112848
C       -0.75710385       0.65442534       0.57999729
C       -1.19955263      -0.63732247      -0.14244593
C        0.05953457      -1.36294835       0.37282663
C        1.37088413      -0.27116380      -0.47472187
C        0.59360069      -0.01891532       0.81064168
H       -0.43823337       1.86355739      -0.90613421
H       -1.28564139       0.76147623       1.52715242
H       -1.25414126      -0.56274363      -1.23123993
H       -2.12148668      -1.10237263       0.20775014
H        1.05249106      -1.39067058      -0.84287828
H        1.19673423       0.43522882      -1.28283398
H        2.42729700      -0.41424783      -0.27065275
H        1.20526515       0.13793818       1.69366728
14
Frame=5 idx=000643 GeodesicLength=0.2908579921664469 rxn_smarts="[O:1]([C@@:2]1([H:8])[C:3]([H:9])([H:10])[C@@:4]2([H:11])[C:5]([H:12])([H:13])[C@@:6]12[H:14])[H:7]>>[O:1]([C@@:2]1([H:8])[C:3]([H:9])([H:10])[C:4][C@:6]1([C:5]([H:11])([H:12])[H:13])[H:14])[H:7]"
O       -0.85377929       1.90561124      -0.04595474
C       -0.75860831       0.65488703       0.57977849
C       -1.20430854      -0.63898251      -0.13696071
C        0.06157677      -1.35757408       0.36213505
C        1.37448002      -0.26658800      -0.47445737
C        0.59412823      -0.01558268       0.80779513
H       -0.44122506       1.85894446      -0.91031292
H       -1.28396026       0.76502551       1.52836200
H       -1.26107446      -0.56423860      -1.22598916
H       -2.12414449      -1.10581372       0.21607364
H        1.04878534      -1.39993642      -0.85312226
H        1.21812450       0.45096940      -1.27627391
H        2.42854406      -0.42149209      -0.26601084
H        1.20146149       0.13477046       1.69493759
14
Frame=6 idx=000643 GeodesicLength=0.34897157850573013 rxn_smarts="[O:1]([C@@:2]1([H:8])[C:3]([H:9])([H:10])[C@@:4]2([H:11])[C:5]([H:12])([H:13])[C@@:6]12[H:14])[H:7]>>[O:1]([C@@:2]1([H:8])[C:3]([H:9])([H:10])[C:4][C@:6]1([C:5]([H:11])([H:12])[H:13])[H:14])[H:7]"
O       -0.85791496       1.90339916      -0.05090359
C       -0.76012506       0.65535691       0.57950811
C       -1.20902797      -0.64067863      -0.13139447
C        0.06360502      -1.35207099       0.35123612
C        1.37810184      -0.26179031      -0.47421574
C        0.59463492      -0.01223213       0.80492868
H       -0.44413244       1.85423571      -0.91456131
H       -1.28229818       0.76864594       1.52948256
H       -1.26816705      -0.56576216      -1.22063930
H       -2.12666736      -1.10934082       0.22458878
H        1.04493874      -1.40943201      -0.86346519
H        1.23981798       0.46693059      -1.26922422
H        2.42965146      -0.42875358      -0.26150267
H        1.19758306       0.13149233       1.69616225
14
Frame=7 idx=000643 GeodesicLength=0.4070742884924203 rxn_smarts="[O:1]([C@@:2]1([H:8])[C:3]([H:9])([H:10])[C@@:4]2([H:11])[C:5]([H:12])([H:13])[C@@:6]12[H:14])[H:7]>>[O:1]([C@@:2]1([H:8])[C:3]([H:9])([H:10])[C:4][C@:6]1([C:5]([H:11])([H:12])[H:13])[H:14])[H:7]"
O       -0.86205401       1.90114502      -0.05598160
C       -0.76165195       0.65584167       0.57918755
C       -1.21371853      -0.64242469      -0.12575246
C        0.06561944      -1.34643864       0.34013333
C        1.38175891      -0.25677294      -0.47398996
C        0.59513007      -0.00886387       0.80204928
H       -0.44695489       1.84945134      -0.91888821
H       -1.28064592       0.77234396       1.53052276
H       -1.27543874      -0.56731343      -1.21520354
H       -2.12906828      -1.11298506       0.23328807
H        1.04092894      -1.41916440      -0.87392480
H        1.26182341       0.48307093      -1.26165407
H        2.43062645      -0.43599432      -0.25713238
H        1.19364510       0.12810444       1.69734605
14
Frame=8 idx=000643 GeodesicLength=0.4652341176928455 rxn_smarts="[O:1]([C@@:2]1([H:8])[C:3]([H:9])([H:10])[C@@:4]2([H:11])[C:5]([H:12])([H:13])[C@@:6]12[H:14])[H:7]>>[O:1]([C@@:2]1([H:8])[C:3]([H:9])([H:10])[C:4][C@:6]1([C:5]([H:11])([H:12])[H:13])[H:14])[H:7]"
O       -0.86619399       1.89884243      -0.06117837
C       -0.76318878       0.65634313       0.57881608
C       -1.21836292      -0.64421164      -0.12003883
C        0.06763803      -1.34064426       0.32881924
C        1.38546399      -0.25152042      -0.47375844
C        0.59560796      -0.00547424       0.79915569
H       -0.44968213       1.84458529      -0.92327252
H       -1.27901126       0.77611919       1.53147512
H       -1.28286906      -0.56887773      -1.20967896
H       -2.13132624      -1.11674259       0.24216280
H        1.03674080      -1.42916599      -0.88450644
H        1.28408457       0.49933643      -1.25355391
H        2.43147221      -0.44319866      -0.25291412
H        1.18962683       0.12460907       1.69847265
14
Frame=9 idx=000643 GeodesicLength=0.5233488098612789 rxn_smarts="[O:1]([C@@:2]1([H:8])[C:3]([H:9])([H:10])[C@@:4]2([H:11])[C:5]([H:12])([H:13])[C@@:6]12[H:14])[H:7]>>[O:1]([C@@:2]1([H:8])[C:3]([H:9])([H:10])[C:4][C@:6]1([C:5]([H:11])([H:12])[H:13])[H:14])[H:7]"
O       -0.87033951       1.89648839      -0.06650987
C       -0.76473622       0.65686060       0.57839041
C       -1.22296697      -0.64604388      -0.11424661
C        0.06963507      -1.33470069       0.31728018
C        1.38919968      -0.24603501      -0.47355102
C        0.59607244      -0.00206441       0.79624303
H       -0.45232625       1.83963317      -0.92773838
H       -1.27738771       0.77997642       1.53233967
H       -1.29048092      -0.57046450      -1.20405843
H       -2.13344024      -1.12061209       0.25123040
H        1.03238751      -1.43944628      -0.89518652
H        1.30666704       0.51578771      -1.24487905
H        2.43217145      -0.45036876      -0.24886107
H        1.18554464       0.12098932       1.69954724
14
Frame=10 idx=000643 GeodesicLength=0.5814090595186316 rxn_smarts="[O:1]([C@@:2]1([H:8])[C:3]([H:9])([H:10])[C@@:4]2([H:11])[C:5]([H:12])([H:13])[C@@:6]12[H:14])[H:7]>>[O:1]([C@@:2]1([H:8])[C:3]([H:9])([H:10])[C:4][C@:6]1([C:5]([H:11])([H:12])[H:13])[H:14])[H:7]"
O       -0.87449002       1.89408206      -0.07198597
C       -0.76629359       0.65739769       0.57790557
C       -1.22752552      -0.64792125      -0.10837477
C        0.07161720      -1.32859842       0.30549911
C        1.39297159      -0.24030920      -0.47336632
C        0.59652140       0.00136515       0.79331021
H       -0.45489056       1.83459011      -0.93229500
H       -1.27577544       0.78392321       1.53311026
H       -1.29828241      -0.57207297      -1.19834036
H       -2.13539398      -1.12460005       0.26050896
H        1.02785599      -1.45001883      -0.90596690
H        1.32957187       0.53244077      -1.23558675
H        2.43272322      -0.45751478      -0.24498624
H        1.18139023       0.11723650       1.70056821
14
Frame=11 idx=000643 GeodesicLength=0.6394168155035358 rxn_smarts="[O:1]([C@@:2]1([H:8])[C:3]([H:9])([H:10])[C@@:4]2([H:11])[C:5]([H:12])([H:13])[C@@:6]12[H:14])[H:7]>>[O:1]([C@@:2]1([H:8])[C:3]([H:9])([H:10])[C:4][C@:6]1([C:5]([H:11])([H:12])[H:13])[H:14])[H:7]"
O       -0.87864834       1.89161909      -0.07762005
C       -0.76785943       0.65795638       0.57735532
C       -1.23203506      -0.64984510      -0.10242064
C        0.07358520      -1.32232249       0.29345590
C        1.39678468      -0.23432996      -0.47320470
C        0.59695563       0.00481418       0.79035345
H       -0.45737885       1.82944657      -0.93695586
H       -1.27417088       0.78796769       1.53377975
H       -1.30628905      -0.57370268      -1.19251582
H       -2.13717192      -1.12871183       0.27001694
H        1.02312848      -1.46089554      -0.91685121
H        1.35281918       0.54930331      -1.22562029
H        2.43312211      -0.46463212      -0.24130328
H        1.17715825       0.11333250       1.70153050
14
Frame=12 idx=000643 GeodesicLength=0.6974510474362459 rxn_smarts="[O:1]([C@@:2]1([H:8])[C:3]([H:9])([H:10])[C@@:4]2([H:11])[C:5]([H:12])([H:13])[C@@:6]12[H:14])[H:7]>>[O:1]([C@@:2]1([H:8])[C:3]([H:9])([H:10])[C:4][C@:6]1([C:5]([H:11])([H:12])[H:13])[H:14])[H:7]"
O       -0.88281464       1.88910965      -0.08338945
C       -0.76943596       0.65853979       0.57674459
C       -1.23647942      -0.65180841      -0.09639538
C        0.07554190      -1.31585798       0.28115074
C        1.40064157      -0.22808251      -0.47305617
C        0.59737567       0.00828855       0.78737617
H       -0.45978434       1.82422579      -0.94169256
H       -1.27258093       0.79210117       1.53435148
H       -1.31447724      -0.57534206      -1.18659434
H       -2.13876179      -1.13294178       0.27972219
H        1.01820989      -1.47215589      -0.92780718
H        1.37634356       0.56632897      -1.21501937
H        2.43337319      -0.47169126      -0.23782357
H        1.17284854       0.10928597       1.70243285
14
Frame=13 idx=000643 GeodesicLength=0.75547977852664 rxn_smarts="[O:1]([C@@:2]1([H:8])[C:3]([H:9])([H:10])[C@@:4]2([H:11])[C:5]([H:12])([H:13])[C@@:6]12[H:14])[H:7]>>[O:1]([C@@:2]1([H:8])[C:3]([H:9])([H:10])[C:4][C@:6]1([C:5]([H:11])([H:12])[H:13])[H:14])[H:7]"
O       -0.88698481       1.88655587      -0.08931218
C       -0.77102023       0.65915169       0.57606844
C       -1.24085982      -0.65381729      -0.09029735
C        0.07748161      -1.30920046       0.26856334
C        1.40454187      -0.22155673      -0.47292719
C        0.59778361       0.01178789       0.78437901
H       -0.46210781       1.81892483      -0.94652658
H       -1.27099941       0.79633348       1.53482221
H       -1.32287185      -0.57699631      -1.18057308
H       -2.14014996      -1.13730531       0.28964780
H        1.01308519      -1.48381159      -0.93883857
H        1.40017302       0.58353862      -1.20372628
H        2.43346765      -0.47868454      -0.23456033
H        1.16846094       0.10507986       1.70328076
14
Frame=14 idx=000643 GeodesicLength=0.8134658977083458 rxn_smarts="[O:1]([C@@:2]1([H:8])[C:3]([H:9])([H:10])[C@@:4]2([H:11])[C:5]([H:12])([H:13])[C@@:6]12[H:14])[H:7]>>[O:1]([C@@:2]1([H:8])[C:3]([H:9])([H:10])[C:4][C@:6]1([C:5]([H:11])([H:12])[H:13])[H:14])[H:7]"
O       -0.89116707       1.88393843      -0.09539214
C       -0.77261484       0.65979099       0.57531926
C       -1.24516480      -0.65585934      -0.08412140
C        0.07940710      -1.30231765       0.25566954
C        1.40848736      -0.21474027      -0.47282401
C        0.59817434       0.01531259       0.78134542
H       -0.46435864       1.81352053      -0.95145701
H       -1.26943370       0.80066573       1.53517575
H       -1.33146883      -0.57865602      -1.17443169
H       -2.14131178      -1.14178991       0.29980862
H        1.00774848      -1.49588034      -0.94991700
H        1.42432486       0.60094115      -1.19166651
H        2.43339464      -0.48562409      -0.23154950
H        1.16398288       0.10069821       1.70404067
14
Frame=15 idx=000643 GeodesicLength=0.8714777621271365 rxn_smarts="[O:1]([C@@:2]1([H:8])[C:3]([H:9])([H:10])[C@@:4]2([H:11])[C:5]([H:12])([H:13])[C@@:6]12[H:14])[H:7]>>[O:1]([C@@:2]1([H:8])[C:3]([H:9])([H:10])[C:4][C@:6]1([C:5]([H:11])([H:12])[H:13])[H:14])[H:7]"
O       -0.89535772       1.88129013      -0.10162955
C       -0.77421655       0.66046825       0.57450084
C       -1.24939078      -0.65794597      -0.07788035
C        0.08131626      -1.29521674       0.24246191
C        1.41248190      -0.20761659      -0.47274146
C        0.59855711       0.01886697       0.77829169
H       -0.46653746       1.80805156      -0.95649137
H       -1.26787814       0.80510198       1.53542459
H       -1.34028079      -0.58032448      -1.16819443
H       -2.14223835      -1.14642308       0.31019156
H        1.00218182      -1.50843647      -0.96102963
H        1.44877043       0.61853100      -1.17885240
H        2.43316082      -0.49248591      -0.22879382
H        1.15943146       0.09613935       1.70474242
14
Frame=16 idx=000643 GeodesicLength=0.9294709098907491 rxn_smarts="[O:1]([C@@:2]1([H:8])[C:3]([H:9])([H:10])[C@@:4]2([H:11])[C:5]([H:12])([H:13])[C@@:6]12[H:14])[H:7]>>[O:1]([C@@:2]1([H:8])[C:3]([H:9])([H:10])[C:4][C@:6]1([C:5]([H:11])([H:12])[H:13])[H:14])[H:7]"
O       -0.89955549       1.87858734      -0.10800715
C       -0.77582918       0.66117862       0.57361064
C       -1.25351730      -0.66005886      -0.07157529
C        0.08321016      -1.28785668       0.22892026
C        1.41652683      -0.20017253      -0.47267770
C        0.59892222       0.02245411       0.77520380
H       -0.46863718       1.80249811      -0.96160284
H       -1.26634697       0.80963121       1.53555506
H       -1.34928363      -0.58197994      -1.16184255
H       -2.14289998      -1.15118107       0.32079154
H        0.99638710      -1.52150882      -0.97213616
H        1.47348296       0.63625749      -1.16526809
H        2.43275758      -0.49924566      -0.22632356
H        1.15478288       0.09139668       1.70535204
