19
Frame=0 idx=011032 GeodesicLength=0.0 rxn_smarts="[C:1]([C:2]([C:3]([C@@:4]1([H:15])[C:5]([H:16])([H:17])[C@:6]1([O:7][H:19])[H:18])([H:13])[H:14])([H:11])[H:12])([H:8])([H:9])[H:10]>>[C:1]([C:2]([C@@:3]1([H:13])[C@@:4]2([H:15])[C:5]([H:16])([H:17])[C@@:6]12[H:18])([H:11])[H:12])([H:8])([H:9])[H:10].[O:7]([H:14])[H:19]"
C       -2.50828381       0.10808758      -0.26680084
C       -1.30683093       0.21827894       0.66396601
C       -0.04662270       0.64123365      -0.05567695
C        1.23231458       0.69682861       0.71856455
C        1.65449601      -0.72119713       1.06863096
C        1.93846192      -0.13231450      -0.23065980
O        0.97301436      -0.99022065      -1.79822383
H       -2.71504077       1.06288815      -0.75703175
H       -2.32423295      -0.63188648      -1.04968395
H       -3.40995055      -0.18988443       0.27265569
H       -1.15035765      -0.75060368       1.15263362
H       -1.53749575       0.91886004       1.48079877
H       -0.15056624       1.54012943      -0.66618172
H        0.28833790      -0.34697699      -1.20305510
H        1.63615552       1.55708964       1.24783859
H        0.89495663      -1.48332036       1.19233772
H        2.53540624      -0.86165464       1.68898007
H        2.83794263      -0.07923722      -0.81817087
H        1.15829549      -0.55610001      -2.64092108
19
Frame=1 idx=011032 GeodesicLength=0.09617243610545241 rxn_smarts="[C:1]([C:2]([C:3]([C@@:4]1([H:15])[C:5]([H:16])([H:17])[C@:6]1([O:7][H:19])[H:18])([H:13])[H:14])([H:11])[H:12])([H:8])([H:9])[H:10]>>[C:1]([C:2]([C@@:3]1([H:13])[C@@:4]2([H:15])[C:5]([H:16])([H:17])[C@@:6]12[H:18])([H:11])[H:12])([H:8])([H:9])[H:10].[O:7]([H:14])[H:19]"
C       -2.51263454       0.11378700      -0.26532347
C       -1.31377157       0.22947628       0.66796584
C       -0.04620166       0.62952763      -0.05189481
C        1.22402394       0.68580775       0.73553040
C        1.66713525      -0.73137767       1.05361695
C        1.93576100      -0.11272463      -0.23802871
O        0.99525131      -1.00593482      -1.80144172
H       -2.70724472       1.05998761      -0.77679661
H       -2.33339795      -0.64358188      -1.03250716
H       -3.42008191      -0.16285128       0.27564807
H       -1.16562178      -0.73107364       1.17485774
H       -1.54193677       0.94961865       1.46805155
H       -0.14832651       1.52060995      -0.67405697
H        0.26606165      -0.38054005      -1.19444741
H        1.62016248       1.54006351       1.27886797
H        0.91744051      -1.50532719       1.16429561
H        2.55105062      -0.87227095       1.66920822
H        2.84115707      -0.01913197      -0.81180251
H        1.17117360      -0.56406429      -2.64174300
19
Frame=2 idx=011032 GeodesicLength=0.1921975971821409 rxn_smarts="[C:1]([C:2]([C:3]([C@@:4]1([H:15])[C:5]([H:16])([H:17])[C@:6]1([O:7][H:19])[H:18])([H:13])[H:14])([H:11])[H:12])([H:8])([H:9])[H:10]>>[C:1]([C:2]([C@@:3]1([H:13])[C@@:4]2([H:15])[C:5]([H:16])([H:17])[C@@:6]12[H:18])([H:11])[H:12])([H:8])([H:9])[H:10].[O:7]([H:14])[H:19]"
C       -2.51692088       0.11942711      -0.26398100
C       -1.32068705       0.24074776       0.67181535
C       -0.04590263       0.61760527      -0.04790234
C        1.21583865       0.67405617       0.75219857
C        1.68003308      -0.74115567       1.03858366
C        1.93236735      -0.09352678      -0.24511833
O        1.01741999      -1.02066126      -1.80467509
H       -2.69933336       1.05640511      -0.79654700
H       -2.34269761      -0.65504084      -1.01505709
H       -3.42996947      -0.13570413       0.27798358
H       -1.18098206      -0.71102668       1.19686976
H       -1.54591047       0.98022179       1.45464115
H       -0.14624337       1.50094373      -0.68133114
H        0.24415585      -0.41410930      -1.18523799
H        1.60456784       1.52215338       1.30911003
H        0.94065454      -1.52683036       1.13641089
H        2.56720350      -0.88205023       1.64910889
H        2.84224042       0.03977351      -0.80440742
H        1.18416568      -0.57122859      -2.64246448
19
Frame=3 idx=011032 GeodesicLength=0.2881340940772555 rxn_smarts="[C:1]([C:2]([C:3]([C@@:4]1([H:15])[C:5]([H:16])([H:17])[C@:6]1([O:7][H:19])[H:18])([H:13])[H:14])([H:11])[H:12])([H:8])([H:9])[H:10]>>[C:1]([C:2]([C@@:3]1([H:13])[C@@:4]2([H:15])[C:5]([H:16])([H:17])[C@@:6]12[H:18])([H:11])[H:12])([H:8])([H:9])[H:10].[O:7]([H:14])[H:19]"
C       -2.52116184       0.12502687      -0.26274676
C       -1.32757954       0.25211138       0.67551481
C       -0.04574097       0.60546290      -0.04370119
C        1.20775804       0.66156648       0.76855763
C        1.69317720      -0.75054723       1.02351789
C        1.92831267      -0.07471819      -0.25193480
O        1.03959174      -1.03449150      -1.80794631
H       -2.69132613       1.05215345      -0.81624580
H       -2.35217097      -0.66623837      -0.99730449
H       -3.43962222      -0.10842369       0.27969657
H       -1.19647259      -0.69042555       1.21868852
H       -1.54938638       1.01068046       1.44055387
H       -0.14433862       1.48111307      -0.68804845
H        0.22255847      -0.44766714      -1.17544550
H        1.58934035       1.50335925       1.33860586
H        0.96462402      -1.54788082       1.10859737
H        2.58381726      -0.89098841       1.62871241
H        2.84131268       0.09754709      -0.79596908
H        1.19730686      -0.57764006      -2.64310255
19
Frame=4 idx=011032 GeodesicLength=0.3840077749891862 rxn_smarts="[C:1]([C:2]([C:3]([C@@:4]1([H:15])[C:5]([H:16])([H:17])[C@:6]1([O:7][H:19])[H:18])([H:13])[H:14])([H:11])[H:12])([H:8])([H:9])[H:10]>>[C:1]([C:2]([C@@:3]1([H:13])[C@@:4]2([H:15])[C:5]([H:16])([H:17])[C@@:6]12[H:18])([H:11])[H:12])([H:8])([H:9])[H:10].[O:7]([H:14])[H:19]"
C       -2.52536974       0.13058877      -0.26159752
C       -1.33444963       0.26359529       0.67906957
C       -0.04572859       0.59309415      -0.03929405
C        1.19977961       0.64832576       0.78460579
C        1.70655680      -0.75957447       1.00839769
C        1.92362884      -0.05629075      -0.25848170
O        1.06185068      -1.04747178      -1.81129120
H       -2.68322627       1.04720356      -0.83590770
H       -2.36185170      -0.67720279      -0.97918699
H       -3.44904680      -0.08096314       0.28082247
H       -1.21212049      -0.66920293       1.24036451
H       -1.55233889       1.04103800       1.42576590
H       -0.14262558       1.46109828      -0.69425169
H        0.20120617      -0.48121888      -1.16507155
H        1.57444531       1.48366736       1.36741331
H        0.98936961      -1.56851966       1.08075376
H        2.60084555      -0.89909994       1.60804191
H        2.83845533       0.15422755      -0.78647072
H        1.21061978      -0.58329439      -2.64368180
19
Frame=5 idx=011032 GeodesicLength=0.47973355083081537 rxn_smarts="[C:1]([C:2]([C:3]([C@@:4]1([H:15])[C:5]([H:16])([H:17])[C@:6]1([O:7][H:19])[H:18])([H:13])[H:14])([H:11])[H:12])([H:8])([H:9])[H:10]>>[C:1]([C:2]([C@@:3]1([H:13])[C@@:4]2([H:15])[C:5]([H:16])([H:17])[C@@:6]12[H:18])([H:11])[H:12])([H:8])([H:9])[H:10].[O:7]([H:14])[H:19]"
C       -2.52955644       0.13612985      -0.26050929
C       -1.34129725       0.27521722       0.68248729
C       -0.04587540       0.58048677      -0.03468106
C        1.19188712       0.63433043       0.80035487
C        1.72015797      -0.76824402       0.99320827
C        1.91834709      -0.03824357      -0.26476411
O        1.08424359      -1.05963591      -1.81473361
H       -2.67506613       1.04157047      -0.85548188
H       -2.37175452      -0.68789946      -0.96068386
H       -3.45824742      -0.05332900       0.28137258
H       -1.22794170      -0.64731851       1.26191060
H       -1.55476430       1.07130650       1.41026568
H       -0.14111280       1.44086896      -0.69998496
H        0.18004491      -0.51480310      -1.15409726
H        1.55983304       1.46308887       1.39556936
H        1.01490454      -1.58875953       1.05281301
H        2.61824414      -0.90636463       1.58711755
H        2.83381041       0.20978642      -0.77595253
H        1.22414316      -0.58818776      -2.64421066
19
Frame=6 idx=011032 GeodesicLength=0.5754376626781067 rxn_smarts="[C:1]([C:2]([C:3]([C@@:4]1([H:15])[C:5]([H:16])([H:17])[C@:6]1([O:7][H:19])[H:18])([H:13])[H:14])([H:11])[H:12])([H:8])([H:9])[H:10]>>[C:1]([C:2]([C@@:3]1([H:13])[C@@:4]2([H:15])[C:5]([H:16])([H:17])[C@@:6]12[H:18])([H:11])[H:12])([H:8])([H:9])[H:10].[O:7]([H:14])[H:19]"
C       -2.53374242       0.14166386      -0.25944951
C       -1.34811115       0.28699819       0.68575291
C       -0.04619338       0.56762414      -0.02989437
C        1.18408116       0.61956619       0.81577298
C        1.73396074      -0.77657118       0.97794357
C        1.91248958      -0.02057667      -0.27077733
O        1.10691964      -1.07102855      -1.81832376
H       -2.66686944       1.03525458      -0.87493097
H       -2.38193702      -0.69830567      -0.94175784
H       -3.46722040      -0.02549985       0.28140601
H       -1.24394189      -0.62471037       1.28334058
H       -1.55658844       1.10149174       1.39402436
H       -0.13982191       1.42038190      -0.70532617
H        0.15899816      -0.54848578      -1.14250144
H        1.54547702       1.44160760       1.42308933
H        1.04123444      -1.60861772       1.02469735
H        2.63595165      -0.91279334       1.56599021
H        2.82742628       0.26429206      -0.76433726
H        1.23788737      -0.59229112      -2.64471865
19
Frame=7 idx=011032 GeodesicLength=0.6710927535135851 rxn_smarts="[C:1]([C:2]([C:3]([C@@:4]1([H:15])[C:5]([H:16])([H:17])[C@:6]1([O:7][H:19])[H:18])([H:13])[H:14])([H:11])[H:12])([H:8])([H:9])[H:10]>>[C:1]([C:2]([C@@:3]1([H:13])[C@@:4]2([H:15])[C:5]([H:16])([H:17])[C@@:6]12[H:18])([H:11])[H:12])([H:8])([H:9])[H:10].[O:7]([H:14])[H:19]"
C       -2.53793361       0.14718652      -0.25839533
C       -1.35487968       0.29896697       0.68886158
C       -0.04668871       0.55448833      -0.02495011
C        1.17635260       0.60401467       0.83086003
C        1.74794881      -0.78457791       0.96258479
C        1.90608378      -0.00329083      -0.27651612
O        1.12997234      -1.08162679      -1.82210757
H       -2.65864462       1.02820374      -0.89427546
H       -2.39242970      -0.70845734      -0.92233202
H       -3.47595444       0.00257164       0.28095581
H       -1.26011639      -0.60128979       1.30469168
H       -1.55777348       1.13163618       1.37699388
H       -0.13875931       1.39960017      -0.71032618
H        0.13800761      -0.58232729      -1.13024095
H        1.53134092       1.41920077       1.45001493
H        1.06835411      -1.62810141       0.99632787
H        2.65391902      -0.91840893       1.54468338
H        2.81934552       0.31775319      -0.75159914
H        1.25185523      -0.59554189      -2.64523108
19
Frame=8 idx=011032 GeodesicLength=0.7667386723233744 rxn_smarts="[C:1]([C:2]([C:3]([C@@:4]1([H:15])[C:5]([H:16])([H:17])[C@:6]1([O:7][H:19])[H:18])([H:13])[H:14])([H:11])[H:12])([H:8])([H:9])[H:10]>>[C:1]([C:2]([C@@:3]1([H:13])[C@@:4]2([H:15])[C:5]([H:16])([H:17])[C@@:6]12[H:18])([H:11])[H:12])([H:8])([H:9])[H:10].[O:7]([H:14])[H:19]"
C       -2.54214053       0.15270665      -0.25731828
C       -1.36158845       0.31114808       0.69180269
C       -0.04736996       0.54106187      -0.01987260
C        1.16869209       0.58766505       0.84560336
C        1.76210025      -0.79227382       0.94712305
C        1.89915018       0.01361608      -0.28197293
O        1.15352177      -1.09142138      -1.82613636
H       -2.65042207       1.02039508      -0.91348794
H       -2.40327023      -0.71834082      -0.90235487
H       -3.48443958       0.03090062       0.28005664
H       -1.27645183      -0.57698128       1.32597421
H       -1.55826770       1.16174990       1.35913472
H       -0.13793677       1.37847743      -0.71505335
H        0.11700689      -0.61641327      -1.11725948
H        1.51738518       1.39585241       1.47637069
H        1.09626198      -1.64720262       0.96763415
H        2.67208569      -0.92321933       1.52323537
H        2.80963090       0.37016062      -0.73770425
H        1.26605219      -0.59788129      -2.64577480
19
Frame=9 idx=011032 GeodesicLength=0.8623471624397965 rxn_smarts="[C:1]([C:2]([C:3]([C@@:4]1([H:15])[C:5]([H:16])([H:17])[C@:6]1([O:7][H:19])[H:18])([H:13])[H:14])([H:11])[H:12])([H:8])([H:9])[H:10]>>[C:1]([C:2]([C@@:3]1([H:13])[C@@:4]2([H:15])[C:5]([H:16])([H:17])[C@@:6]12[H:18])([H:11])[H:12])([H:8])([H:9])[H:10].[O:7]([H:14])[H:19]"
C       -2.54637202       0.15824494      -0.25619048
C       -1.36822180       0.32356119       0.69457886
C       -0.04824015       0.52732223      -0.01467621
C        1.16107269       0.57050924       0.86002004
C        1.77638687      -0.79965873       0.93154991
C        1.89171339       0.03014336      -0.28715726
O        1.17766122      -1.10039011      -1.83044082
H       -2.64225235       1.01185820      -0.93248084
H       -2.41445976      -0.72790046      -0.88180468
H       -3.49268293       0.05946679       0.27872067
H       -1.29292417      -0.55173924       1.34715827
H       -1.55807292       1.19181792       1.34042498
H       -0.13735668       1.35695222      -0.71957715
H        0.09593990      -0.65084539      -1.10346777
H        1.50354355       1.37157723       1.50217873
H        1.12495247      -1.66589468       0.93856122
H        2.69038900      -0.92719871       1.50168320
H        2.79840633       0.42143123      -0.72272866
H        1.28051737      -0.59925722      -2.64635200
19
Frame=10 idx=011032 GeodesicLength=0.957983726097397 rxn_smarts="[C:1]([C:2]([C:3]([C@@:4]1([H:15])[C:5]([H:16])([H:17])[C@:6]1([O:7][H:19])[H:18])([H:13])[H:14])([H:11])[H:12])([H:8])([H:9])[H:10]>>[C:1]([C:2]([C@@:3]1([H:13])[C@@:4]2([H:15])[C:5]([H:16])([H:17])[C@@:6]12[H:18])([H:11])[H:12])([H:8])([H:9])[H:10].[O:7]([H:14])[H:19]"
C       -2.55063436       0.16378486      -0.25498666
C       -1.37475454       0.33623929       0.69715677
C       -0.04930828       0.51325346      -0.00939968
C        1.15350201       0.55252102       0.87407002
C        1.79078907      -0.80675653       0.91585563
C        1.88378465       0.04628718      -0.29204205
O        1.20253616      -1.10847596      -1.83509472
H       -2.63413956       1.00248374      -0.95130949
H       -2.42606349      -0.73718588      -0.86057433
H       -3.50065375       0.08833256       0.27699521
H       -1.30950318      -0.52542803       1.36828572
H       -1.55707459       1.22187454       1.32077873
H       -0.13703753       1.33498268      -0.72396124
H        0.07473691      -0.68570004      -1.08879910
H        1.48980840       1.34631106       1.52746064
H        1.15440503      -1.68416583       0.90902853
H        2.70877315      -0.93040428       1.48007057
H        2.78563792       0.47162442      -0.70652100
H        1.29519599      -0.59957826      -2.64701355
19
Frame=11 idx=011032 GeodesicLength=1.0536434528855039 rxn_smarts="[C:1]([C:2]([C:3]([C@@:4]1([H:15])[C:5]([H:16])([H:17])[C@:6]1([O:7][H:19])[H:18])([H:13])[H:14])([H:11])[H:12])([H:8])([H:9])[H:10]>>[C:1]([C:2]([C@@:3]1([H:13])[C@@:4]2([H:15])[C:5]([H:16])([H:17])[C@@:6]12[H:18])([H:11])[H:12])([H:8])([H:9])[H:10].[O:7]([H:14])[H:19]"
C       -2.55493562       0.16933278      -0.25368317
C       -1.38116130       0.34919955       0.69951464
C       -0.05057880       0.49883265      -0.00407322
C        1.14596263       0.53368713       0.88774339
C        1.80527701      -0.81357936       0.90003819
C        1.87538188       0.06204450      -0.29661715
O        1.22826979      -1.11563130      -1.84013727
H       -2.62611656       0.99225903      -0.96993635
H       -2.43810891      -0.74617216      -0.83862451
H       -3.50833080       0.11750971       0.27491893
H       -1.32614899      -0.49797640       1.38933709
H       -1.55521639       1.25191576       1.30014487
H       -0.13698968       1.31250695      -0.72827735
H        0.05333117      -0.72108066      -1.07316042
H        1.47613715       1.32003815       1.55222915
H        1.18459896      -1.70199380       0.87899508
H        2.72717815      -0.93285074       1.45843687
H        2.77136381       0.52073764      -0.68907398
H        1.31008652      -0.59877944      -2.64777478
19
Frame=12 idx=011032 GeodesicLength=1.1493389137812073 rxn_smarts="[C:1]([C:2]([C:3]([C@@:4]1([H:15])[C:5]([H:16])([H:17])[C@:6]1([O:7][H:19])[H:18])([H:13])[H:14])([H:11])[H:12])([H:8])([H:9])[H:10]>>[C:1]([C:2]([C@@:3]1([H:13])[C@@:4]2([H:15])[C:5]([H:16])([H:17])[C@@:6]12[H:18])([H:11])[H:12])([H:8])([H:9])[H:10].[O:7]([H:14])[H:19]"
C       -2.55928095       0.17488995      -0.25225281
C       -1.38741401       0.36246947       0.70162852
C       -0.05205554       0.48404045       0.00127213
C        1.13843850       0.51399342       0.90102862
C        1.81981806      -0.82014201       0.88408989
C        1.86652095       0.07741781      -0.30086877
O        1.25500606      -1.12177894      -1.84561991
H       -2.61821519       0.98113389      -0.98834569
H       -2.45062457      -0.75485538      -0.81588018
H       -3.51569438       0.14702663       0.27252549
H       -1.34281076      -0.46929160       1.41030212
H       -1.55244257       1.28194450       1.27845583
H       -0.13722222       1.28946148      -0.73259987
H        0.03165486      -0.75708786      -1.05644072
H        1.46248525       1.29272729       1.57650642
H        1.21550716      -1.71935199       0.84840521
H        2.74553797      -0.93456784       1.43681916
H        2.75561158       0.56875159      -0.67036642
H        1.32517980      -0.59678085      -2.64865902
19
Frame=13 idx=011032 GeodesicLength=1.2450413683476556 rxn_smarts="[C:1]([C:2]([C:3]([C@@:4]1([H:15])[C:5]([H:16])([H:17])[C@:6]1([O:7][H:19])[H:18])([H:13])[H:14])([H:11])[H:12])([H:8])([H:9])[H:10]>>[C:1]([C:2]([C@@:3]1([H:13])[C@@:4]2([H:15])[C:5]([H:16])([H:17])[C@@:6]12[H:18])([H:11])[H:12])([H:8])([H:9])[H:10].[O:7]([H:14])[H:19]"
C       -2.56367719       0.18046561      -0.25066575
C       -1.39348071       0.37606713       0.70346947
C       -0.05374321       0.46885703       0.00660269
C        1.13091274       0.49342558       0.91391129
C        1.83437706      -0.82645128       0.86801049
C        1.85721560       0.09240746      -0.30478543
O        1.28287649      -1.12684496      -1.85158309
H       -2.61047382       0.96909658      -1.00649344
H       -2.46363434      -0.76319945      -0.79229729
H       -3.52272514       0.17686768       0.26985233
H       -1.35942968      -0.43929343       1.43114623
H       -1.54868909       1.31195067       1.25564601
H       -0.13774738       1.26577817      -0.73700698
H        0.00963930      -0.79382437      -1.03851516
H        1.44880902       1.26435351       1.60030277
H        1.24710227      -1.73620189       0.81721059
H        2.76378423      -0.93557617       1.41526331
H        2.73841070       0.61564169      -0.65038335
H        1.34047317      -0.59351957      -2.64968470
19
Frame=14 idx=011032 GeodesicLength=1.3407587375049705 rxn_smarts="[C:1]([C:2]([C:3]([C@@:4]1([H:15])[C:5]([H:16])([H:17])[C@:6]1([O:7][H:19])[H:18])([H:13])[H:14])([H:11])[H:12])([H:8])([H:9])[H:10]>>[C:1]([C:2]([C@@:3]1([H:13])[C@@:4]2([H:15])[C:5]([H:16])([H:17])[C@@:6]12[H:18])([H:11])[H:12])([H:8])([H:9])[H:10].[O:7]([H:14])[H:19]"
C       -2.56812886       0.18606175      -0.24889479
C       -1.39932704       0.39002057       0.70500937
C       -0.05564702       0.45325921       0.01188702
C        1.12336605       0.47196273       0.92638026
C        1.84892136      -0.83251967       0.85179110
C        1.84747825       0.10701384      -0.30835247
O        1.31204829      -1.13071660      -1.85808393
H       -2.60293721       0.95607042      -1.02436545
H       -2.47717423      -0.77119715      -0.76777591
H       -3.52940258       0.20708654       0.26691757
H       -1.37593365      -0.40787379       1.45183873
H       -1.54389427       1.34192181       1.23162981
H       -0.13857603       1.24137544      -0.74157768
H       -0.01278974      -0.83140085      -1.01922116
H        1.43506230       1.23487295       1.62363906
H        1.27935379      -1.75250136       0.78534103
H        2.78185197      -0.93591166       1.39380574
H        2.71977029       0.66137703      -0.62909599
H        1.35595834      -0.58890121      -2.65087231
19
Frame=15 idx=011032 GeodesicLength=1.4364759787450851 rxn_smarts="[C:1]([C:2]([C:3]([C@@:4]1([H:15])[C:5]([H:16])([H:17])[C@:6]1([O:7][H:19])[H:18])([H:13])[H:14])([H:11])[H:12])([H:8])([H:9])[H:10]>>[C:1]([C:2]([C@@:3]1([H:13])[C@@:4]2([H:15])[C:5]([H:16])([H:17])[C@@:6]12[H:18])([H:11])[H:12])([H:8])([H:9])[H:10].[O:7]([H:14])[H:19]"
C       -2.57264415       0.19168541      -0.24691091
C       -1.40491612       0.40435142       0.70620931
C       -0.05777335       0.43722381       0.01708626
C        1.11577777       0.44958661       0.93841642
C        1.86341414      -0.83835412       0.83542484
C        1.83731935       0.12124219      -0.31155787
O        1.34269901      -1.13327695      -1.86517157
H       -2.59565968       0.94201982      -1.04191437
H       -2.49127697      -0.77881276      -0.74224409
H       -3.53570635       0.23769589       0.26375093
H       -1.39224509      -0.37492741       1.47233373
H       -1.53799072       1.37182436       1.20632670
H       -0.13972410       1.21616224      -0.74640379
H       -0.03571183      -0.86993217      -0.99837433
H        1.42119517       1.20424766       1.64652419
H        1.31222497      -1.76819658       0.75273154
H        2.79967127      -0.93560474       1.37248911
H        2.69971041       0.70591179      -0.60647448
H        1.37163627      -0.58284645      -2.65224163
19
Frame=16 idx=011032 GeodesicLength=1.532162085882582 rxn_smarts="[C:1]([C:2]([C:3]([C@@:4]1([H:15])[C:5]([H:16])([H:17])[C@:6]1([O:7][H:19])[H:18])([H:13])[H:14])([H:11])[H:12])([H:8])([H:9])[H:10]>>[C:1]([C:2]([C@@:3]1([H:13])[C@@:4]2([H:15])[C:5]([H:16])([H:17])[C@@:6]12[H:18])([H:11])[H:12])([H:8])([H:9])[H:10].[O:7]([H:14])[H:19]"
C       -2.57723088       0.19733932      -0.24468441
C       -1.41020745       0.41909013       0.70703131
C       -0.06012991       0.42072635       0.02216461
C        1.10812684       0.42627217       0.95000304
C        1.87781446      -0.84396539       0.81890467
C        1.82674646       0.13509441      -0.31438742
O        1.37501696      -1.13437967      -1.87290241
H       -2.58869749       0.92686727      -1.05911233
H       -2.50597965      -0.78601651      -0.71559737
H       -3.54161653       0.26873494       0.26036789
H       -1.40827392      -0.34033431       1.49257998
H       -1.53091042       1.40162336       1.17963689
H       -0.14120779       1.19003885      -0.75157420
H       -0.05921114      -0.90953263      -0.97575529
H        1.40715948       1.17242433       1.66897193
H        1.34567634      -1.78322899       0.71930366
H        2.81717052      -0.93469718       1.35135316
H        2.67824592       0.74920058      -0.58249004
H        1.38750820      -0.57525701      -2.65381366
