13
Frame=0 idx=000709 GeodesicLength=0.0 rxn_smarts="[C:1]([N:2]1[C:3]([H:10])([H:11])[C:4](=[O:5])[C:6]1([H:12])[H:13])([H:7])([H:8])[H:9]>>[C-:4]#[O+:5].[C:1]([N+:2]([C-:3]([H:10])[H:11])=[C:6]([H:12])[H:13])([H:7])([H:8])[H:9]"
C       -1.39005682      -0.13381533       0.39991219
N       -0.24907256      -0.03236387      -0.50028271
C        0.35777766       1.18025012      -0.59152737
C        1.66426284       0.18085382       0.76199183
O        1.70659132       0.19287781       1.91131698
C        0.60013448      -1.09464921      -0.53743628
H       -1.89127513      -1.08676466       0.24288584
H       -1.06043038      -0.06537108       1.44191162
H       -2.09160680       0.67016075       0.18818465
H        1.08541772       1.30147152      -1.38042731
H       -0.24894641       2.04530797      -0.35197209
H        0.18619889      -2.05484373      -0.25172106
H        1.33100524      -1.10311415      -1.33283627
13
Frame=1 idx=000709 GeodesicLength=0.05504731248256776 rxn_smarts="[C:1]([N:2]1[C:3]([H:10])([H:11])[C:4](=[O:5])[C:6]1([H:12])[H:13])([H:7])([H:8])[H:9]>>[C-:4]#[O+:5].[C:1]([N+:2]([C-:3]([H:10])[H:11])=[C:6]([H:12])[H:13])([H:7])([H:8])[H:9]"
C       -1.40255303      -0.13542306       0.38563847
N       -0.25405607      -0.03314940      -0.50482974
C        0.35932586       1.17967886      -0.58214897
C        1.66560637       0.18185107       0.75953442
O        1.76727062       0.19906606       1.90489271
C        0.60114097      -1.09378766      -0.52826734
H       -1.90248722      -1.08805061       0.22231291
H       -1.08178384      -0.06816922       1.43065500
H       -2.10201733       0.66887491       0.16794913
H        1.07240844       1.31455293      -1.38249457
H       -0.23909608       2.04422880      -0.31966222
H        0.19490561      -2.05062793      -0.22015461
H        1.32133570      -1.11904478      -1.33342520
13
Frame=2 idx=000709 GeodesicLength=0.10999381993975715 rxn_smarts="[C:1]([N:2]1[C:3]([H:10])([H:11])[C:4](=[O:5])[C:6]1([H:12])[H:13])([H:7])([H:8])[H:9]>>[C-:4]#[O+:5].[C:1]([N+:2]([C-:3]([H:10])[H:11])=[C:6]([H:12])[H:13])([H:7])([H:8])[H:9]"
C       -1.41555267      -0.13708437       0.37069586
N       -0.25893455      -0.03391253      -0.50904530
C        0.36075233       1.17909481      -0.57199304
C        1.66670479       0.18282194       0.75803352
O        1.83225814       0.20557769       1.89563441
C        0.60201836      -1.09290559      -0.51831275
H       -1.91392624      -1.08942075       0.20067828
H       -1.10448986      -0.07107136       1.41889697
H       -2.11267680       0.66758178       0.14659920
H        1.05920135       1.32824538      -1.38309575
H       -0.22983611       2.04233624      -0.28717447
H        0.20288244      -2.04574313      -0.18836271
H        1.31159882      -1.13552010      -1.33255422
13
Frame=3 idx=000709 GeodesicLength=0.1646567349522299 rxn_smarts="[C:1]([N:2]1[C:3]([H:10])([H:11])[C:4](=[O:5])[C:6]1([H:12])[H:13])([H:7])([H:8])[H:9]>>[C-:4]#[O+:5].[C:1]([N+:2]([C-:3]([H:10])[H:11])=[C:6]([H:12])[H:13])([H:7])([H:8])[H:9]"
C       -1.42906055      -0.13880613       0.35504029
N       -0.26370161      -0.03465664      -0.51290206
C        0.36205448       1.17848889      -0.56096984
C        1.66740982       0.18371903       0.75775109
O        1.90176183       0.21253396       1.88287259
C        0.60275023      -1.09201042      -0.50749751
H       -1.92558254      -1.09087589       0.17791726
H       -1.12865148      -0.07411421       1.40659733
H       -2.12355792       0.66629242       0.12410275
H        1.04592212       1.34254218      -1.38202385
H       -0.22124996       2.03964347      -0.25448073
H        0.21002231      -2.04023527      -0.15635731
H        1.30188326      -1.15252139      -1.33005000
13
Frame=4 idx=000709 GeodesicLength=0.21869795579423543 rxn_smarts="[C:1]([N:2]1[C:3]([H:10])([H:11])[C:4](=[O:5])[C:6]1([H:12])[H:13])([H:7])([H:8])[H:9]>>[C-:4]#[O+:5].[C:1]([N+:2]([C-:3]([H:10])[H:11])=[C:6]([H:12])[H:13])([H:7])([H:8])[H:9]"
C       -1.44305241      -0.14057855       0.33864937
N       -0.26833211      -0.03537170      -0.51635382
C        0.36322445       1.17787347      -0.54901137
C        1.66759003       0.18458500       0.75896963
O        1.97574884       0.21973765       1.86579745
C        0.60334423      -1.09108632      -0.49573641
H       -1.93738801      -1.09242760       0.15405202
H       -1.15435567      -0.07725593       1.39373080
H       -2.13462677       0.66500446       0.10041510
H        1.03268348       1.35744377      -1.37911403
H       -0.21345295       2.03618686      -0.22161064
H        0.21627848      -2.03412500      -0.12408109
H        1.29233841      -1.16998611      -1.32570702
13
Frame=5 idx=000709 GeodesicLength=0.2720425587668387 rxn_smarts="[C:1]([N:2]1[C:3]([H:10])([H:11])[C:4](=[O:5])[C:6]1([H:12])[H:13])([H:7])([H:8])[H:9]>>[C-:4]#[O+:5].[C:1]([N+:2]([C-:3]([H:10])[H:11])=[C:6]([H:12])[H:13])([H:7])([H:8])[H:9]"
C       -1.45755527      -0.14244679       0.32144229
N       -0.27282695      -0.03610603      -0.51937544
C        0.36430783       1.17716810      -0.53591955
C        1.66696204       0.18506524       0.76218573
O        2.05456792       0.22830295       1.84332327
C        0.60372207      -1.09023698      -0.48295157
H       -1.94944730      -1.09403459       0.12880054
H       -1.18173286      -0.08075410       1.38022675
H       -2.14579718       0.66379837       0.07557518
H        1.01980296       1.37288406      -1.37395540
H       -0.20637164       2.03192093      -0.18825095
H        0.22135774      -2.02760534      -0.09173842
H        1.28301063      -1.18795583      -1.31936243
13
Frame=6 idx=000709 GeodesicLength=0.3239397181736213 rxn_smarts="[C:1]([N:2]1[C:3]([H:10])([H:11])[C:4](=[O:5])[C:6]1([H:12])[H:13])([H:7])([H:8])[H:9]>>[C-:4]#[O+:5].[C:1]([N+:2]([C-:3]([H:10])[H:11])=[C:6]([H:12])[H:13])([H:7])([H:8])[H:9]"
C       -1.47244831      -0.14426681       0.30347794
N       -0.27711880      -0.03666854      -0.52188243
C        0.36507329       1.17671344      -0.52190165
C        1.66536389       0.18642271       0.76770927
O        2.13762096       0.23408095       1.81439939
C        0.60413057      -1.08908462      -0.46887713
H       -1.96120383      -1.09592192       0.10291789
H       -1.21084132      -0.08370774       1.36610765
H       -2.15725525       0.66237349       0.04908596
H        1.00696451       1.38905024      -1.36689044
H       -0.20074591       2.02723665      -0.15532778
H        0.22591410      -2.02022207      -0.05838370
H        1.27454611      -1.20600577      -1.31043497
13
Frame=7 idx=000709 GeodesicLength=0.3747595353985105 rxn_smarts="[C:1]([N:2]1[C:3]([H:10])([H:11])[C:4](=[O:5])[C:6]1([H:12])[H:13])([H:7])([H:8])[H:9]>>[C-:4]#[O+:5].[C:1]([N+:2]([C-:3]([H:10])[H:11])=[C:6]([H:12])[H:13])([H:7])([H:8])[H:9]"
C       -1.48790968      -0.14633031       0.28449102
N       -0.28118145      -0.03752225      -0.52375733
C        0.36615113       1.17561360      -0.50593277
C        1.66242062       0.18542633       0.77655731
O        2.22554626       0.24721044       1.77652074
C        0.60398385      -1.08856793      -0.45368125
H       -1.97378147      -1.09746423       0.07445232
H       -1.24194447      -0.08823897       1.35112413
H       -2.16830195       0.66152598       0.02194622
H        0.99583966       1.40530103      -1.35600721
H       -0.19497819       2.02119181      -0.12027411
H        0.22804447      -2.01326049      -0.02609287
H        1.26611122      -1.22488502      -1.29934619
13
Frame=8 idx=000709 GeodesicLength=0.4234967167092217 rxn_smarts="[C:1]([N:2]1[C:3]([H:10])([H:11])[C:4](=[O:5])[C:6]1([H:12])[H:13])([H:7])([H:8])[H:9]>>[C-:4]#[O+:5].[C:1]([N+:2]([C-:3]([H:10])[H:11])=[C:6]([H:12])[H:13])([H:7])([H:8])[H:9]"
C       -1.50383915      -0.14833013       0.26448049
N       -0.28490794      -0.03804475      -0.52481093
C        0.36670330       1.17499310      -0.48863010
C        1.65771226       0.18619441       0.78927627
O        2.31796358       0.25473718       1.72745597
C        0.60401534      -1.08740149      -0.43645677
H       -1.98574748      -1.09942179       0.04516710
H       -1.27536211      -0.09190891       1.33519774
H       -2.17976933       0.66018012      -0.00760666
H        0.98504183       1.42239172      -1.34252470
H       -0.19137383       2.01493495      -0.08569689
H        0.23000178      -2.00500216       0.00845431
H        1.25956173      -1.24332225      -1.28430582
13
Frame=9 idx=000709 GeodesicLength=0.47035298450491164 rxn_smarts="[C:1]([N:2]1[C:3]([H:10])([H:11])[C:4](=[O:5])[C:6]1([H:12])[H:13])([H:7])([H:8])[H:9]>>[C-:4]#[O+:5].[C:1]([N+:2]([C-:3]([H:10])[H:11])=[C:6]([H:12])[H:13])([H:7])([H:8])[H:9]"
C       -1.52022264      -0.15036309       0.24331273
N       -0.28819350      -0.03836063      -0.52485963
C        0.36694999       1.17472276      -0.46942285
C        1.65083565       0.18767795       0.80729279
O        2.41432854       0.25968749       1.66385782
C        0.60406345      -1.08600026      -0.41698131
H       -1.99735446      -1.10167674       0.01427042
H       -1.31126723      -0.09548684       1.31826781
H       -2.19130455       0.65868997      -0.03937993
H        0.97556987       1.44016690      -1.32537470
H       -0.18957808       2.00848986      -0.05079152
H        0.23109682      -1.99605594       0.04476244
H        1.25507612      -1.26149141      -1.26495407
13
Frame=10 idx=000709 GeodesicLength=0.5143235088089724 rxn_smarts="[C:1]([N:2]1[C:3]([H:10])([H:11])[C:4](=[O:5])[C:6]1([H:12])[H:13])([H:7])([H:8])[H:9]>>[C-:4]#[O+:5].[C:1]([N+:2]([C-:3]([H:10])[H:11])=[C:6]([H:12])[H:13])([H:7])([H:8])[H:9]"
C       -1.53630761      -0.15245428       0.22146419
N       -0.29044173      -0.03905037      -0.52349173
C        0.36819736       1.17357967      -0.44777176
C        1.64430808       0.18606545       0.82892864
O        2.50593468       0.27348054       1.58576052
C        0.60382574      -1.08558130      -0.39624658
H       -2.00891466      -1.10332198      -0.01876418
H       -1.34855091      -0.10024837       1.30055957
H       -2.20127254       0.65803528      -0.07161374
H        0.96884390       1.45767936      -1.30380096
H       -0.18627420       2.00030342      -0.01200792
H        0.22989318      -1.98785212       0.08048920
H        1.25075870      -1.28063531      -1.24350526
13
Frame=11 idx=000709 GeodesicLength=0.5563001281542858 rxn_smarts="[C:1]([N:2]1[C:3]([H:10])([H:11])[C:4](=[O:5])[C:6]1([H:12])[H:13])([H:7])([H:8])[H:9]>>[C-:4]#[O+:5].[C:1]([N+:2]([C-:3]([H:10])[H:11])=[C:6]([H:12])[H:13])([H:7])([H:8])[H:9]"
C       -1.55121142      -0.15438209       0.19963585
N       -0.29141208      -0.03906470      -0.52073500
C        0.36927547       1.17349977      -0.42576545
C        1.64063540       0.18780926       0.85049878
O        2.58696447       0.27671714       1.49936812
C        0.60469241      -1.08412192      -0.37411673
H       -2.01794262      -1.10547724      -0.05111697
H       -1.38570648      -0.10396752       1.28253191
H       -2.21029111       0.65674852      -0.10495559
H        0.96077393       1.47650311      -1.28211660
H       -0.18440969       1.99230348       0.02648295
H        0.23076415      -1.97727791       0.12006756
H        1.24786758      -1.29928991      -1.21977883
13
Frame=12 idx=000709 GeodesicLength=0.5974273795327378 rxn_smarts="[C:1]([N:2]1[C:3]([H:10])([H:11])[C:4](=[O:5])[C:6]1([H:12])[H:13])([H:7])([H:8])[H:9]>>[C-:4]#[O+:5].[C:1]([N+:2]([C-:3]([H:10])[H:11])=[C:6]([H:12])[H:13])([H:7])([H:8])[H:9]"
C       -1.56436605      -0.15610852       0.17836582
N       -0.29109200      -0.03938374      -0.51706590
C        0.37162034       1.17273655      -0.40342476
C        1.64211593       0.18718949       0.86897330
O        2.65278356       0.28666268       1.41202657
C        0.60573220      -1.08365761      -0.35256082
H       -2.02568245      -1.10687191      -0.08344852
H       -1.42106011      -0.10827141       1.26460775
H       -2.21667130       0.65649109      -0.13680104
H        0.95274145       1.49536590      -1.26015437
H       -0.17989843       1.98257083       0.06793504
H        0.23098264      -1.96684556       0.15921361
H        1.24279423      -1.31987778      -1.19766664
13
Frame=13 idx=000709 GeodesicLength=0.6380022166938694 rxn_smarts="[C:1]([N:2]1[C:3]([H:10])([H:11])[C:4](=[O:5])[C:6]1([H:12])[H:13])([H:7])([H:8])[H:9]>>[C-:4]#[O+:5].[C:1]([N+:2]([C-:3]([H:10])[H:11])=[C:6]([H:12])[H:13])([H:7])([H:8])[H:9]"
C       -1.57578061      -0.15761511       0.15784637
N       -0.28990550      -0.03962358      -0.51308608
C        0.37445925       1.17210875      -0.38185109
C        1.64866108       0.18687670       0.88285637
O        2.70588765       0.29564557       1.32919479
C        0.60730115      -1.08333638      -0.33182954
H       -2.03161704      -1.10810629      -0.11458512
H       -1.45406879      -0.11233143       1.24691702
H       -2.22125530       0.65659401      -0.16734639
H        0.94276014       1.51503592      -1.23974146
H       -0.17443087       1.97197116       0.10995209
H        0.23203091      -1.95545256       0.19885243
H        1.23595792      -1.34176676      -1.17717938
13
Frame=14 idx=000709 GeodesicLength=0.6792605893468179 rxn_smarts="[C:1]([N:2]1[C:3]([H:10])([H:11])[C:4](=[O:5])[C:6]1([H:12])[H:13])([H:7])([H:8])[H:9]>>[C-:4]#[O+:5].[C:1]([N+:2]([C-:3]([H:10])[H:11])=[C:6]([H:12])[H:13])([H:7])([H:8])[H:9]"
C       -1.58608047      -0.15908180       0.13730652
N       -0.28800143      -0.03950577      -0.50863168
C        0.37718700       1.17204103      -0.36032615
C        1.65821764       0.18838322       0.89454956
O        2.75173752       0.29933304       1.24554501
C        0.60938853      -1.08245437      -0.31066721
H       -2.03568431      -1.10960744      -0.14530850
H       -1.48623539      -0.11594807       1.22876072
H       -2.22475281       0.65634747      -0.19826321
H        0.93097700       1.53596836      -1.21951938
H       -0.16949976       1.96077144       0.15219809
H        0.23398081      -1.94222785       0.24027987
H        1.22876567      -1.36401925      -1.15592363
13
Frame=15 idx=000709 GeodesicLength=0.7209268349090722 rxn_smarts="[C:1]([N:2]1[C:3]([H:10])([H:11])[C:4](=[O:5])[C:6]1([H:12])[H:13])([H:7])([H:8])[H:9]>>[C-:4]#[O+:5].[C:1]([N+:2]([C-:3]([H:10])[H:11])=[C:6]([H:12])[H:13])([H:7])([H:8])[H:9]"
C       -1.59530502      -0.16040539       0.11679452
N       -0.28550553      -0.03940860      -0.50395652
C        0.38020069       1.17191234      -0.33879591
C        1.67095268       0.18973006       0.90355054
O        2.79070381       0.30357041       1.16290973
C        0.61163773      -1.08177909      -0.28960197
H       -2.03856147      -1.11090229      -0.17595149
H       -1.51732827      -0.11951427       1.21019464
H       -2.22686038       0.65643296      -0.22888270
H        0.91797118       1.55763294      -1.19913236
H       -0.16400455       1.94836585       0.19539895
H        0.23587883      -1.92805540       0.28221802
H        1.22022027      -1.38757951      -1.13474543
13
Frame=16 idx=000709 GeodesicLength=0.7620571009945306 rxn_smarts="[C:1]([N:2]1[C:3]([H:10])([H:11])[C:4](=[O:5])[C:6]1([H:12])[H:13])([H:7])([H:8])[H:9]>>[C-:4]#[O+:5].[C:1]([N+:2]([C-:3]([H:10])[H:11])=[C:6]([H:12])[H:13])([H:7])([H:8])[H:9]"
C       -1.60336117      -0.16157861       0.09653025
N       -0.28259121      -0.03932773      -0.49941428
C        0.38342420       1.17170722      -0.31770602
C        1.68639284       0.19099824       0.90937966
O        2.82341915       0.30799478       1.08351151
C        0.61400874      -1.08121727      -0.26903787
H       -2.04025133      -1.11201409      -0.20599414
H       -1.54696065      -0.12296111       1.19140699
H       -2.22765193       0.65680386      -0.25876538
H        0.90354074       1.57997620      -1.17896966
H       -0.15802740       1.93477035       0.23883033
H        0.23781373      -1.91286967       0.32415910
H        1.21024430      -1.41228215      -1.11393047
