14
Frame=0 idx=005584 GeodesicLength=0.0 rxn_smarts="[C:1]1([H:7])([H:8])[C@:2]2([H:9])[C:3]([H:10])([H:11])[C:4]([H:12])([H:13])[C@@:5]1([H:14])[O:6]2>>[C:1]([C:2](=[C:3]([H:10])[H:11])[H:9])([C:5]([C:4]([H:12])([H:13])[H:14])=[O:6])([H:7])[H:8]"
C        1.04063629       0.52140739      -0.50838513
C        0.02392676       1.22924044       0.35588118
C       -1.28162402       0.93079839       0.16805479
C       -0.57886304      -1.19885909      -0.08009617
C        0.84489051      -0.85210987       0.16144710
O        1.27919393      -0.83370547       1.37790017
H        0.77359027       0.57062659      -1.56973731
H        2.05841176       0.87116214      -0.35926137
H        0.36139853       1.81074556       1.20429616
H       -2.03636771       1.21622519       0.88991198
H       -1.64945688       0.64794481      -0.81474396
H       -1.11465028      -1.73763828       0.69913939
H       -0.90701176      -1.38187228      -1.10156110
H        1.18592567      -1.79396556      -0.42284569
14
Frame=1 idx=005584 GeodesicLength=0.08329785679032764 rxn_smarts="[C:1]1([H:7])([H:8])[C@:2]2([H:9])[C:3]([H:10])([H:11])[C:4]([H:12])([H:13])[C@@:5]1([H:14])[O:6]2>>[C:1]([C:2](=[C:3]([H:10])[H:11])[H:9])([C:5]([C:4]([H:12])([H:13])[H:14])=[O:6])([H:7])[H:8]"
C        1.04325406       0.52318395      -0.51092346
C        0.03006533       1.22197272       0.36564462
C       -1.27866477       0.92193607       0.17135214
C       -0.57154483      -1.20872142      -0.08398514
C        0.84925477      -0.84771282       0.16249528
O        1.26314897      -0.79991325       1.38658128
H        0.77099588       0.57116871      -1.57057762
H        2.06106654       0.87386065      -0.36368505
H        0.36416517       1.82328572       1.20137530
H       -2.03284921       1.20501080       0.89494022
H       -1.64732993       0.67106509      -0.81978352
H       -1.10001970      -1.76029956       0.69114502
H       -0.90793510      -1.37674290      -1.10508134
H        1.15639281      -1.81809377      -0.41949774
14
Frame=2 idx=005584 GeodesicLength=0.16656587642738596 rxn_smarts="[C:1]1([H:7])([H:8])[C@:2]2([H:9])[C:3]([H:10])([H:11])[C:4]([H:12])([H:13])[C@@:5]1([H:14])[O:6]2>>[C:1]([C:2](=[C:3]([H:10])[H:11])[H:9])([C:5]([C:4]([H:12])([H:13])[H:14])=[O:6])([H:7])[H:8]"
C        1.04582518       0.52483499      -0.51316071
C        0.03606855       1.21471073       0.37524871
C       -1.27580684       0.91313816       0.17398905
C       -0.56423502      -1.21853453      -0.08729291
C        0.85380088      -0.84379073       0.16339736
O        1.24716891      -0.76724294       1.39422044
H        0.76864613       0.57153568      -1.57116336
H        2.06361130       0.87652010      -0.36757683
H        0.36627308       1.83516739       1.19835483
H       -2.02955005       1.19400030       0.89913029
H       -1.64499115       0.69506246      -0.82468550
H       -1.08493450      -1.78250506       0.68402730
H       -0.90936297      -1.37199549      -1.10750012
H        1.12748649      -1.84090107      -0.41698855
14
Frame=3 idx=005584 GeodesicLength=0.24983627497605793 rxn_smarts="[C:1]1([H:7])([H:8])[C@:2]2([H:9])[C:3]([H:10])([H:11])[C:4]([H:12])([H:13])[C@@:5]1([H:14])[O:6]2>>[C:1]([C:2](=[C:3]([H:10])[H:11])[H:9])([C:5]([C:4]([H:12])([H:13])[H:14])=[O:6])([H:7])[H:8]"
C        1.04835285       0.52637484      -0.51512440
C        0.04192421       1.20751072       0.38467299
C       -1.27305822       0.90443357       0.17595973
C       -0.55694978      -1.22833292      -0.09003038
C        0.85848008      -0.84029611       0.16423516
O        1.23129891      -0.73569936       1.40093705
H        0.76653977       0.57170202      -1.57154885
H        2.06605315       0.87916265      -0.37097565
H        0.36773988       1.84641118       1.19527711
H       -2.02646335       1.18320168       0.90251737
H       -1.64245313       0.71994782      -0.82941722
H       -1.06946555      -1.80428129       0.67778049
H       -0.91125525      -1.36767084      -1.10887075
H        1.09925643      -1.86246397      -0.41541267
14
Frame=4 idx=005584 GeodesicLength=0.33309778497979736 rxn_smarts="[C:1]1([H:7])([H:8])[C@:2]2([H:9])[C:3]([H:10])([H:11])[C:4]([H:12])([H:13])[C@@:5]1([H:14])[O:6]2>>[C:1]([C:2](=[C:3]([H:10])[H:11])[H:9])([C:5]([C:4]([H:12])([H:13])[H:14])=[O:6])([H:7])[H:8]"
C        1.05082597       0.52779347      -0.51682914
C        0.04761728       1.20038875       0.39386929
C       -1.27042117       0.89582615       0.17725269
C       -0.54969739      -1.23811167      -0.09222478
C        0.86324627      -0.83715443       0.16507790
O        1.21556869      -0.70523396       1.40681222
H        0.76465516       0.57162872      -1.57173771
H        2.06838077       0.88176069      -0.37390794
H        0.36859864       1.85702717       1.19212320
H       -2.02355869       1.17253465       0.90514535
H       -1.63972522       0.74577835      -0.83391814
H       -1.05364063      -1.82564410       0.67233773
H       -0.91357866      -1.36374531      -1.10923181
H        1.07172897      -1.88284849      -0.41476885
14
Frame=5 idx=005584 GeodesicLength=0.4163664831851393 rxn_smarts="[C:1]1([H:7])([H:8])[C@:2]2([H:9])[C:3]([H:10])([H:11])[C:4]([H:12])([H:13])[C@@:5]1([H:14])[O:6]2>>[C:1]([C:2](=[C:3]([H:10])[H:11])[H:9])([C:5]([C:4]([H:12])([H:13])[H:14])=[O:6])([H:7])[H:8]"
C        1.05325674       0.52909284      -0.51829869
C        0.05314011       1.19338347       0.40281026
C       -1.26790269       0.88733024       0.17787002
C       -0.54249257      -1.24789018      -0.09390784
C        0.86805347      -0.83431085       0.16596802
O        1.19998448      -0.67577245       1.41192917
H        0.76300461       0.57129120      -1.57176143
H        2.07061649       0.88430765      -0.37640502
H        0.36888360       1.86707648       1.18888299
H       -2.02082008       1.16191843       0.90708688
H       -1.63681311       0.77259260      -0.83812492
H       -1.03750629      -1.84665069       0.66763866
H       -0.91629926      -1.36022494      -1.10864032
H        1.04489449      -1.90214379      -0.41504780
14
Frame=6 idx=005584 GeodesicLength=0.49962987429242134 rxn_smarts="[C:1]1([H:7])([H:8])[C@:2]2([H:9])[C:3]([H:10])([H:11])[C:4]([H:12])([H:13])[C@@:5]1([H:14])[O:6]2>>[C:1]([C:2](=[C:3]([H:10])[H:11])[H:9])([C:5]([C:4]([H:12])([H:13])[H:14])=[O:6])([H:7])[H:8]"
C        1.05564698       0.53028334      -0.51955899
C        0.05848469       1.18651761       0.41147097
C       -1.26550548       0.87895218       0.17779617
C       -0.53533679      -1.25767573      -0.09510033
C        0.87287609      -0.83170844       0.16695140
O        1.18456685      -0.64728835       1.41637105
H        0.76157855       0.57067144      -1.57164714
H        2.07276589       0.88681491      -0.37850353
H        0.36861443       1.87654337       1.18559211
H       -2.01823936       1.15133570       0.90835036
H       -1.63372806       0.80039566      -0.84197592
H       -1.02110166      -1.86728561       0.66366425
H       -0.91939354      -1.35712408      -1.10713309
H        1.01877138      -1.92043199      -0.41627732
14
Frame=7 idx=005584 GeodesicLength=0.5829352264750457 rxn_smarts="[C:1]1([H:7])([H:8])[C@:2]2([H:9])[C:3]([H:10])([H:11])[C:4]([H:12])([H:13])[C@@:5]1([H:14])[O:6]2>>[C:1]([C:2](=[C:3]([H:10])[H:11])[H:9])([C:5]([C:4]([H:12])([H:13])[H:14])=[O:6])([H:7])[H:8]"
C        1.05799333       0.53137005      -0.52062663
C        0.06364438       1.17981831       0.41982678
C       -1.26322621       0.87070492       0.17702422
C       -0.52821480      -1.26747194      -0.09582515
C        0.87766949      -0.82930660       0.16804750
O        1.16928750      -0.61971510       1.42020635
H        0.76036710       0.56976181      -1.57140903
H        2.07482390       0.88927464      -0.38022899
H        0.36781004       1.88548443       1.18222792
H       -2.01578277       1.14070116       0.90897966
H       -1.63044865       0.82922286      -0.84540370
H       -1.00441358      -1.88759183       0.66035054
H       -0.92280798      -1.35441985      -1.10472962
H        0.99329826      -1.93783284      -0.41843986
14
Frame=8 idx=005584 GeodesicLength=0.6662400975472951 rxn_smarts="[C:1]1([H:7])([H:8])[C@:2]2([H:9])[C:3]([H:10])([H:11])[C:4]([H:12])([H:13])[C@@:5]1([H:14])[O:6]2>>[C:1]([C:2](=[C:3]([H:10])[H:11])[H:9])([C:5]([C:4]([H:12])([H:13])[H:14])=[O:6])([H:7])[H:8]"
C        1.06030403       0.53235974      -0.52152840
C        0.06861241       1.17330630       0.42785855
C       -1.26106155       0.86259580       0.17553627
C       -0.52113264      -1.27729088      -0.09611853
C        0.88243218      -0.82705404       0.16929225
O        1.15417037      -0.59300521       1.42350093
H        0.75937095       0.56855679      -1.57107969
H        2.07680189       0.89169109      -0.38160517
H        0.36650607       1.89390146       1.17881835
H       -2.01344232       1.12997846       0.90898968
H       -1.62701535       0.85908216      -0.84832747
H       -0.98749565      -1.90755549       0.65767728
H       -0.92652989      -1.35214323      -1.10150408
H        0.96847948      -1.95442296      -0.42150996
14
Frame=9 idx=005584 GeodesicLength=0.7495246305617592 rxn_smarts="[C:1]1([H:7])([H:8])[C@:2]2([H:9])[C:3]([H:10])([H:11])[C:4]([H:12])([H:13])[C@@:5]1([H:14])[O:6]2>>[C:1]([C:2](=[C:3]([H:10])[H:11])[H:9])([C:5]([C:4]([H:12])([H:13])[H:14])=[O:6])([H:7])[H:8]"
C        1.06258209       0.53325410      -0.52227917
C        0.07338260       1.16698143       0.43554317
C       -1.25901265       0.85463097       0.17331086
C       -0.51407526      -1.28712505      -0.09600334
C        0.88714609      -0.82490822       0.17068305
O        1.13921015      -0.56710719       1.42628948
H        0.75858451       0.56704776      -1.57066088
H        2.07870525       0.89406119      -0.38265115
H        0.36471790       1.90179448       1.17538637
H       -2.01120842       1.11913829       0.90837982
H       -1.62342726       0.88994682      -0.85066241
H       -0.97035590      -1.92714451       0.65560913
H       -0.93052319      -1.35029129      -1.09746765
H        0.94427409      -1.97027878      -0.42547729
14
Frame=10 idx=005584 GeodesicLength=0.8328432625275163 rxn_smarts="[C:1]1([H:7])([H:8])[C@:2]2([H:9])[C:3]([H:10])([H:11])[C:4]([H:12])([H:13])[C@@:5]1([H:14])[O:6]2>>[C:1]([C:2](=[C:3]([H:10])[H:11])[H:9])([C:5]([C:4]([H:12])([H:13])[H:14])=[O:6])([H:7])[H:8]"
C        1.06484269       0.53407497      -0.52290592
C        0.07796319       1.16088762       0.44287883
C       -1.25706931       0.84682816       0.17034173
C       -0.50704160      -1.29699618      -0.09551138
C        0.89178940      -0.82284655       0.17224040
O        1.12437028      -0.54195604       1.42865626
H        0.75801727       0.56525110      -1.57019892
H        2.08055550       0.89640596      -0.38339539
H        0.36247871       1.90924918       1.17191526
H       -2.00905506       1.10809204       0.90719455
H       -1.61968701       0.92183771      -0.85233768
H       -0.95300759      -1.94643104       0.65410486
H       -0.93476653      -1.34887322      -1.09268131
H        0.92061006      -1.98552370      -0.43030129
14
Frame=11 idx=005584 GeodesicLength=0.9161665917063946 rxn_smarts="[C:1]1([H:7])([H:8])[C@:2]2([H:9])[C:3]([H:10])([H:11])[C:4]([H:12])([H:13])[C@@:5]1([H:14])[O:6]2>>[C:1]([C:2](=[C:3]([H:10])[H:11])[H:9])([C:5]([C:4]([H:12])([H:13])[H:14])=[O:6])([H:7])[H:8]"
C        1.06709095       0.53482618      -0.52342233
C        0.08234483       1.15502125       0.44984388
C       -1.25522500       0.83919252       0.16659716
C       -0.50002568      -1.30691086      -0.09467029
C        0.89636004      -0.82083602       0.17397414
O        1.10964578      -0.51750408       1.43063551
H        0.75766806       0.56317145      -1.56970416
H        2.08236130       0.89872855      -0.38384230
H        0.35982389       1.91629749       1.16842230
H       -2.00696502       1.09680124       0.90543392
H       -1.61581381       0.95474209      -0.85326501
H       -0.93547112      -1.96539615       0.65314131
H       -0.93924589      -1.34791164      -1.08718194
H        0.89745169      -2.00022201      -0.43596218
14
Frame=12 idx=005584 GeodesicLength=0.9994585140730411 rxn_smarts="[C:1]1([H:7])([H:8])[C@:2]2([H:9])[C:3]([H:10])([H:11])[C:4]([H:12])([H:13])[C@@:5]1([H:14])[O:6]2>>[C:1]([C:2](=[C:3]([H:10])[H:11])[H:9])([C:5]([C:4]([H:12])([H:13])[H:14])=[O:6])([H:7])[H:8]"
C        1.06931433       0.53548150      -0.52383390
C        0.08651309       1.14937642       0.45642253
C       -1.25346892       0.83174141       0.16207070
C       -0.49297937      -1.31680396      -0.09349919
C        0.90084639      -0.81884016       0.17586400
O        1.09499567      -0.49370194       1.43220502
H        0.75752952       0.56077241      -1.56913554
H        2.08408486       0.90096561      -0.38401981
H        0.35670824       1.92289055       1.16486371
H       -2.00492701       1.08521392       0.90307356
H       -1.61178169       0.98863991      -0.85330503
H       -0.91769526      -1.98395823       0.65265434
H       -0.94387559      -1.34733614      -1.08094636
H        0.87473573      -2.01444130      -0.44241403
14
Frame=13 idx=005584 GeodesicLength=1.0827578017009598 rxn_smarts="[C:1]1([H:7])([H:8])[C@:2]2([H:9])[C:3]([H:10])([H:11])[C:4]([H:12])([H:13])[C@@:5]1([H:14])[O:6]2>>[C:1]([C:2](=[C:3]([H:10])[H:11])[H:9])([C:5]([C:4]([H:12])([H:13])[H:14])=[O:6])([H:7])[H:8]"
C        1.07154361       0.53608623      -0.52416744
C        0.09049076       1.14398919       0.46261778
C       -1.25179040       0.82448691       0.15673097
C       -0.48592753      -1.32672845      -0.09202960
C        0.90524668      -0.81684233       0.17792777
O        1.08041929      -0.47050173       1.43345353
H        0.75761869       0.55810618      -1.56856387
H        2.08578328       0.90318903      -0.38393635
H        0.35320680       1.92912223       1.16128104
H       -2.00292410       1.07328085       0.90012773
H       -1.60762546       1.02348835      -0.85240759
H       -0.89973937      -2.00219388       0.65264777
H       -0.94869197      -1.34720898      -1.07405803
H        0.85238972      -2.02827358      -0.44962372
14
Frame=14 idx=005584 GeodesicLength=1.1660716671640898 rxn_smarts="[C:1]1([H:7])([H:8])[C@:2]2([H:9])[C:3]([H:10])([H:11])[C:4]([H:12])([H:13])[C@@:5]1([H:14])[O:6]2>>[C:1]([C:2](=[C:3]([H:10])[H:11])[H:9])([C:5]([C:4]([H:12])([H:13])[H:14])=[O:6])([H:7])[H:8]"
C        1.07378896       0.53664719      -0.52443597
C        0.09427847       1.13886989       0.46841875
C       -1.25017353       0.81744551       0.15055710
C       -0.47885744      -1.33667598      -0.09028825
C        0.90955522      -0.81481931       0.18016546
O        1.06588595      -0.44785443       1.43440772
H        0.75794749       0.55518091      -1.56799894
H        2.08746531       0.90539922      -0.38360053
H        0.34934143       1.93503451       1.15767024
H       -2.00093432       1.06095333       0.89659249
H       -1.60336035       1.05923164      -0.85047039
H       -0.88160682      -2.02009446       0.65308614
H       -0.95366978      -1.34752586      -1.06654614
H        0.83033941      -2.04179218      -0.45755769
14
Frame=15 idx=005584 GeodesicLength=1.2493889862163763 rxn_smarts="[C:1]1([H:7])([H:8])[C@:2]2([H:9])[C:3]([H:10])([H:11])[C:4]([H:12])([H:13])[C@@:5]1([H:14])[O:6]2>>[C:1]([C:2](=[C:3]([H:10])[H:11])[H:9])([C:5]([C:4]([H:12])([H:13])[H:14])=[O:6])([H:7])[H:8]"
C        1.07605924       0.53716656      -0.52464721
C        0.09787811       1.13402463       0.47381776
C       -1.24860240       0.81063687       0.14352929
C       -0.47175345      -1.34662911      -0.08830037
C        0.91376988      -0.81274982       0.18257195
O        1.05136873      -0.42571738       1.43507992
H        0.75852651       0.55200226      -1.56744035
H        2.08913711       0.90758704      -0.38301778
H        0.34512313       1.94065345       1.15401544
H       -1.99893903       1.04819000       0.89245117
H       -1.59900023       1.09580063      -0.84738675
H       -0.86329127      -2.03764381       0.65393248
H       -0.95878880      -1.34826556      -1.05842890
H        0.80851247      -2.05505576      -0.46617666
14
Frame=16 idx=005584 GeodesicLength=1.3327121526330785 rxn_smarts="[C:1]1([H:7])([H:8])[C@:2]2([H:9])[C:3]([H:10])([H:11])[C:4]([H:12])([H:13])[C@@:5]1([H:14])[O:6]2>>[C:1]([C:2](=[C:3]([H:10])[H:11])[H:9])([C:5]([C:4]([H:12])([H:13])[H:14])=[O:6])([H:7])[H:8]"
C        1.07836853       0.53765387      -0.52481035
C        0.10129624       1.12946465       0.47880930
C       -1.24705921       0.80408035       0.13562813
C       -0.46460611      -1.35657665      -0.08609129
C        0.91788901      -0.81061366       0.18514471
O        1.03684186      -0.40404866       1.43548908
H        0.75937257       0.54858357      -1.56689684
H        2.09081373       0.90975602      -0.38219227
H        0.34057228       1.94601458       1.15030784
H       -1.99691828       1.03494867       0.88768747
H       -1.59456412       1.13310825      -0.84305850
H       -0.84479590      -2.05483581       0.65515540
H       -0.96403950      -1.34941204      -1.04972986
H        0.78682889      -2.06812314      -0.47544283
