10
Frame=0 idx=007647 GeodesicLength=0.0 rxn_smarts="[N:1]#[C:2][c:3]1[c:4]([H:8])[o:5][c:6]([H:9])[c:7]1[H:10]>>[N:1]#[C:2][C:3]1=[C:4]([H:8])[C@@:7]1([C:6](=[O:5])[H:9])[H:10]"
N        3.06251306      -1.25407431       0.08503120
C        2.09569037      -0.63736924       0.05734455
C        0.86053248       0.09980402       0.06976891
C        0.77270148       1.45850314       0.05178695
O       -1.99916076       1.07271426       0.43889900
C       -1.66447002      -0.02919964       0.07201639
C       -0.34026057      -0.46824216      -0.35204129
H       -0.09289680       1.95606294       0.50250612
H       -2.39246334      -0.86235562       0.07829084
H       -0.30218590      -1.33584338      -1.00360268
10
Frame=1 idx=007647 GeodesicLength=0.09830333619658903 rxn_smarts="[N:1]#[C:2][c:3]1[c:4]([H:8])[o:5][c:6]([H:9])[c:7]1[H:10]>>[N:1]#[C:2][C:3]1=[C:4]([H:8])[C@@:7]1([C:6](=[O:5])[H:9])[H:10]"
N        3.06734490      -1.25064342       0.09452327
C        2.09498709      -0.64185783       0.08835961
C        0.85484395       0.08314741       0.09427008
C        0.73981273       1.43374278       0.04113225
O       -1.95085994       1.04350799       0.53684316
C       -1.65739231      -0.04172173       0.08280900
C       -0.34248746      -0.46274996      -0.37764671
H       -0.09458217       2.01765492       0.43352163
H       -2.40863928      -0.85095860       0.03498310
H       -0.30302752      -1.33012156      -1.02879539
10
Frame=2 idx=007647 GeodesicLength=0.19712965142740058 rxn_smarts="[N:1]#[C:2][c:3]1[c:4]([H:8])[o:5][c:6]([H:9])[c:7]1[H:10]>>[N:1]#[C:2][C:3]1=[C:4]([H:8])[C@@:7]1([C:6](=[O:5])[H:9])[H:10]"
N        3.07392004      -1.24565284       0.11419495
C        2.09685436      -0.64425319       0.10523373
C        0.85048118       0.06597010       0.11186185
C        0.70525323       1.40810016       0.04704191
O       -1.89882166       1.01212269       0.62547972
C       -1.64985166      -0.05457603       0.09647505
C       -0.34516276      -0.45946623      -0.39865588
H       -0.09922316       2.07119382       0.35747933
H       -2.42643172      -0.83308871      -0.00124731
H       -0.30701783      -1.32034977      -1.05786335
10
Frame=3 idx=007647 GeodesicLength=0.29537387322348696 rxn_smarts="[N:1]#[C:2][c:3]1[c:4]([H:8])[o:5][c:6]([H:9])[c:7]1[H:10]>>[N:1]#[C:2][C:3]1=[C:4]([H:8])[C@@:7]1([C:6](=[O:5])[H:9])[H:10]"
N        3.08206986      -1.24058691       0.12280791
C        2.10081162      -0.64581806       0.11844029
C        0.84717374       0.04728904       0.13268651
C        0.66994782       1.38121756       0.07803737
O       -1.85318346       0.98888669       0.68487188
C       -1.64140915      -0.07030478       0.11660949
C       -0.34719792      -0.45612054      -0.41348904
H       -0.10463898       2.11475715       0.27410215
H       -2.44256828      -0.81419696      -0.02662245
H       -0.31100525      -1.30512318      -1.08744412
10
Frame=4 idx=007647 GeodesicLength=0.39400117990928507 rxn_smarts="[N:1]#[C:2][c:3]1[c:4]([H:8])[o:5][c:6]([H:9])[c:7]1[H:10]>>[N:1]#[C:2][C:3]1=[C:4]([H:8])[C@@:7]1([C:6](=[O:5])[H:9])[H:10]"
N        3.09280243      -1.23056530       0.13117638
C        2.10591373      -0.64499581       0.12624512
C        0.84404076       0.02850000       0.15091740
C        0.63184834       1.35366828       0.11639614
O       -1.81259442       0.97136724       0.72743612
C       -1.63385204      -0.08807257       0.13944020
C       -0.35035384      -0.45425628      -0.42409167
H       -0.10161840       2.14555834       0.19533066
H       -2.45923285      -0.79319699      -0.04641282
H       -0.31695371      -1.28800690      -1.11643755
10
Frame=5 idx=007647 GeodesicLength=0.4928638352986615 rxn_smarts="[N:1]#[C:2][c:3]1[c:4]([H:8])[o:5][c:6]([H:9])[c:7]1[H:10]>>[N:1]#[C:2][C:3]1=[C:4]([H:8])[C@@:7]1([C:6](=[O:5])[H:9])[H:10]"
N        3.10415785      -1.21646417       0.13629703
C        2.11092675      -0.64151475       0.13380553
C        0.84044328       0.01096393       0.16746179
C        0.59166381       1.32632283       0.15313439
O       -1.77810599       0.95892044       0.75544201
C       -1.62761120      -0.10743699       0.16282923
C       -0.35451287      -0.45388774      -0.43119910
H       -0.08809964       2.16570900       0.12722303
H       -2.47517892      -0.77209844      -0.06171941
H       -0.32368306      -1.27051411      -1.14327449
10
Frame=6 idx=007647 GeodesicLength=0.5924080909240939 rxn_smarts="[N:1]#[C:2][c:3]1[c:4]([H:8])[o:5][c:6]([H:9])[c:7]1[H:10]>>[N:1]#[C:2][C:3]1=[C:4]([H:8])[C@@:7]1([C:6](=[O:5])[H:9])[H:10]"
N        3.11587943      -1.19751458       0.13904831
C        2.11417976      -0.63727553       0.14474621
C        0.83565188      -0.00521414       0.18180103
C        0.55072386       1.29947621       0.18249898
O       -1.74786882       0.94918869       0.77433631
C       -1.62327459      -0.12631757       0.18277188
C       -0.35987144      -0.45467797      -0.43739455
H       -0.06422395       2.17914015       0.07201127
H       -2.48995657      -0.75311188      -0.07104802
H       -0.33123956      -1.25369337      -1.16877143
10
Frame=7 idx=007647 GeodesicLength=0.6922311178334624 rxn_smarts="[N:1]#[C:2][c:3]1[c:4]([H:8])[o:5][c:6]([H:9])[c:7]1[H:10]>>[N:1]#[C:2][C:3]1=[C:4]([H:8])[C@@:7]1([C:6](=[O:5])[H:9])[H:10]"
N        3.12653746      -1.17618092       0.14293446
C        2.11589314      -0.63221148       0.15797925
C        0.83011957      -0.01928106       0.19264214
C        0.50985732       1.27406290       0.20224433
O       -1.71989914       0.93969363       0.78953619
C       -1.62017305      -0.14457658       0.19955797
C       -0.36617195      -0.45613029      -0.44394698
H       -0.03302876       2.18872409       0.02833004
H       -2.50360055      -0.73643757      -0.07569532
H       -0.33953404      -1.23766271      -1.19358208
10
Frame=8 idx=007647 GeodesicLength=0.7923605022003497 rxn_smarts="[N:1]#[C:2][c:3]1[c:4]([H:8])[o:5][c:6]([H:9])[c:7]1[H:10]>>[N:1]#[C:2][C:3]1=[C:4]([H:8])[C@@:7]1([C:6](=[O:5])[H:9])[H:10]"
N        3.13605210      -1.15295374       0.14939947
C        2.11612759      -0.62667532       0.17269921
C        0.82402058      -0.03132121       0.19962741
C        0.46949405       1.25014479       0.21272895
O       -1.69313037       0.92949991       0.80320941
C       -1.61789882      -0.16228596       0.21359470
C       -0.37336596      -0.45801901      -0.45157525
H        0.00398595       2.19623430      -0.00537387
H       -2.51647940      -0.72194177      -0.07628715
H       -0.34880573      -1.22268197      -1.21802287
10
Frame=9 idx=007647 GeodesicLength=0.8926691218425806 rxn_smarts="[N:1]#[C:2][c:3]1[c:4]([H:8])[o:5][c:6]([H:9])[c:7]1[H:10]>>[N:1]#[C:2][C:3]1=[C:4]([H:8])[C@@:7]1([C:6](=[O:5])[H:9])[H:10]"
N        3.14418235      -1.12842452       0.15792675
C        2.11498083      -0.62068624       0.18874286
C        0.81744561      -0.04138404       0.20339219
C        0.42973252       1.22776891       0.21581840
O       -1.66745728       0.91861937       0.81570421
C       -1.61621309      -0.17951778       0.22533012
C       -0.38129498      -0.46003263      -0.46032081
H        0.04614245       2.20208443      -0.03121147
H       -2.52862937      -0.70995178      -0.07313799
H       -0.35888904      -1.20847571      -1.24224425
10
Frame=10 idx=007647 GeodesicLength=0.9931228835262893 rxn_smarts="[N:1]#[C:2][c:3]1[c:4]([H:8])[o:5][c:6]([H:9])[c:7]1[H:10]>>[N:1]#[C:2][C:3]1=[C:4]([H:8])[C@@:7]1([C:6](=[O:5])[H:9])[H:10]"
N        3.15094742      -1.10281007       0.16964960
C        2.11267449      -0.61394513       0.20517233
C        0.81060438      -0.04935766       0.20358130
C        0.39045297       1.20698872       0.21174207
O       -1.64212571       0.90643828       0.82837107
C       -1.61480488      -0.19665974       0.23559448
C       -0.38997873      -0.46233706      -0.47013725
H        0.09267163       2.20626769      -0.05027139
H       -2.54037753      -0.69948781      -0.06728200
H       -0.37006405      -1.19509722      -1.26642021
10
Frame=11 idx=007647 GeodesicLength=1.0936585511748576 rxn_smarts="[N:1]#[C:2][c:3]1[c:4]([H:8])[o:5][c:6]([H:9])[c:7]1[H:10]>>[N:1]#[C:2][C:3]1=[C:4]([H:8])[C@@:7]1([C:6](=[O:5])[H:9])[H:10]"
N        3.15618885      -1.07658831       0.18620131
C        2.10934536      -0.60603444       0.22104082
C        0.80370749      -0.05493519       0.19932562
C        0.35147636       1.18797844       0.20016834
O       -1.61624657       0.89241984       0.84223784
C       -1.61332903      -0.21394488       0.24483996
C       -0.39947934      -0.46497245      -0.48134556
H        0.14283408       2.20881568      -0.06270900
H       -2.55178694      -0.68998776      -0.05893873
H       -0.38271026      -1.18275095      -1.29082060
10
Frame=12 idx=007647 GeodesicLength=1.1944544033353024 rxn_smarts="[N:1]#[C:2][c:3]1[c:4]([H:8])[o:5][c:6]([H:9])[c:7]1[H:10]>>[N:1]#[C:2][C:3]1=[C:4]([H:8])[C@@:7]1([C:6](=[O:5])[H:9])[H:10]"
N        3.16029400      -1.04812025       0.20483110
C        2.10462298      -0.59726772       0.23775355
C        0.79648133      -0.05844034       0.19187250
C        0.31249395       1.17041899       0.18254391
O       -1.59019605       0.87722110       0.85621139
C       -1.61202572      -0.23130335       0.25313638
C       -0.40980318      -0.46822879      -0.49332685
H        0.19789621       2.20841113      -0.06927520
H       -2.56310750      -0.68110470      -0.04871445
H       -0.39665603      -1.17158606      -1.31503232
10
Frame=13 idx=007647 GeodesicLength=1.2956296507343663 rxn_smarts="[N:1]#[C:2][c:3]1[c:4]([H:8])[o:5][c:6]([H:9])[c:7]1[H:10]>>[N:1]#[C:2][C:3]1=[C:4]([H:8])[C@@:7]1([C:6](=[O:5])[H:9])[H:10]"
N        3.16291450      -1.01706537       0.22532382
C        2.09828122      -0.58725358       0.25542273
C        0.78887051      -0.05956744       0.18076870
C        0.27321429       1.15450907       0.15817344
O       -1.56360411       0.86121284       0.86971680
C       -1.61078612      -0.24857212       0.26037431
C       -0.42099952      -0.47218748      -0.50636815
H        0.25836507       2.20441756      -0.06841062
H       -2.57427063      -0.67290889      -0.03633996
H       -0.41198522      -1.16258459      -1.33866106
10
Frame=14 idx=007647 GeodesicLength=1.3971127178256502 rxn_smarts="[N:1]#[C:2][c:3]1[c:4]([H:8])[o:5][c:6]([H:9])[c:7]1[H:10]>>[N:1]#[C:2][C:3]1=[C:4]([H:8])[C@@:7]1([C:6](=[O:5])[H:9])[H:10]"
N        3.16369687      -0.98353669       0.24943031
C        2.09013004      -0.57574834       0.27353642
C        0.78116047      -0.05775610       0.16449677
C        0.23359238       1.14067601       0.12584384
O       -1.53513139       0.84429551       0.88323937
C       -1.60909319      -0.26564024       0.26680751
C       -0.43310257      -0.47675097      -0.52108239
H        0.32290955       2.19547285      -0.05890444
H       -2.58503013      -0.66483926      -0.02131839
H       -0.42913203      -1.15617276      -1.36204901
10
Frame=15 idx=007647 GeodesicLength=1.4989214564378657 rxn_smarts="[N:1]#[C:2][c:3]1[c:4]([H:8])[o:5][c:6]([H:9])[c:7]1[H:10]>>[N:1]#[C:2][C:3]1=[C:4]([H:8])[C@@:7]1([C:6](=[O:5])[H:9])[H:10]"
N        3.16235082      -0.94793869       0.27907513
C        2.08000607      -0.56305077       0.29170259
C        0.77401340      -0.05266157       0.14144422
C        0.19417247       1.12918406       0.08594634
O       -1.50262214       0.82582198       0.89811882
C       -1.60602039      -0.28227478       0.27271595
C       -0.44595150      -0.48107707      -0.53830641
H        0.38734717       2.17955464      -0.04155252
H       -2.59486542      -0.65516239      -0.00372227
H       -0.44843048      -1.15239541      -1.38542185
10
Frame=16 idx=007647 GeodesicLength=1.6012176653440968 rxn_smarts="[N:1]#[C:2][c:3]1[c:4]([H:8])[o:5][c:6]([H:9])[c:7]1[H:10]>>[N:1]#[C:2][C:3]1=[C:4]([H:8])[C@@:7]1([C:6](=[O:5])[H:9])[H:10]"
N        3.15853210      -0.91284364       0.31460091
C        2.06841884      -0.54991944       0.30985656
C        0.76813563      -0.04513409       0.11379815
C        0.15618816       1.11963057       0.04483714
O       -1.46560706       0.80531952       0.91535451
C       -1.60078111      -0.29837581       0.27854031
C       -0.45867884      -0.48346652      -0.55749929
H        0.44554277       2.15496180      -0.02513406
H       -2.60260426      -0.64392542       0.01651317
H       -0.46914622      -1.14624697      -1.41086741
