19
Frame=0 idx=011361 GeodesicLength=0.0 rxn_smarts="[C:1]([C:2]([C:3]([C:4]([C:5]([H:16])([H:17])[H:18])([H:14])[H:15])([C:6](=[O:7])[H:19])[H:13])([H:11])[H:12])([H:8])([H:9])[H:10]>>[C:1](=[C:2]([C@@:3]([C:4]([C:5]([H:16])([H:17])[H:18])([H:14])[H:15])([C:6](=[O:7])[H:19])[H:13])[H:12])([H:9])[H:10].[H:8][H:11]"
C       -2.55571019      -0.36748780       0.20630117
C       -1.25347198      -0.65303566      -0.31287110
C       -0.07123705       0.15323179       0.18489726
C        1.27980188      -0.30787500      -0.37647723
C        2.47066311       0.33922383       0.31680234
C       -0.32630121       1.58915264      -0.23413920
O       -0.10723210       2.54117415       0.45940058
H       -1.67441919      -1.60216755       0.39198457
H       -2.65099852       0.07572611       1.18682301
H       -3.43647352      -0.65356055      -0.34642023
H       -0.69280559      -2.04268978       0.11492670
H       -1.21600563      -0.93923797      -1.36103883
H       -0.05435050       0.13525419       1.27699898
H        1.31041561      -0.09649532      -1.45175865
H        1.33421352      -1.39509689      -0.27568470
H        3.40699596      -0.01255229      -0.11826281
H        2.48247631       0.09200172       1.38043323
H        2.44700891       1.42703345       0.23325002
H       -0.69256983       1.71740088      -1.27516503
19
Frame=1 idx=011361 GeodesicLength=0.10941754906468207 rxn_smarts="[C:1]([C:2]([C:3]([C:4]([C:5]([H:16])([H:17])[H:18])([H:14])[H:15])([C:6](=[O:7])[H:19])[H:13])([H:11])[H:12])([H:8])([H:9])[H:10]>>[C:1](=[C:2]([C@@:3]([C:4]([C:5]([H:16])([H:17])[H:18])([H:14])[H:15])([C:6](=[O:7])[H:19])[H:13])[H:12])([H:9])[H:10].[H:8][H:11]"
C       -2.55146353      -0.37709808       0.21449488
C       -1.25100902      -0.65679114      -0.31130985
C       -0.07111924       0.15450420       0.18445733
C        1.28026665      -0.30776637      -0.37528934
C        2.47085801       0.34379162       0.31439422
C       -0.32372406       1.58984140      -0.23650128
O       -0.12313131       2.54248510       0.46184516
H       -1.68937439      -1.63643512       0.40809422
H       -2.64472716       0.06036104       1.19810062
H       -3.43159020      -0.61322898      -0.36283319
H       -0.70205951      -2.05823138       0.11226373
H       -1.21810633      -0.92347172      -1.36531312
H       -0.05452210       0.13749640       1.27669643
H        1.31007804      -0.10222202      -1.45170870
H        1.33661981      -1.39444739      -0.27002209
H        3.40758676      -0.00966479      -0.11846234
H        2.48284278       0.10243647       1.37939167
H        2.44646348       1.43117915       0.22509004
H       -0.67388869       1.71726163      -1.28338839
19
Frame=2 idx=011361 GeodesicLength=0.21823757955545353 rxn_smarts="[C:1]([C:2]([C:3]([C:4]([C:5]([H:16])([H:17])[H:18])([H:14])[H:15])([C:6](=[O:7])[H:19])[H:13])([H:11])[H:12])([H:8])([H:9])[H:10]>>[C:1](=[C:2]([C@@:3]([C:4]([C:5]([H:16])([H:17])[H:18])([H:14])[H:15])([C:6](=[O:7])[H:19])[H:13])[H:12])([H:9])[H:10].[H:8][H:11]"
C       -2.54715455      -0.38754110       0.22230674
C       -1.24841197      -0.66030410      -0.31053162
C       -0.07105343       0.15593676       0.18373069
C        1.28073650      -0.30758872      -0.37415394
C        2.47095640       0.34835355       0.31214112
C       -0.32119453       1.59070741      -0.23903393
O       -0.13924422       2.54382590       0.46384907
H       -1.70501694      -1.67164119       0.42454612
H       -2.63807441       0.04466572       1.20878857
H       -3.42529966      -0.57236512      -0.37693743
H       -0.71216279      -2.07365221       0.10960836
H       -1.22014359      -0.90750438      -1.36994054
H       -0.05497287       0.13979250       1.27610714
H        1.30996423      -0.10780198      -1.45166180
H        1.33890450      -1.39371390      -0.26439926
H        3.40814484      -0.00679140      -0.11834357
H        2.48291557       0.11284049       1.37846873
H        2.44586863       1.43529201       0.21711117
H       -0.65476171       1.71748977      -1.29165561
19
Frame=3 idx=011361 GeodesicLength=0.32672721032863766 rxn_smarts="[C:1]([C:2]([C:3]([C:4]([C:5]([H:16])([H:17])[H:18])([H:14])[H:15])([C:6](=[O:7])[H:19])[H:13])([H:11])[H:12])([H:8])([H:9])[H:10]>>[C:1](=[C:2]([C@@:3]([C:4]([C:5]([H:16])([H:17])[H:18])([H:14])[H:15])([C:6](=[O:7])[H:19])[H:13])[H:12])([H:9])[H:10].[H:8][H:11]"
C       -2.54276797      -0.39884173       0.22965935
C       -1.24567295      -0.66348967      -0.31063726
C       -0.07103092       0.15756993       0.18267972
C        1.28121947      -0.30732792      -0.37308559
C        2.47096900       0.35289604       0.31005626
C       -0.31867439       1.59179946      -0.24175813
O       -0.15552687       2.54523102       0.46540237
H       -1.72141586      -1.70781256       0.44153943
H       -2.63102493       0.02858013       1.21883977
H       -3.41767724      -0.53130692      -0.38855333
H       -0.72326067      -2.08887659       0.10700786
H       -1.22210899      -0.89125365      -1.37502833
H       -0.05571819       0.14216625       1.27519373
H        1.31010931      -0.11320927      -1.45163125
H        1.34104412      -1.39288516      -0.25883560
H        3.40868058      -0.00396138      -0.11787809
H        2.48268077       0.12319246       1.37767700
H        2.44526082       1.43936013       0.20933252
H       -0.63508507       1.71816944      -1.29998042
19
Frame=4 idx=011361 GeodesicLength=0.4351277250116268 rxn_smarts="[C:1]([C:2]([C:3]([C:4]([C:5]([H:16])([H:17])[H:18])([H:14])[H:15])([C:6](=[O:7])[H:19])[H:13])([H:11])[H:12])([H:8])([H:9])[H:10]>>[C:1](=[C:2]([C@@:3]([C:4]([C:5]([H:16])([H:17])[H:18])([H:14])[H:15])([C:6](=[O:7])[H:19])[H:13])[H:12])([H:9])[H:10].[H:8][H:11]"
C       -2.53827448      -0.41102162       0.23647465
C       -1.24278170      -0.66624605      -0.31173936
C       -0.07104035       0.15945203       0.18126244
C        1.28172282      -0.30696665      -0.37210419
C        2.47090872       0.35739698       0.30815373
C       -0.31611504       1.59318047      -0.24469292
O       -0.17191156       2.54674577       0.46650025
H       -1.73862981      -1.74496089       0.45933442
H       -2.62356709       0.01205937       1.22819170
H       -3.40883459      -0.49051081      -0.39752988
H       -0.73552780      -2.10380954       0.10451502
H       -1.22399179      -0.87461783      -1.38069292
H       -0.05677086       0.14464469       1.27391357
H        1.31054954      -0.11840592      -1.45163289
H        1.34300753      -1.39194881      -0.25336283
H        3.40920445      -0.00121595      -0.11703656
H        2.48212456       0.13345554       1.37702751
H        2.44468676       1.44336471       0.20177977
H       -0.61475933       1.71940451      -1.30836151
19
Frame=5 idx=011361 GeodesicLength=0.5438455295545245 rxn_smarts="[C:1]([C:2]([C:3]([C:4]([C:5]([H:16])([H:17])[H:18])([H:14])[H:15])([C:6](=[O:7])[H:19])[H:13])([H:11])[H:12])([H:8])([H:9])[H:10]>>[C:1](=[C:2]([C@@:3]([C:4]([C:5]([H:16])([H:17])[H:18])([H:14])[H:15])([C:6](=[O:7])[H:19])[H:13])[H:12])([H:9])[H:10].[H:8][H:11]"
C       -2.53361977      -0.42415115       0.24265481
C       -1.23974044      -0.66841185      -0.31396190
C       -0.07107319       0.16165777       0.17943130
C        1.28224586      -0.30648057      -0.37123640
C        2.47078711       0.36182609       0.30644164
C       -0.31345196       1.59493535      -0.24785606
O       -0.18831176       2.54843041       0.46714021
H       -1.75671502      -1.78316657       0.47825956
H       -2.61568769      -0.00500714       1.23676292
H       -3.39888332      -0.45049073      -0.40374587
H       -0.74918069      -2.11830540       0.10223934
H       -1.22579451      -0.85744913      -1.38705572
H       -0.05815089       0.14727943       1.27221704
H        1.31131914      -0.12335237      -1.45169060
H        1.34473776      -1.39088282      -0.24801829
H        3.40972168       0.00138404      -0.11579697
H        2.48122673       0.14358636       1.37652630
H        2.44420449       1.44727730       0.19447559
H       -0.59363353       1.72132100      -1.31678689
19
Frame=6 idx=011361 GeodesicLength=0.6529144416975343 rxn_smarts="[C:1]([C:2]([C:3]([C:4]([C:5]([H:16])([H:17])[H:18])([H:14])[H:15])([C:6](=[O:7])[H:19])[H:13])([H:11])[H:12])([H:8])([H:9])[H:10]>>[C:1](=[C:2]([C@@:3]([C:4]([C:5]([H:16])([H:17])[H:18])([H:14])[H:15])([C:6](=[O:7])[H:19])[H:13])[H:12])([H:9])[H:10].[H:8][H:11]"
C       -2.52875024      -0.43826673       0.24814179
C       -1.23652868      -0.66989360      -0.31740116
C       -0.07110714       0.16423279       0.17715218
C        1.28279921      -0.30584802      -0.37051111
C        2.47062587       0.36615787       0.30492457
C       -0.31063225       1.59712923      -0.25124238
O       -0.20464764       2.55033515       0.46734183
H       -1.77573495      -1.82243636       0.49862615
H       -2.60736670      -0.02258718       1.24447287
H       -3.38800246      -0.41181292      -0.40720475
H       -0.76443193      -2.13224913       0.10028879
H       -1.22750640      -0.83961689      -1.39422337
H       -0.05985032       0.15008477       1.27006825
H        1.31244618      -0.12799162      -1.45182670
H        1.34620771      -1.38967448      -0.24285940
H        3.41024503       0.00380021      -0.11415310
H        2.47999428       0.15352832       1.37617152
H        2.44386843       1.45107884       0.18745302
H       -0.57162799       1.72402974      -1.32521899
19
Frame=7 idx=011361 GeodesicLength=0.762408109166474 rxn_smarts="[C:1]([C:2]([C:3]([C:4]([C:5]([H:16])([H:17])[H:18])([H:14])[H:15])([C:6](=[O:7])[H:19])[H:13])([H:11])[H:12])([H:8])([H:9])[H:10]>>[C:1](=[C:2]([C@@:3]([C:4]([C:5]([H:16])([H:17])[H:18])([H:14])[H:15])([C:6](=[O:7])[H:19])[H:13])[H:12])([H:9])[H:10].[H:8][H:11]"
C       -2.52360348      -0.45343995       0.25287512
C       -1.23313711      -0.67055403      -0.32218530
C       -0.07112682       0.16724190       0.17437728
C        1.28338730      -0.30504263      -0.36996574
C        2.47044405       0.37035717       0.30360851
C       -0.30759116       1.59984557      -0.25485442
O       -0.22082626       2.55251865       0.46712504
H       -1.79572746      -1.86277542       0.52080028
H       -2.59858362      -0.04074384       1.25125345
H       -3.37635568      -0.37509882      -0.40792230
H       -0.78153533      -2.14547814       0.09882981
H       -1.22913857      -0.82094958      -1.40232607
H       -0.06187524       0.15309176       1.26741764
H        1.31396361      -0.13226227      -1.45207461
H        1.34736978      -1.38830359      -0.23795232
H        3.41078603       0.00597643      -0.11209397
H        2.47842105       0.16321259       1.37596358
H        2.44374086       1.45473977       0.18075105
H       -0.54861195       1.72766445      -1.33362703
19
Frame=8 idx=011361 GeodesicLength=0.8722930929008954 rxn_smarts="[C:1]([C:2]([C:3]([C:4]([C:5]([H:16])([H:17])[H:18])([H:14])[H:15])([C:6](=[O:7])[H:19])[H:13])([H:11])[H:12])([H:8])([H:9])[H:10]>>[C:1](=[C:2]([C@@:3]([C:4]([C:5]([H:16])([H:17])[H:18])([H:14])[H:15])([C:6](=[O:7])[H:19])[H:13])[H:12])([H:9])[H:10].[H:8][H:11]"
C       -2.51810436      -0.46971860       0.25679224
C       -1.22952182      -0.67029295      -0.32836940
C       -0.07109897       0.17073562       0.17108163
C        1.28402265      -0.30403994      -0.36963195
C        2.47026270       0.37440048       0.30248336
C       -0.30426646       1.60314644      -0.25867645
O       -0.23676566       2.55503051       0.46651506
H       -1.81680319      -1.90423213       0.54507183
H       -2.58930672      -0.05948383       1.25703440
H       -3.36413767      -0.34090201      -0.40602469
H       -0.80072833      -2.15783693       0.09802440
H       -1.23067084      -0.80128630      -1.41142662
H       -0.06419969       0.15632921       1.26423086
H        1.31589243      -0.13611381      -1.45245319
H        1.34820373      -1.38675048      -0.23336201
H        3.41134980       0.00787203      -0.10963404
H        2.47651964       0.17259058       1.37588182
H        2.44387239       1.45824057       0.17438993
H       -0.52451962       1.73231156      -1.34192717
19
Frame=9 idx=011361 GeodesicLength=0.9827020465457411 rxn_smarts="[C:1]([C:2]([C:3]([C:4]([C:5]([H:16])([H:17])[H:18])([H:14])[H:15])([C:6](=[O:7])[H:19])[H:13])([H:11])[H:12])([H:8])([H:9])[H:10]>>[C:1](=[C:2]([C@@:3]([C:4]([C:5]([H:16])([H:17])[H:18])([H:14])[H:15])([C:6](=[O:7])[H:19])[H:13])[H:12])([H:9])[H:10].[H:8][H:11]"
C       -2.51211756      -0.48730956       0.25985421
C       -1.22576400      -0.66905084      -0.33608721
C       -0.07105889       0.17471783       0.16722002
C        1.28467515      -0.30281261      -0.36959079
C        2.47008468       0.37824415       0.30154055
C       -0.30066242       1.60708509      -0.26264874
O       -0.25244170       2.55788513       0.46563476
H       -1.83894742      -1.94682628       0.57219425
H       -2.57948678      -0.07880098       1.26167717
H       -3.35088018      -0.30966370      -0.40193306
H       -0.82233480      -2.16897420       0.09817070
H       -1.23226346      -0.78042345      -1.42165747
H       -0.06685593       0.15971311       1.26047692
H        1.31820910      -0.13941617      -1.45306004
H        1.34864131      -1.38500773      -0.22924475
H        3.41194229       0.00946795      -0.10681246
H        2.47429086       0.18151910       1.37591836
H        2.44428790       1.46155475       0.16845053
H       -0.49931815       1.73809842      -1.35010293
19
Frame=10 idx=011361 GeodesicLength=1.0931465726169454 rxn_smarts="[C:1]([C:2]([C:3]([C:4]([C:5]([H:16])([H:17])[H:18])([H:14])[H:15])([C:6](=[O:7])[H:19])[H:13])([H:11])[H:12])([H:8])([H:9])[H:10]>>[C:1](=[C:2]([C@@:3]([C:4]([C:5]([H:16])([H:17])[H:18])([H:14])[H:15])([C:6](=[O:7])[H:19])[H:13])[H:12])([H:9])[H:10].[H:8][H:11]"
C       -2.50559752      -0.50608953       0.26198125
C       -1.22174630      -0.66672155      -0.34528698
C       -0.07092772       0.17927360       0.16279633
C        1.28538865      -0.30134287      -0.36982379
C        2.46994972       0.38189407       0.30075918
C       -0.29666554       1.61171740      -0.26680872
O       -0.26774337       2.56115676       0.46440115
H       -1.86234742      -1.99064452       0.60173797
H       -2.56910940      -0.09895690       1.26527243
H       -3.33734194      -0.28175010      -0.39558732
H       -0.84645143      -2.17891284       0.09955839
H       -1.23378870      -0.75825047      -1.43296293
H       -0.06977568       0.16337832       1.25613593
H        1.32095867      -0.14220902      -1.45385320
H        1.34870651      -1.38304681      -0.22555692
H        3.41257633       0.01071579      -0.10363374
H        2.47176813       0.19006087       1.37604303
H        2.44506021       1.46468009       0.16287049
H       -0.47291320       1.74504769      -1.35804257
19
Frame=11 idx=011361 GeodesicLength=1.2033906111474986 rxn_smarts="[C:1]([C:2]([C:3]([C:4]([C:5]([H:16])([H:17])[H:18])([H:14])[H:15])([C:6](=[O:7])[H:19])[H:13])([H:11])[H:12])([H:8])([H:9])[H:10]>>[C:1](=[C:2]([C@@:3]([C:4]([C:5]([H:16])([H:17])[H:18])([H:14])[H:15])([C:6](=[O:7])[H:19])[H:13])[H:12])([H:9])[H:10].[H:8][H:11]"
C       -2.49845945      -0.52604436       0.26313734
C       -1.21748531      -0.66329350      -0.35597533
C       -0.07069949       0.18441463       0.15780282
C        1.28616383      -0.29961543      -0.37035857
C        2.46988161       0.38534301       0.30012737
C       -0.29224092       1.61707104      -0.27114280
O       -0.28263934       2.56487271       0.46283242
H       -1.88706383      -2.03572165       0.63373368
H       -2.55814088      -0.12009890       1.26784224
H       -3.32360589      -0.25734685      -0.38723377
H       -0.87317091      -2.18752573       0.10252387
H       -1.23530087      -0.73466753      -1.44534051
H       -0.07294521       0.16731919       1.25120569
H        1.32413124      -0.14445206      -1.45487095
H        1.34838906      -1.38086137      -0.22235022
H        3.41326847       0.01161041      -0.10012691
H        2.46898305       0.19817925       1.37624784
H        2.44622773       1.46761804       0.15766339
H       -0.44529291       1.75319910      -1.36571762
19
Frame=12 idx=011361 GeodesicLength=1.3132610096362978 rxn_smarts="[C:1]([C:2]([C:3]([C:4]([C:5]([H:16])([H:17])[H:18])([H:14])[H:15])([C:6](=[O:7])[H:19])[H:13])([H:11])[H:12])([H:8])([H:9])[H:10]>>[C:1](=[C:2]([C@@:3]([C:4]([C:5]([H:16])([H:17])[H:18])([H:14])[H:15])([C:6](=[O:7])[H:19])[H:13])[H:12])([H:9])[H:10].[H:8][H:11]"
C       -2.49062145      -0.54710006       0.26329207
C       -1.21296597      -0.65879155      -0.36807089
C       -0.07035268       0.19014320       0.15225630
C        1.28701178      -0.29761871      -0.37120783
C        2.46990434       0.38860069       0.29961524
C       -0.28735873       1.62314745      -0.27563730
O       -0.29712008       2.56904362       0.46092690
H       -1.91326402      -2.08213710       0.66797518
H       -2.54653934      -0.14237309       1.26944155
H       -3.30978000      -0.23650212      -0.37715821
H       -0.90251373      -2.19472811       0.10743286
H       -1.23682910      -0.70960508      -1.45869594
H       -0.07632300       0.17154723       1.24569979
H        1.32770907      -0.14613409      -1.45612868
H        1.34771228      -1.37844249      -0.21964996
H        3.41403150       0.01216269      -0.09634188
H        2.46598178       0.20587870       1.37650321
H        2.44781472       1.47038180       0.15280776
H       -0.41649737       1.76252703      -1.37306017
19
Frame=13 idx=011361 GeodesicLength=1.4226270747955931 rxn_smarts="[C:1]([C:2]([C:3]([C:4]([C:5]([H:16])([H:17])[H:18])([H:14])[H:15])([C:6](=[O:7])[H:19])[H:13])([H:11])[H:12])([H:8])([H:9])[H:10]>>[C:1](=[C:2]([C@@:3]([C:4]([C:5]([H:16])([H:17])[H:18])([H:14])[H:15])([C:6](=[O:7])[H:19])[H:13])[H:12])([H:9])[H:10].[H:8][H:11]"
C       -2.48203472      -0.56911583       0.26244765
C       -1.20818240      -0.65328997      -0.38144287
C       -0.06987319       0.19644212       0.14618795
C        1.28794315      -0.29534915      -0.37236667
C        2.47003697       0.39169503       0.29919427
C       -0.28200634       1.62992084      -0.28029492
O       -0.31120686       2.57366954       0.45864377
H       -1.94116039      -2.12999256       0.70399003
H       -2.53424137      -0.16597490       1.27020328
H       -3.29589534      -0.21901829      -0.36559508
H       -0.93439062      -2.20047751       0.11464932
H       -1.23841056      -0.68308410      -1.47287652
H       -0.07986892       0.17607814       1.23964814
H        1.33166635      -0.14727380      -1.45762968
H        1.34671951      -1.37578500      -0.21744448
H        3.41487831       0.01240594      -0.09232269
H        2.46281059       0.21320210       1.37678537
H        2.44982652       1.47299925       0.14826286
H       -0.38661069       1.77294818      -1.38003971
19
Frame=14 idx=011361 GeodesicLength=1.5314487729429187 rxn_smarts="[C:1]([C:2]([C:3]([C:4]([C:5]([H:16])([H:17])[H:18])([H:14])[H:15])([C:6](=[O:7])[H:19])[H:13])([H:11])[H:12])([H:8])([H:9])[H:10]>>[C:1](=[C:2]([C@@:3]([C:4]([C:5]([H:16])([H:17])[H:18])([H:14])[H:15])([C:6](=[O:7])[H:19])[H:13])[H:12])([H:9])[H:10].[H:8][H:11]"
C       -2.47269164      -0.59189425       0.26063070
C       -1.20310765      -0.64695203      -0.39589464
C       -0.06923876       0.20325612       0.13965152
C        1.28898063      -0.29281337      -0.37381683
C        2.47030129       0.39468160       0.29882637
C       -0.27619841       1.63731617      -0.28511397
O       -0.32497334       2.57871064       0.45593215
H       -1.97107825      -2.17937720       0.74110732
H       -2.52117267      -0.19103342       1.27028012
H       -3.28192685      -0.20447332      -0.35276355
H       -0.96859303      -2.20479252       0.12450413
H       -1.24006557      -0.65520446      -1.48766121
H       -0.08352349       0.18090570       1.23310238
H        1.33597049      -0.14791518      -1.45936467
H        1.34549942      -1.37289138      -0.21569864
H        3.41582580       0.01241852      -0.08813127
H        2.45953571       0.22023293       1.37706245
H        2.45224375       1.47552366       0.14396589
H       -0.35578743       1.78430180      -1.38661826
19
Frame=15 idx=011361 GeodesicLength=1.63982838101013 rxn_smarts="[C:1]([C:2]([C:3]([C:4]([C:5]([H:16])([H:17])[H:18])([H:14])[H:15])([C:6](=[O:7])[H:19])[H:13])([H:11])[H:12])([H:8])([H:9])[H:10]>>[C:1](=[C:2]([C@@:3]([C:4]([C:5]([H:16])([H:17])[H:18])([H:14])[H:15])([C:6](=[O:7])[H:19])[H:13])[H:12])([H:9])[H:10].[H:8][H:11]"
C       -2.46261273      -0.61517379       0.25789176
C       -1.19773253      -0.63996371      -0.41118326
C       -0.06843702       0.21052151       0.13271479
C        1.29014169      -0.29002578      -0.37552046
C        2.47071141       0.39762715       0.29847353
C       -0.26996303       1.64524065      -0.29010970
O       -0.33851155       2.58412246       0.45269883
H       -2.00336298      -2.23040407       0.77846245
H       -2.50726159      -0.21770499       1.26987384
H       -3.26777218      -0.19227365      -0.33879750
H       -1.00480211      -2.20774060       0.13726853
H       -1.24181857      -0.62614025      -1.50277697
H       -0.08723348       0.18603775       1.22612982
H        1.34057921      -0.14813409      -1.46130837
H        1.34414651      -1.36976633      -0.21433516
H        3.41688695       0.01228667      -0.08382214
H        2.45621737       0.22709067       1.37730579
H        2.45503319       1.47801425       0.13982955
H       -0.32420856       1.79638617      -1.39279533
19
Frame=16 idx=011361 GeodesicLength=1.7480004009886847 rxn_smarts="[C:1]([C:2]([C:3]([C:4]([C:5]([H:16])([H:17])[H:18])([H:14])[H:15])([C:6](=[O:7])[H:19])[H:13])([H:11])[H:12])([H:8])([H:9])[H:10]>>[C:1](=[C:2]([C@@:3]([C:4]([C:5]([H:16])([H:17])[H:18])([H:14])[H:15])([C:6](=[O:7])[H:19])[H:13])[H:12])([H:9])[H:10].[H:8][H:11]"
C       -2.45185515      -0.63865807       0.25430542
C       -1.19204860      -0.63253869      -0.42703850
C       -0.06745780       0.21816213       0.12545493
C        1.29144543      -0.28700732      -0.37742662
C        2.47127800       0.40060996       0.29809731
C       -0.26334172       1.65358241      -0.29530567
O       -0.35193556       2.58984582       0.44882851
H       -2.03838516      -2.28319270       0.81509318
H       -2.49243536      -0.24610207       1.26919750
H       -3.25328946      -0.18171286      -0.32375255
H       -1.04262163      -2.20943613       0.15312903
H       -1.24368456      -0.59612680      -1.51792280
H       -0.09094570       0.19148374       1.21880749
H        1.34544725      -0.14802818      -1.46342311
H        1.34276785      -1.36641788      -0.21324966
H        3.41807415       0.01211113      -0.07944684
H        2.45291650       0.23392203       1.37748831
H        2.45814987       1.48053888       0.13575091
H       -0.29207834       1.80896459      -1.39858684
