12
Frame=0 idx=004674 GeodesicLength=0.0 rxn_smarts="[O:1]=[C:2]1[C:3]([H:7])([H:8])[C@@:4]2([H:9])[C:5]([H:10])([H:11])[C@@:6]12[H:12]>>[O:1]=[C:2]1[C:3]([H:7])([H:8])[C:4]([C:5][H:11])([H:9])[C:6]1([H:10])[H:12]"
O       -1.21191114       2.18377991      -0.03654221
C       -0.70162272       1.10978615      -0.09655044
C       -1.14755815      -0.25824210      -0.58913828
C        0.04739348      -0.84976192       0.18301748
C        1.32419279      -0.79102974      -0.51132407
C        0.58580780       0.58450270       0.52405384
H       -2.14171655      -0.51990563      -0.22625150
H       -1.08721296      -0.40214447      -1.66821063
H       -0.12371709      -1.50779422       1.02810234
H        1.39963474       0.71458128      -0.31351742
H        2.09806791      -1.11915238       0.20242743
H        0.95864184       0.85538041       1.50393343
12
Frame=1 idx=004674 GeodesicLength=0.055021519381565055 rxn_smarts="[O:1]=[C:2]1[C:3]([H:7])([H:8])[C@@:4]2([H:9])[C:5]([H:10])([H:11])[C@@:6]12[H:12]>>[O:1]=[C:2]1[C:3]([H:7])([H:8])[C:4]([C:5][H:11])([H:9])[C:6]1([H:10])[H:12]"
O       -1.21311088       2.18326958      -0.03423968
C       -0.70232942       1.10935424      -0.09318913
C       -1.14705870      -0.25820157      -0.58933936
C        0.04531881      -0.85089856       0.18514149
C        1.32389180      -0.78498498      -0.50406168
C        0.58624166       0.58421458       0.52353498
H       -2.14155825      -0.52027803      -0.22763114
H       -1.08655375      -0.40038517      -1.66865079
H       -0.12622524      -1.51034387       1.02904732
H        1.40686078       0.71494963      -0.32913501
H        2.09918294      -1.12119050       0.20337036
H        0.95534024       0.85449467       1.50515264
12
Frame=2 idx=004674 GeodesicLength=0.11004071480155747 rxn_smarts="[O:1]=[C:2]1[C:3]([H:7])([H:8])[C@@:4]2([H:9])[C:5]([H:10])([H:11])[C@@:6]12[H:12]>>[O:1]=[C:2]1[C:3]([H:7])([H:8])[C:4]([C:5][H:11])([H:9])[C:6]1([H:10])[H:12]"
O       -1.21424404       2.18279552      -0.03202789
C       -0.70300588       1.10893683      -0.08982876
C       -1.14653899      -0.25814608      -0.58951276
C        0.04326423      -0.85202701       0.18727599
C        1.32358919      -0.77889540      -0.49672620
C        0.58659756       0.58392907       0.52320091
H       -2.14138265      -0.52061719      -0.22898248
H       -1.08587451      -0.39862888      -1.66905856
H       -0.12872236      -1.51297020       1.02993091
H        1.41405652       0.71514954      -0.34506420
H        2.10033188      -1.12310510       0.20423587
H        0.95192905       0.85357891       1.50655717
12
Frame=3 idx=004674 GeodesicLength=0.16505383767762322 rxn_smarts="[O:1]=[C:2]1[C:3]([H:7])([H:8])[C@@:4]2([H:9])[C:5]([H:10])([H:11])[C@@:6]12[H:12]>>[O:1]=[C:2]1[C:3]([H:7])([H:8])[C:4]([C:5][H:11])([H:9])[C:6]1([H:10])[H:12]"
O       -1.21530509       2.18236217      -0.02991875
C       -0.70365189       1.10853548      -0.08647043
C       -1.14599959      -0.25807497      -0.58965632
C        0.04123160      -0.85314723       0.18941864
C        1.32328656      -0.77275036      -0.48931733
C        0.58687180       0.58364638       0.52306136
H       -2.14118932      -0.52092164      -0.23029989
H       -1.08517819      -0.39687751      -1.66943162
H       -0.13120328      -1.51567792       1.03074692
H        1.42122172       0.71516786      -0.36131072
H        2.10151587      -1.12489262       0.20501955
H        0.94839982       0.85263038       1.50815860
12
Frame=4 idx=004674 GeodesicLength=0.22005719223291798 rxn_smarts="[O:1]=[C:2]1[C:3]([H:7])([H:8])[C@@:4]2([H:9])[C:5]([H:10])([H:11])[C@@:6]12[H:12]>>[O:1]=[C:2]1[C:3]([H:7])([H:8])[C:4]([C:5][H:11])([H:9])[C:6]1([H:10])[H:12]"
O       -1.21629048       2.18197324      -0.02792144
C       -0.70426764       1.10815184      -0.08311516
C       -1.14544083      -0.25798753      -0.58976847
C        0.03922259      -0.85425901       0.19156728
C        1.32298543      -0.76653935      -0.48183415
C        0.58706064       0.58336717       0.52312590
H       -2.14097777      -0.52119041      -0.23157926
H       -1.08446671      -0.39513243      -1.66976827
H       -0.13366344      -1.51847093       1.03148988
H        1.42835676       0.71498981      -0.37788088
H        2.10273542      -1.12655030       0.20571729
H        0.94474603       0.85164791       1.50996728
12
Frame=5 idx=004674 GeodesicLength=0.27504394339746524 rxn_smarts="[O:1]=[C:2]1[C:3]([H:7])([H:8])[C@@:4]2([H:9])[C:5]([H:10])([H:11])[C@@:6]12[H:12]>>[O:1]=[C:2]1[C:3]([H:7])([H:8])[C:4]([C:5][H:11])([H:9])[C:6]1([H:10])[H:12]"
O       -1.21719854       2.18163080      -0.02604333
C       -0.70485412       1.10778726      -0.07976363
C       -1.14486275      -0.25788262      -0.58984817
C        0.03723884      -0.85536190       0.19371977
C        1.32268749      -0.76025117      -0.47427556
C        0.58716028       0.58309367       0.52340430
H       -2.14074722      -0.52142275      -0.23281818
H       -1.08374110      -0.39339369      -1.67006706
H       -0.13609872      -1.52135284       1.03215500
H        1.43546171       0.71459616      -0.39478030
H        2.10399073      -1.12807616       0.20632433
H        0.94096341       0.85063322       1.51199284
12
Frame=6 idx=004674 GeodesicLength=0.3300005549626676 rxn_smarts="[O:1]=[C:2]1[C:3]([H:7])([H:8])[C@@:4]2([H:9])[C:5]([H:10])([H:11])[C@@:6]12[H:12]>>[O:1]=[C:2]1[C:3]([H:7])([H:8])[C:4]([C:5][H:11])([H:9])[C:6]1([H:10])[H:12]"
O       -1.21802864       2.18133681      -0.02429089
C       -0.70541268       1.10744367      -0.07641630
C       -1.14426524      -0.25775916      -0.58989509
C        0.03528187      -0.85645600       0.19587367
C        1.32239502      -0.75387363      -0.46664179
C        0.58716727       0.58283129       0.52390702
H       -2.14049695      -0.52161871      -0.23401510
H       -1.08300173      -0.39166105      -1.67032781
H       -0.13850599      -1.52432929       1.03273871
H        1.44253557       0.71396280      -0.41201255
H        2.10528198      -1.12946946       0.20683372
H        0.93704951       0.84959274       1.51424640
12
Frame=7 idx=004674 GeodesicLength=0.38487876477125155 rxn_smarts="[O:1]=[C:2]1[C:3]([H:7])([H:8])[C@@:4]2([H:9])[C:5]([H:10])([H:11])[C@@:6]12[H:12]>>[O:1]=[C:2]1[C:3]([H:7])([H:8])[C:4]([C:5][H:11])([H:9])[C:6]1([H:10])[H:12]"
O       -1.21878181       2.18109661      -0.02266866
C       -0.70594469       1.10712661      -0.07307353
C       -1.14364791      -0.25761787      -0.58991187
C        0.03335212      -0.85754550       0.19802601
C        1.32211226      -0.74739314      -0.45894109
C        0.58708198       0.58259809       0.52464586
H       -2.14022703      -0.52178315      -0.23516987
H       -1.08224741      -0.38993580      -1.67055763
H       -0.14088670      -1.52741617       1.03324460
H        1.44957219       0.71305525      -0.42957053
H        2.10660927      -1.13073578       0.20722934
H        0.93300773       0.84855085       1.51674738
12
Frame=8 idx=004674 GeodesicLength=0.43996825739872003 rxn_smarts="[O:1]=[C:2]1[C:3]([H:7])([H:8])[C@@:4]2([H:9])[C:5]([H:10])([H:11])[C@@:6]12[H:12]>>[O:1]=[C:2]1[C:3]([H:7])([H:8])[C:4]([C:5][H:11])([H:9])[C:6]1([H:10])[H:12]"
O       -1.21940981       2.18091405      -0.02115393
C       -0.70640964       1.10683285      -0.06974095
C       -1.14300118      -0.25744809      -0.58988118
C        0.03146278      -0.85861120       0.20018569
C        1.32183586      -0.74084845      -0.45111250
C        0.58689506       0.58230551       0.52561876
H       -2.13992669      -0.52188130      -0.23626060
H       -1.08147897      -0.38822189      -1.67072677
H       -0.14321554      -1.53055248       1.03363479
H        1.45654272       0.71196086      -0.44767389
H        2.10798860      -1.13179365       0.20760430
H        0.92871679       0.84734378       1.51950628
12
Frame=9 idx=004674 GeodesicLength=0.49490578434736326 rxn_smarts="[O:1]=[C:2]1[C:3]([H:7])([H:8])[C@@:4]2([H:9])[C:5]([H:10])([H:11])[C@@:6]12[H:12]>>[O:1]=[C:2]1[C:3]([H:7])([H:8])[C:4]([C:5][H:11])([H:9])[C:6]1([H:10])[H:12]"
O       -1.21996478       2.18078086      -0.01975438
C       -0.70684161       1.10657010      -0.06641690
C       -1.14232935      -0.25725606      -0.58982174
C        0.02960486      -0.85966885       0.20234409
C        1.32157050      -0.73419493      -0.44321074
C        0.58661754       0.58204917       0.52683304
H       -2.13960147      -0.52194504      -0.23731273
H       -1.08068837      -0.38651040      -1.67086601
H       -0.14551084      -1.53379478       1.03394741
H        1.46346186       0.71055674      -0.46613384
H        2.10940416      -1.13271968       0.20786589
H        0.92427749       0.84613285       1.52252590
12
Frame=10 idx=004674 GeodesicLength=0.5498498352077617 rxn_smarts="[O:1]=[C:2]1[C:3]([H:7])([H:8])[C@@:4]2([H:9])[C:5]([H:10])([H:11])[C@@:6]12[H:12]>>[O:1]=[C:2]1[C:3]([H:7])([H:8])[C:4]([C:5][H:11])([H:9])[C:6]1([H:10])[H:12]"
O       -1.22044103       2.18070549      -0.01848114
C       -0.70724193       1.10634056      -0.06309678
C       -1.14163078      -0.25703784      -0.58972638
C        0.02778482      -0.86071007       0.20450139
C        1.32132254      -0.72740938      -0.43521247
C        0.58623580       0.58181063       0.52831056
H       -2.13924810      -0.52196933      -0.23831835
H       -1.07987604      -0.38479561      -1.67096509
H       -0.14776211      -1.53713940       1.03415825
H        1.47033384       0.70881304      -0.48502240
H        2.11085847      -1.13349343       0.20803088
H        0.91966453       0.84488533       1.52582154
12
Frame=11 idx=004674 GeodesicLength=0.6047993089781017 rxn_smarts="[O:1]=[C:2]1[C:3]([H:7])([H:8])[C@@:4]2([H:9])[C:5]([H:10])([H:11])[C@@:6]12[H:12]>>[O:1]=[C:2]1[C:3]([H:7])([H:8])[C:4]([C:5][H:11])([H:9])[C:6]1([H:10])[H:12]"
O       -1.22083549       2.18069481      -0.01733638
C       -0.70761209       1.10614651      -0.05977576
C       -1.14090514      -0.25679272      -0.58959443
C        0.02600545      -0.86173355       0.20665851
C        1.32109131      -0.72049029      -0.42711069
C        0.58574975       0.58158857       0.53005682
H       -2.13886797      -0.52195394      -0.23927743
H       -1.07904033      -0.38307616      -1.67102441
H       -0.14996200      -1.54058404       1.03426442
H        1.47716048       0.70671922      -0.50436867
H        2.11235439      -1.13410659       0.20810112
H        0.91486164       0.84358817       1.52940689
12
Frame=12 idx=004674 GeodesicLength=0.6596956955433361 rxn_smarts="[O:1]=[C:2]1[C:3]([H:7])([H:8])[C@@:4]2([H:9])[C:5]([H:10])([H:11])[C@@:6]12[H:12]>>[O:1]=[C:2]1[C:3]([H:7])([H:8])[C:4]([C:5][H:11])([H:9])[C:6]1([H:10])[H:12]"
O       -1.22114457       2.18074272      -0.01631520
C       -0.70794716       1.10598758      -0.05645262
C       -1.14014318      -0.25651661      -0.58942481
C        0.02426945      -0.86273607       0.20881598
C        1.32088307      -0.71342538      -0.41889667
C        0.58516322       0.58138856       0.53207809
H       -2.13844701      -0.52189859      -0.24019120
H       -1.07816784      -0.38134043      -1.67104155
H       -0.15211677      -1.54412725       1.03426207
H        1.48389915       0.70423974      -0.52420191
H        2.11389316      -1.13455487       0.20807633
H        0.90985848       0.84224061       1.53329149
12
Frame=13 idx=004674 GeodesicLength=0.7146185553058995 rxn_smarts="[O:1]=[C:2]1[C:3]([H:7])([H:8])[C@@:4]2([H:9])[C:5]([H:10])([H:11])[C@@:6]12[H:12]>>[O:1]=[C:2]1[C:3]([H:7])([H:8])[C:4]([C:5][H:11])([H:9])[C:6]1([H:10])[H:12]"
O       -1.22136378       2.18085388      -0.01540851
C       -0.70824334       1.10586950      -0.05312701
C       -1.13934508      -0.25620528      -0.58921539
C        0.02258205      -0.86371212       0.21097404
C        1.32069525      -0.70620597      -0.41056313
C        0.58446262       0.58120896       0.53438480
H       -2.13799040      -0.52179583      -0.24105895
H       -1.07726071      -0.37959377      -1.67101435
H       -0.15421142      -1.54777484       1.03414094
H        1.49057290       0.70133938      -0.54456862
H        2.11547553      -1.13481134       0.20796676
H        0.90462637       0.84082743       1.53748942
12
Frame=14 idx=004674 GeodesicLength=0.7695194827895491 rxn_smarts="[O:1]=[C:2]1[C:3]([H:7])([H:8])[C@@:4]2([H:9])[C:5]([H:10])([H:11])[C@@:6]12[H:12]>>[O:1]=[C:2]1[C:3]([H:7])([H:8])[C:4]([C:5][H:11])([H:9])[C:6]1([H:10])[H:12]"
O       -1.22148766       2.18104088      -0.01462684
C       -0.70850214       1.10579778      -0.04979639
C       -1.13851031      -0.25585741      -0.58896477
C        0.02094846      -0.86466347       0.21312864
C        1.32054054      -0.69881697      -0.40210157
C        0.58365134       0.58105528       0.53699429
H       -2.13749716      -0.52164579      -0.24187974
H       -1.07632057      -0.37783541      -1.67094280
H       -0.15624540      -1.55153751       1.03388601
H        1.49715175       0.69798183      -0.56548903
H        2.11711301      -1.13487311       0.20776890
H        0.89915814       0.83935390       1.54202330
12
Frame=15 idx=004674 GeodesicLength=0.8244106276393156 rxn_smarts="[O:1]=[C:2]1[C:3]([H:7])([H:8])[C@@:4]2([H:9])[C:5]([H:10])([H:11])[C@@:6]12[H:12]>>[O:1]=[C:2]1[C:3]([H:7])([H:8])[C:4]([C:5][H:11])([H:9])[C:6]1([H:10])[H:12]"
O       -1.22151366       2.18130277      -0.01396994
C       -0.70872184       1.10577489      -0.04646087
C       -1.13763451      -0.25546839      -0.58867062
C        0.01937427      -0.86558359       0.21527839
C        1.32042024      -0.69123943      -0.39350572
C        0.58272335       0.58093200       0.53991739
H       -2.13696108      -0.52144506      -0.24264861
H       -1.07534175      -0.37605994      -1.67082279
H       -0.15820952      -1.55541583       1.03348817
H        1.50363366       0.69411549      -0.58699309
H        2.11880494      -1.13472531       0.20747786
H        0.89342589       0.83781240       1.54690984
12
Frame=16 idx=004674 GeodesicLength=0.8792997271611676 rxn_smarts="[O:1]=[C:2]1[C:3]([H:7])([H:8])[C@@:4]2([H:9])[C:5]([H:10])([H:11])[C@@:6]12[H:12]>>[O:1]=[C:2]1[C:3]([H:7])([H:8])[C:4]([C:5][H:11])([H:9])[C:6]1([H:10])[H:12]"
O       -1.22143703       2.18164645      -0.01343407
C       -0.70889993       1.10580663      -0.04311892
C       -1.13671382      -0.25503470      -0.58833243
C        0.01786524      -0.86646976       0.21742229
C        1.32033942      -0.68345679      -0.38476513
C        0.58167356       0.58084198       0.54316973
H       -2.13637824      -0.52119260      -0.24336614
H       -1.07432005      -0.37426257      -1.67065541
H       -0.16009487      -1.55941406       1.03293863
H        1.51000273       0.68969187      -0.60912332
H        2.12055544      -1.13435392       0.20709522
H        0.88740756       0.83619749       1.55216955
