15
Frame=0 idx=002538 GeodesicLength=0.0 rxn_smarts="[C:1]([C:2]([N:3]([C:4](=[O:5])[C:6]([H:13])([H:14])[H:15])[H:12])([H:10])[H:11])([H:7])([H:8])[H:9]>>[C:1](/[C:2](=[N:3]\[H:12])[H:10])([H:7])([H:8])[H:9].[C:4](=[O:5])([C:6]([H:13])([H:14])[H:15])[H:11]"
C       -1.87345592       0.65702427      -0.36283647
C       -1.00832814      -0.25205497       0.44832904
N       -0.03179011       0.15709112       1.26783502
C        0.91119477      -0.92289553       0.28490103
O        1.17343127      -1.99155106       0.78994417
C        1.90007117       0.02663460      -0.37337813
H       -2.35437526       0.12810413      -1.18489430
H       -1.30882078       1.50363506      -0.75460552
H       -2.65850027       1.04671923       0.29286500
H       -1.41338193      -1.23653522       0.68098130
H       -0.02114489      -0.94751751      -0.58051175
H        0.22071950       1.12345993       1.08881482
H        1.41438636       0.87278000      -0.85949297
H        2.44860479      -0.54565011      -1.12036344
H        2.60138947       0.38075605       0.38241221
15
Frame=1 idx=002538 GeodesicLength=0.11409218143138557 rxn_smarts="[C:1]([C:2]([N:3]([C:4](=[O:5])[C:6]([H:13])([H:14])[H:15])[H:12])([H:10])[H:11])([H:7])([H:8])[H:9]>>[C:1](/[C:2](=[N:3]\[H:12])[H:10])([H:7])([H:8])[H:9].[C:4](=[O:5])([C:6]([H:13])([H:14])[H:15])[H:11]"
C       -1.91389562       0.65944053      -0.35250305
C       -1.01707062      -0.24586113       0.42864553
N       -0.03628046       0.17582722       1.23851832
C        0.92857151      -0.91983698       0.27653128
O        1.17246000      -1.98440995       0.79969751
C        1.94346752       0.01265277      -0.36415817
H       -2.40499613       0.13150365      -1.16936314
H       -1.36931101       1.51701599      -0.74907193
H       -2.69040937       1.02965106       0.32411632
H       -1.41064269      -1.23329605       0.66936647
H       -0.02225608      -0.94276287      -0.60193544
H        0.20866960       1.14383823       1.05907511
H        1.47801242       0.87038484      -0.84994208
H        2.49025077      -0.56324932      -1.10982589
H        2.64343016       0.34910202       0.40084917
15
Frame=2 idx=002538 GeodesicLength=0.22755094646924312 rxn_smarts="[C:1]([C:2]([N:3]([C:4](=[O:5])[C:6]([H:13])([H:14])[H:15])[H:12])([H:10])[H:11])([H:7])([H:8])[H:9]>>[C:1](/[C:2](=[N:3]\[H:12])[H:10])([H:7])([H:8])[H:9].[C:4](=[O:5])([C:6]([H:13])([H:14])[H:15])[H:11]"
C       -1.95572174       0.66145409      -0.34120246
C       -1.02585779      -0.23884528       0.40724138
N       -0.04038547       0.19598760       1.20636334
C        0.94641345      -0.91647601       0.26759153
O        1.17054754      -1.97649057       0.80918517
C        1.98815881      -0.00217718      -0.35380723
H       -2.45737103       0.13434279      -1.15237374
H       -1.43330159       1.53087178      -0.74204140
H       -2.72237774       1.01067670       0.35727814
H       -1.40746324      -1.22899147       0.65703697
H       -0.02308239      -0.93711596      -0.62495693
H        0.19683786       1.16544085       1.02551044
H        1.54436873       0.86741847      -0.83893968
H        2.53335168      -0.58176314      -1.09796534
H        2.68588291       0.31566732       0.42107981
15
Frame=3 idx=002538 GeodesicLength=0.3402854897638695 rxn_smarts="[C:1]([C:2]([N:3]([C:4](=[O:5])[C:6]([H:13])([H:14])[H:15])[H:12])([H:10])[H:11])([H:7])([H:8])[H:9]>>[C:1](/[C:2](=[N:3]\[H:12])[H:10])([H:7])([H:8])[H:9].[C:4](=[O:5])([C:6]([H:13])([H:14])[H:15])[H:11]"
C       -1.99879516       0.66302669      -0.32884307
C       -1.03472754      -0.23099615       0.38395025
N       -0.04411985       0.21757618       1.17110707
C        0.96472404      -0.91279724       0.25804794
O        1.16768439      -1.96767528       0.81838223
C        2.03400113      -0.01782889      -0.34223218
H       -2.51154400       0.13658631      -1.13369521
H       -1.50062797       1.54497724      -0.73339224
H       -2.75394190       0.98988631       0.39245072
H       -1.40383708      -1.22357209       0.64388156
H       -0.02363881      -0.93067413      -0.64967374
H        0.18522056       1.18824860       0.98778432
H        1.61330230       0.86383683      -0.82630037
H        2.57783686      -0.60111126      -1.08467592
H        2.72846302       0.28051687       0.44320861
15
Frame=4 idx=002538 GeodesicLength=0.45221953736497705 rxn_smarts="[C:1]([C:2]([N:3]([C:4](=[O:5])[C:6]([H:13])([H:14])[H:15])[H:12])([H:10])[H:11])([H:7])([H:8])[H:9]>>[C:1](/[C:2](=[N:3]\[H:12])[H:10])([H:7])([H:8])[H:9].[C:4](=[O:5])([C:6]([H:13])([H:14])[H:15])[H:11]"
C       -2.04292911       0.66412630      -0.31533132
C       -1.04372864      -0.22231727       0.35860184
N       -0.04750485       0.24056688       1.13247715
C        0.98350083      -0.90879137       0.24787324
O        1.16386916      -1.95784069       0.82726873
C        2.08081226      -0.03425542      -0.32934106
H       -2.56750790       0.13821095      -1.11308497
H       -1.57105298       1.55910241      -0.72298403
H       -2.78458030       0.96739922       0.42971072
H       -1.39976987      -1.21699501       0.62978518
H       -0.02395945      -0.92359058      -0.67617329
H        0.17380898       1.21220954       0.94555596
H        1.68458712       0.85960562      -0.81182716
H        2.62360566      -0.62118583      -1.06985622
H        2.77084909       0.24375524       0.46732524
15
Frame=5 idx=002538 GeodesicLength=0.5632566203791033 rxn_smarts="[C:1]([C:2]([N:3]([C:4](=[O:5])[C:6]([H:13])([H:14])[H:15])[H:12])([H:10])[H:11])([H:7])([H:8])[H:9]>>[C:1](/[C:2](=[N:3]\[H:12])[H:10])([H:7])([H:8])[H:9].[C:4](=[O:5])([C:6]([H:13])([H:14])[H:15])[H:11]"
C       -2.08787126       0.66473213      -0.30056674
C       -1.05291906      -0.21282927       0.33102643
N       -0.05056914       0.26489883       1.09018478
C        1.00272649      -0.90445604       0.23704550
O        1.15909410      -1.94685232       0.83584000
C        2.12836190      -0.05138885      -0.31505045
H       -2.62516055       0.13921702      -1.09030058
H       -1.64424320       1.57304519      -0.71061089
H       -2.81372861       0.94332672       0.46909750
H       -1.39527303      -1.20922660       0.61463327
H       -0.02410145      -0.91608099      -0.70452694
H        0.16258099       1.23723440       0.89847261
H        1.75791808       0.85469059      -0.79534246
H        2.67052401      -0.64185360      -1.05339675
H        2.81266073       0.20554278       0.49349471
15
Frame=6 idx=002538 GeodesicLength=0.6733744307426144 rxn_smarts="[C:1]([C:2]([N:3]([C:4](=[O:5])[C:6]([H:13])([H:14])[H:15])[H:12])([H:10])[H:11])([H:7])([H:8])[H:9]>>[C:1](/[C:2](=[N:3]\[H:12])[H:10])([H:7])([H:8])[H:9].[C:4](=[O:5])([C:6]([H:13])([H:14])[H:15])[H:11]"
C       -2.13335163       0.66482824      -0.28444703
C       -1.06237398      -0.20257988       0.30103428
N       -0.05334908       0.29047421       1.04391615
C        1.02238393      -0.89979731       0.22554186
O        1.15335606      -1.93458550       0.84406964
C        2.17640972      -0.06913360      -0.29925586
H       -2.68444714       0.13959577      -1.06502466
H       -1.71981883       1.58656990      -0.69613146
H       -2.84073712       0.91788204       0.51066300
H       -1.39037292      -1.20025096       0.59829127
H       -0.02413723      -0.90841226      -0.73482288
H        0.15150879       1.26318993       0.84615397
H        1.83294694       0.84910286      -0.77661097
H        2.71846232      -0.66294110      -1.03518205
H        2.85352016       0.16605764       0.52180475
15
Frame=7 idx=002538 GeodesicLength=0.7825201576853512 rxn_smarts="[C:1]([C:2]([N:3]([C:4](=[O:5])[C:6]([H:13])([H:14])[H:15])[H:12])([H:10])[H:11])([H:7])([H:8])[H:9]>>[C:1](/[C:2](=[N:3]\[H:12])[H:10])([H:7])([H:8])[H:9].[C:4](=[O:5])([C:6]([H:13])([H:14])[H:15])[H:11]"
C       -2.17902786       0.66441057      -0.26686548
C       -1.07218021      -0.19164605       0.26843899
N       -0.05589060       0.31714341       0.99334035
C        1.04243532      -0.89483017       0.21334469
O        1.14663740      -1.92091767       0.85192797
C        2.22466440      -0.08736072      -0.28185444
H       -2.74522055       0.13935894      -1.03691238
H       -1.79729319       1.59946051      -0.67937694
H       -2.86488678       0.89130260       0.55441761
H       -1.38510531      -1.19007427       0.58062078
H       -0.02417357      -0.90091737      -0.76713070
H        0.14055459       1.28988770       0.78820985
H        1.90923533       0.84288153      -0.75539648
H        2.76725499      -0.68422971      -1.01508730
H        2.89299605       0.12553070       0.55232347
15
Frame=8 idx=002538 GeodesicLength=0.8907002897688289 rxn_smarts="[C:1]([C:2]([N:3]([C:4](=[O:5])[C:6]([H:13])([H:14])[H:15])[H:12])([H:10])[H:11])([H:7])([H:8])[H:9]>>[C:1](/[C:2](=[N:3]\[H:12])[H:10])([H:7])([H:8])[H:9].[C:4](=[O:5])([C:6]([H:13])([H:14])[H:15])[H:11]"
C       -2.22450275       0.66349623      -0.24771899
C       -1.08245329      -0.18013851       0.23307740
N       -0.05824979       0.34470264       0.93813232
C        1.06283526      -0.88958566       0.20044965
O        1.13892747      -1.90573811       0.85938971
C        2.27280658      -0.10590895      -0.26275486
H       -2.80723403       0.13855626      -1.00564072
H       -1.87608058       1.61155432      -0.66012661
H       -2.88545332       0.86384389       0.60031168
H       -1.37953602      -1.17873165       0.56149327
H       -0.02435990      -0.89401978      -0.80149727
H        0.12967002       1.31708502       0.72427151
H        1.98625811       0.83609730      -0.73147459
H        2.81672275      -0.70546721      -0.99300216
H        2.93064949       0.08425422       0.58508966
15
Frame=9 idx=002538 GeodesicLength=0.9978067189843791 rxn_smarts="[C:1]([C:2]([N:3]([C:4](=[O:5])[C:6]([H:13])([H:14])[H:15])[H:12])([H:10])[H:11])([H:7])([H:8])[H:9]>>[C:1](/[C:2](=[N:3]\[H:12])[H:10])([H:7])([H:8])[H:9].[C:4](=[O:5])([C:6]([H:13])([H:14])[H:15])[H:11]"
C       -2.26926867       0.66212992      -0.22691210
C       -1.09330801      -0.16820644       0.19482049
N       -0.06047607       0.37285649       0.87795406
C        1.08350760      -0.88409995       0.18685500
O        1.13020382      -1.88890497       0.86645162
C        2.32042298      -0.12458209      -0.24187625
H       -2.87008957       0.13730182      -0.97089609
H       -1.95541352       1.62275065      -0.63810059
H       -2.90165652       0.83571892       0.64822276
H       -1.37369507      -1.16627623       0.54079372
H       -0.02488607      -0.88819513      -0.83794637
H        0.11876743       1.34442751       0.65397558
H        2.06335678       0.82883353      -0.70465988
H        2.86659654      -0.72633440      -0.96879809
H        2.96593834       0.04258037       0.62011615
15
Frame=10 idx=002538 GeodesicLength=1.1039275322642832 rxn_smarts="[C:1]([C:2]([N:3]([C:4](=[O:5])[C:6]([H:13])([H:14])[H:15])[H:12])([H:10])[H:11])([H:7])([H:8])[H:9]>>[C:1](/[C:2](=[N:3]\[H:12])[H:10])([H:7])([H:8])[H:9].[C:4](=[O:5])([C:6]([H:13])([H:14])[H:15])[H:11]"
C       -2.31281088       0.66036475      -0.20437105
C       -1.10492321      -0.15606801       0.15358450
N       -0.06266460       0.40123345       0.81252976
C        1.10437736      -0.87844113       0.17256990
O        1.12045135      -1.87039442       0.87300832
C        2.36713765      -0.14311494      -0.21913191
H       -2.93343390       0.13567420      -0.93227425
H       -2.03444060       1.63288325      -0.61322198
H       -2.91264801       0.80741965       0.69798518
H       -1.36772533      -1.15285752       0.51840450
H       -0.02600979      -0.88400980      -0.87647401
H        0.10776708       1.37151890       0.57706753
H        2.13982772       0.82133058      -0.67465296
H        2.91665975      -0.74641661      -0.94242374
H        2.99843540       0.00087764       0.65740021
15
Frame=11 idx=002538 GeodesicLength=1.2090141524769629 rxn_smarts="[C:1]([C:2]([N:3]([C:4](=[O:5])[C:6]([H:13])([H:14])[H:15])[H:12])([H:10])[H:11])([H:7])([H:8])[H:9]>>[C:1](/[C:2](=[N:3]\[H:12])[H:10])([H:7])([H:8])[H:9].[C:4](=[O:5])([C:6]([H:13])([H:14])[H:15])[H:11]"
C       -2.35450842       0.65828801      -0.18003640
C       -1.11746609      -0.14398868       0.10933876
N       -0.06490169       0.42935232       0.74157637
C        1.12533798      -0.87268425       0.15760126
O        1.10964251      -1.85018209       0.87894905
C        2.41248299      -0.16120563      -0.19444178
H       -2.99674303       0.13383075      -0.88937232
H       -2.11215844       1.64187624      -0.58538156
H       -2.91753976       0.77939701       0.74934584
H       -1.36172323      -1.13865913       0.49422777
H       -0.02803102      -0.88205087      -0.91704405
H        0.09655427       1.39783684       0.49330852
H        2.21482632       0.81385985      -0.64118207
H        2.96661046      -0.76521144      -0.91380454
H        3.02761714      -0.04045892       0.69691515
15
Frame=12 idx=002538 GeodesicLength=1.3131573465916728 rxn_smarts="[C:1]([C:2]([N:3]([C:4](=[O:5])[C:6]([H:13])([H:14])[H:15])[H:12])([H:10])[H:11])([H:7])([H:8])[H:9]>>[C:1](/[C:2](=[N:3]\[H:12])[H:10])([H:7])([H:8])[H:9].[C:4](=[O:5])([C:6]([H:13])([H:14])[H:15])[H:11]"
C       -2.39371463       0.65603077      -0.15388708
C       -1.13114926      -0.13229011       0.06215803
N       -0.06728953       0.45664510       0.66489079
C        1.14628909      -0.86693395       0.14198440
O        1.09778348      -1.82831393       0.88415320
C        2.45600715      -0.17851200      -0.16776530
H       -3.05935452       0.13203777      -0.84193699
H       -2.18746646       1.64978688      -0.55441806
H       -2.91558172       0.75207636       0.80192983
H       -1.35584870      -1.12393101       0.46823686
H       -0.03132307      -0.88299134      -0.95955493
H        0.08499965       1.42279136       0.40259449
H        2.28743009       0.80675759      -0.60402373
H        3.01617048      -0.78216976      -0.88292663
H        3.05304796      -0.08098374       0.73856511
15
Frame=13 idx=002538 GeodesicLength=1.4162796727992164 rxn_smarts="[C:1]([C:2]([N:3]([C:4](=[O:5])[C:6]([H:13])([H:14])[H:15])[H:12])([H:10])[H:11])([H:7])([H:8])[H:9]>>[C:1](/[C:2](=[N:3]\[H:12])[H:10])([H:7])([H:8])[H:9].[C:4](=[O:5])([C:6]([H:13])([H:14])[H:15])[H:11]"
C       -2.42966920       0.65374163      -0.12592870
C       -1.14616452      -0.12132218       0.01218918
N       -0.06993067       0.48242328       0.58229213
C        1.16707351      -0.86129086       0.12568607
O        1.08478669      -1.80480977       0.88843144
C        2.49717171      -0.19465312      -0.13906017
H       -3.12052183       0.13054120      -0.78955487
H       -2.25901041       1.65664306      -0.52038219
H       -2.90592635       0.72590752       0.85533904
H       -1.35023263      -1.10894744       0.44039871
H       -0.03630287      -0.88743735      -1.00393273
H        0.07292063       1.44566747       0.30492726
H        2.35665618       0.80042953      -0.56286250
H        3.06498030      -0.79658311      -0.84981130
H        3.07416947      -0.12030987       0.78226864
15
Frame=14 idx=002538 GeodesicLength=1.5185766268921859 rxn_smarts="[C:1]([C:2]([N:3]([C:4](=[O:5])[C:6]([H:13])([H:14])[H:15])[H:12])([H:10])[H:11])([H:7])([H:8])[H:9]>>[C:1](/[C:2](=[N:3]\[H:12])[H:10])([H:7])([H:8])[H:9].[C:4](=[O:5])([C:6]([H:13])([H:14])[H:15])[H:11]"
C       -2.46167969       0.65163641      -0.09626627
C       -1.16275387      -0.11154150      -0.04024729
N       -0.07297235       0.50586281       0.49382930
C        1.18760789      -0.85592204       0.10878448
O        1.07075881      -1.77998183       0.89152454
C        2.53552134      -0.20918213      -0.10834901
H       -3.17940485       0.12976633      -0.73212891
H       -2.32550317       1.66264067      -0.48339375
H       -2.88796340       0.70152891       0.90894658
H       -1.34512972      -1.09413286       0.41084277
H       -0.04346644      -0.89612163      -1.04992392
H        0.06016279       1.46570201       0.20065490
H        2.42135561       0.79543273      -0.51742480
H        3.11273835      -0.80764703      -0.81462805
H        3.09072870      -0.15804085       0.82777942
15
Frame=15 idx=002538 GeodesicLength=1.62005469104065 rxn_smarts="[C:1]([C:2]([N:3]([C:4](=[O:5])[C:6]([H:13])([H:14])[H:15])[H:12])([H:10])[H:11])([H:7])([H:8])[H:9]>>[C:1](/[C:2](=[N:3]\[H:12])[H:10])([H:7])([H:8])[H:9].[C:4](=[O:5])([C:6]([H:13])([H:14])[H:15])[H:11]"
C       -2.48897206       0.64993899      -0.06500552
C       -1.18110147      -0.10338902      -0.09483273
N       -0.07655368       0.52606217       0.39950259
C        1.20775664      -0.85097521       0.09126747
O        1.05568626      -1.75411312       0.89310699
C        2.57053105      -0.22164644      -0.07562659
H       -3.23510958       0.13016938      -0.66940400
H       -2.38554378       1.66799391      -0.44369589
H       -2.86098307       0.67943880       0.96218469
H       -1.34072157      -1.07988458       0.37965807
H       -0.05331713      -0.90966352      -1.09734582
H        0.04654019       1.48204909       0.09013196
H        2.48035716       0.79233007      -0.46734990
H        3.15910669      -0.81441422      -0.77750853
H        3.10232434      -0.19389632       0.87491723
15
Frame=16 idx=002538 GeodesicLength=1.7207584624885404 rxn_smarts="[C:1]([C:2]([N:3]([C:4](=[O:5])[C:6]([H:13])([H:14])[H:15])[H:12])([H:10])[H:11])([H:7])([H:8])[H:9]>>[C:1](/[C:2](=[N:3]\[H:12])[H:10])([H:7])([H:8])[H:9].[C:4](=[O:5])([C:6]([H:13])([H:14])[H:15])[H:11]"
C       -2.51076616       0.64889699      -0.03228807
C       -1.20136701      -0.09729836      -0.15117743
N       -0.08082896       0.54206309       0.29940043
C        1.22739216      -0.84659458       0.07316461
O        1.03959473      -1.72756817       0.89285674
C        2.60167538      -0.23158600      -0.04092860
H       -3.28657426       0.13243038      -0.60142252
H       -2.43772035       1.67307766      -0.40136190
H       -2.82447410       0.65986105       1.01440190
H       -1.33719133      -1.06660479       0.34699631
H       -0.06638250      -0.92868442      -1.14594933
H        0.03188430       1.49384626      -0.02613450
H        2.53238156       0.79165022      -0.41240440
H        3.20375690      -0.81590928      -0.73858376
H        3.10861964      -0.22758007       0.92343054
