15
Frame=0 idx=009340 GeodesicLength=0.0 rxn_smarts="[C:1]([n:2]1[c:3]([H:11])[c:4]([C:5]([H:12])([H:13])[H:14])[c:6]([H:15])[n:7]1)([H:8])([H:9])[H:10]>>[C:1]([N:2]1[C:3]([H:11])=[C:4]=[C:6]([H:15])[N:7]1[C:5]([H:12])([H:13])[H:14])([H:8])([H:9])[H:10]"
C       -1.94636862      -0.38061933       0.31133843
N       -0.74341040       0.05135565      -0.35932051
C       -0.15228949      -0.47437373      -1.49308156
C        1.09064156       0.05589211      -1.75377824
C        1.42254927       0.07208743       1.05424104
C        1.16530775       0.94947594      -0.65670433
N        0.04862097       0.93774462       0.20798008
H       -2.61627745      -0.81948242      -0.42608173
H       -2.43032198       0.47748027       0.77312693
H       -1.72656001      -1.12831930       1.07765964
H       -0.72768591      -1.20989675      -2.04447800
H        2.48359551       0.08672658       0.82015317
H        1.04144333      -0.94056644       0.98193472
H        1.23758606       0.55087323       2.00893632
H        1.85316936       1.77162209      -0.50192600
15
Frame=1 idx=009340 GeodesicLength=0.09544982974044675 rxn_smarts="[C:1]([n:2]1[c:3]([H:11])[c:4]([C:5]([H:12])([H:13])[H:14])[c:6]([H:15])[n:7]1)([H:8])([H:9])[H:10]>>[C:1]([N:2]1[C:3]([H:11])=[C:4]=[C:6]([H:15])[N:7]1[C:5]([H:12])([H:13])[H:14])([H:8])([H:9])[H:10]"
C       -1.95822152      -0.37284288       0.30247883
N       -0.74875298       0.04926231      -0.36147969
C       -0.14926031      -0.48770432      -1.48336706
C        1.10736816       0.02280298      -1.71887640
C        1.43560583       0.07128383       1.04967684
C        1.14799570       0.97340586      -0.67107588
N        0.04279478       0.94197376       0.19947099
H       -2.66139591      -0.72771411      -0.44941941
H       -2.40559873       0.46298096       0.83640663
H       -1.75719923      -1.18125008       1.00960494
H       -0.70440233      -1.25129657      -2.01676551
H        2.49767796       0.10895687       0.82188728
H        1.07350267      -0.94988292       0.99598546
H        1.24605851       0.54200640       2.00835429
H        1.83382741       1.79801793      -0.52288131
15
Frame=2 idx=009340 GeodesicLength=0.19066378062241562 rxn_smarts="[C:1]([n:2]1[c:3]([H:11])[c:4]([C:5]([H:12])([H:13])[H:14])[c:6]([H:15])[n:7]1)([H:8])([H:9])[H:10]>>[C:1]([N:2]1[C:3]([H:11])=[C:4]=[C:6]([H:15])[N:7]1[C:5]([H:12])([H:13])[H:14])([H:8])([H:9])[H:10]"
C       -1.96940394      -0.36583775       0.29379843
N       -0.75374289       0.04646810      -0.36363806
C       -0.14537450      -0.50273366      -1.47266222
C        1.12258357      -0.00810586      -1.68313056
C        1.44838225       0.07064591       1.04587673
C        1.13070489       0.99489006      -0.68646305
N        0.03708648       0.94626905       0.18997488
H       -2.70071673      -0.63502684      -0.46709697
H       -2.38000862       0.44130022       0.89691921
H       -1.79108420      -1.22956008       0.93839685
H       -0.68422496      -1.28752330      -1.99141941
H        2.51110585       0.13053043       0.82500084
H        1.10599522      -0.95856586       1.01241384
H        1.25432437       0.53509917       2.00754335
H        1.81437324       1.82215042      -0.54551385
15
Frame=3 idx=009340 GeodesicLength=0.2857185802263701 rxn_smarts="[C:1]([n:2]1[c:3]([H:11])[c:4]([C:5]([H:12])([H:13])[H:14])[c:6]([H:15])[n:7]1)([H:8])([H:9])[H:10]>>[C:1]([N:2]1[C:3]([H:11])=[C:4]=[C:6]([H:15])[N:7]1[C:5]([H:12])([H:13])[H:14])([H:8])([H:9])[H:10]"
C       -1.98008229      -0.35942953       0.28529460
N       -0.75843850       0.04300048      -0.36572089
C       -0.14076488      -0.51914276      -1.46096323
C        1.13638789      -0.03672933      -1.64680242
C        1.46099145       0.07003658       1.04277939
C        1.11336087       1.01422268      -0.70276960
N        0.03143618       0.95057430       0.17968040
H       -2.73467468      -0.54158341      -0.47900351
H       -2.35381682       0.41291862       0.95429337
H       -1.82824299      -1.27287279       0.86425603
H       -0.66648048      -1.31991013      -1.96817694
H        2.52400607       0.15164477       0.82933004
H        1.13928228      -0.96669820       1.03078942
H        1.26234601       0.52965211       2.00663889
H        1.79468989       1.84431660      -0.56962553
15
Frame=4 idx=009340 GeodesicLength=0.3806181791844989 rxn_smarts="[C:1]([n:2]1[c:3]([H:11])[c:4]([C:5]([H:12])([H:13])[H:14])[c:6]([H:15])[n:7]1)([H:8])([H:9])[H:10]>>[C:1]([N:2]1[C:3]([H:11])=[C:4]=[C:6]([H:15])[N:7]1[C:5]([H:12])([H:13])[H:14])([H:8])([H:9])[H:10]"
C       -1.99056099      -0.35342931       0.27695347
N       -0.76294238       0.03896335      -0.36768505
C       -0.13557979      -0.53655089      -1.44843671
C        1.14890210      -0.06281167      -1.61031301
C        1.47356511       0.06925875       1.04025831
C        1.09595178       1.03181460      -0.71990782
N        0.02581589       0.95490114       0.16885023
H       -2.76369571      -0.44768374      -0.48507704
H       -2.32749167       0.37841222       1.00818939
H       -1.86892679      -1.31077703       0.78746831
H       -0.65017459      -1.35006837      -1.94626833
H        2.53654060       0.17241683       0.83460103
H        1.17366087      -0.97448725       1.05053578
H        1.27014496       0.52507299       2.00579818
H        1.77479062       1.86496840      -0.59496674
15
Frame=5 idx=009340 GeodesicLength=0.47530728438380526 rxn_smarts="[C:1]([n:2]1[c:3]([H:11])[c:4]([C:5]([H:12])([H:13])[H:14])[c:6]([H:15])[n:7]1)([H:8])([H:9])[H:10]>>[C:1]([N:2]1[C:3]([H:11])=[C:4]=[C:6]([H:15])[N:7]1[C:5]([H:12])([H:13])[H:14])([H:8])([H:9])[H:10]"
C       -2.00072977      -0.34754207       0.26872454
N       -0.76735361       0.03469436      -0.36965205
C       -0.13003143      -0.55438331      -1.43517078
C        1.16001332      -0.08611464      -1.57385889
C        1.48598922       0.06799316       1.03810595
C        1.07826944       1.04795262      -0.73777004
N        0.02013976       0.95927531       0.15754090
H       -2.78775955      -0.35402421      -0.48514551
H       -2.30122755       0.33853883       1.05793694
H       -1.91265275      -1.34266301       0.70839276
H       -0.63428162      -1.37916508      -1.92443171
H        2.54847265       0.19279020       0.84067382
H        1.20924971      -0.98216581       1.07101246
H        1.27748087       0.52054931       2.00492107
H        1.75442133       1.88426435      -0.62127948
15
Frame=6 idx=009340 GeodesicLength=0.5698460777516383 rxn_smarts="[C:1]([n:2]1[c:3]([H:11])[c:4]([C:5]([H:12])([H:13])[H:14])[c:6]([H:15])[n:7]1)([H:8])([H:9])[H:10]>>[C:1]([N:2]1[C:3]([H:11])=[C:4]=[C:6]([H:15])[N:7]1[C:5]([H:12])([H:13])[H:14])([H:8])([H:9])[H:10]"
C       -2.01091695      -0.34172960       0.26045457
N       -0.77176210       0.03014870      -0.37157767
C       -0.12415030      -0.57263763      -1.42116659
C        1.16986581      -0.10665975      -1.53767896
C        1.49847729       0.06620566       1.03628975
C        1.06024150       1.06285350      -0.75627183
N        0.01435783       0.96361269       0.14597406
H       -2.80731542      -0.26047722      -0.47944075
H       -2.27554488       0.29346137       1.10337545
H       -1.95949213      -1.36820145       0.62712687
H       -0.61828565      -1.40807516      -1.90207350
H        2.56003080       0.21289334       0.84734086
H        1.24644211      -0.98974686       1.09193715
H        1.28455894       0.51585596       2.00414354
H        1.73349316       1.90249646      -0.64843294
15
Frame=7 idx=009340 GeodesicLength=0.6642163215830983 rxn_smarts="[C:1]([n:2]1[c:3]([H:11])[c:4]([C:5]([H:12])([H:13])[H:14])[c:6]([H:15])[n:7]1)([H:8])([H:9])[H:10]>>[C:1]([N:2]1[C:3]([H:11])=[C:4]=[C:6]([H:15])[N:7]1[C:5]([H:12])([H:13])[H:14])([H:8])([H:9])[H:10]"
C       -2.02109702      -0.33588558       0.25208360
N       -0.77627590       0.02556938      -0.37361686
C       -0.11803487      -0.59109210      -1.40645168
C        1.17852634      -0.12456592      -1.50184249
C        1.51095487       0.06381109       1.03474066
C        1.04181442       1.07661473      -0.77538843
N        0.00842464       0.96796507       0.13411605
H       -2.82251730      -0.16738161      -0.46774856
H       -2.25058851       0.24337750       1.14424673
H       -2.00898168      -1.38702782       0.54364040
H       -0.60176390      -1.43730387      -1.87844138
H        2.57108810       0.23278566       0.85460597
H        1.28531295      -0.99722448       1.11299936
H        1.29116790       0.51067105       2.00343088
H        1.71196995       1.91968691      -0.67637424
15
Frame=8 idx=009340 GeodesicLength=0.7583306838801099 rxn_smarts="[C:1]([n:2]1[c:3]([H:11])[c:4]([C:5]([H:12])([H:13])[H:14])[c:6]([H:15])[n:7]1)([H:8])([H:9])[H:10]>>[C:1]([N:2]1[C:3]([H:11])=[C:4]=[C:6]([H:15])[N:7]1[C:5]([H:12])([H:13])[H:14])([H:8])([H:9])[H:10]"
C       -2.03104633      -0.32998598       0.24369815
N       -0.78105231       0.02142966      -0.37617937
C       -0.11180682      -0.60944626      -1.39124168
C        1.18611347      -0.14002768      -1.46645429
C        1.52309896       0.06072955       1.03344817
C        1.02315205       1.08935110      -0.79521927
N        0.00235242       0.97259916       0.12171911
H       -2.83353737      -0.07552636      -0.44952021
H       -2.22617297       0.18848542       1.18040168
H       -2.06032144      -1.39888702       0.45807317
H       -0.58451396      -1.46712072      -1.85301459
H        2.58130416       0.25242139       0.86267133
H        1.32549364      -1.00461411       1.13398117
H        1.29676318       0.50476008       2.00277488
H        1.69017330       1.93583178      -0.70513824
15
Frame=9 idx=009340 GeodesicLength=0.8522215749733918 rxn_smarts="[C:1]([n:2]1[c:3]([H:11])[c:4]([C:5]([H:12])([H:13])[H:14])[c:6]([H:15])[n:7]1)([H:8])([H:9])[H:10]>>[C:1]([N:2]1[C:3]([H:11])=[C:4]=[C:6]([H:15])[N:7]1[C:5]([H:12])([H:13])[H:14])([H:8])([H:9])[H:10]"
C       -2.04090366      -0.32386895       0.23518128
N       -0.78614056       0.01787074      -0.37938020
C       -0.10549680      -0.62758758      -1.37558838
C        1.19266233      -0.15308208      -1.43169161
C        1.53496329       0.05686798       1.03234917
C        1.00419189       1.10118581      -0.81578637
N       -0.00387637       0.97752232       0.10882904
H       -2.84055254       0.01487281      -0.42481079
H       -2.20255542       0.12881398       1.21164760
H       -2.11335064      -1.40330695       0.37051551
H       -0.56607047      -1.49807867      -1.82487543
H        2.59063028       0.27191883       0.87149878
H        1.36721519      -1.01195096       1.15462652
H        1.30128192       0.49777440       2.00222306
H        1.66800155       1.95104831      -0.73473817
15
Frame=10 idx=009340 GeodesicLength=0.9458372834181827 rxn_smarts="[C:1]([n:2]1[c:3]([H:11])[c:4]([C:5]([H:12])([H:13])[H:14])[c:6]([H:15])[n:7]1)([H:8])([H:9])[H:10]>>[C:1]([N:2]1[C:3]([H:11])=[C:4]=[C:6]([H:15])[N:7]1[C:5]([H:12])([H:13])[H:14])([H:8])([H:9])[H:10]"
C       -2.05028532      -0.31770381       0.22667767
N       -0.79177937       0.01550188      -0.38386497
C       -0.09927213      -0.64520024      -1.35975141
C        1.19829184      -0.16401681      -1.39750097
C        1.54608199       0.05219402       1.03150153
C        0.98524700       1.11214082      -0.83724506
N       -0.01025412       0.98310830       0.09497865
H       -2.84393081       0.10265712      -0.39274868
H       -2.17931525       0.06454912       1.23759907
H       -2.16666806      -1.40007326       0.28133731
H       -0.54662503      -1.52991852      -1.79376582
H        2.59867380       0.29102768       0.88143138
H        1.40975224      -1.01912190       1.17489733
H        1.30404196       0.48969159       2.00170581
H        1.64604125       1.96516403      -0.76525184
15
Frame=11 idx=009340 GeodesicLength=1.0391353623575155 rxn_smarts="[C:1]([n:2]1[c:3]([H:11])[c:4]([C:5]([H:12])([H:13])[H:14])[c:6]([H:15])[n:7]1)([H:8])([H:9])[H:10]>>[C:1]([N:2]1[C:3]([H:11])=[C:4]=[C:6]([H:15])[N:7]1[C:5]([H:12])([H:13])[H:14])([H:8])([H:9])[H:10]"
C       -2.05921565      -0.31133252       0.21818870
N       -0.79795058       0.01450509      -0.38983192
C       -0.09312495      -0.66219294      -1.34385182
C        1.20306419      -0.17294080      -1.36406802
C        1.55635379       0.04663900       1.03085312
C        0.96639107       1.12231243      -0.85976108
N       -0.01674782       0.98947012       0.08006452
H       -2.84370883       0.18757411      -0.35314076
H       -2.15634349      -0.00459617       1.25814639
H       -2.22023516      -1.38872993       0.19060243
H       -0.52583333      -1.56296862      -1.75873239
H        2.60517228       0.30996543       0.89255010
H        1.45314747      -1.02616461       1.19462161
H        1.30467281       0.48019321       2.00124964
H        1.62435820       1.97826619      -0.79689052
15
Frame=12 idx=009340 GeodesicLength=1.1321628037296638 rxn_smarts="[C:1]([n:2]1[c:3]([H:11])[c:4]([C:5]([H:12])([H:13])[H:14])[c:6]([H:15])[n:7]1)([H:8])([H:9])[H:10]>>[C:1]([N:2]1[C:3]([H:11])=[C:4]=[C:6]([H:15])[N:7]1[C:5]([H:12])([H:13])[H:14])([H:8])([H:9])[H:10]"
C       -2.06716383      -0.30505031       0.20990780
N       -0.80486299       0.01545253      -0.39804185
C       -0.08725953      -0.67827446      -1.32813385
C        1.20703719      -0.18016360      -1.33122192
C        1.56524587       0.04021884       1.03052899
C        0.94801082       1.13162631      -0.88356324
N       -0.02332686       0.99697144       0.06344602
H       -2.84019174       0.26812023      -0.30501092
H       -2.13278190      -0.07836747       1.27269135
H       -2.27261687      -1.36912936       0.09899678
H       -0.50427321      -1.59642353      -1.71981134
H        2.60966298       0.32845001       0.90532231
H        1.49645939      -1.03285549       1.21398269
H        1.30242027       0.46937926       2.00073250
H        1.60364041       1.99004561      -0.82982532
15
Frame=13 idx=009340 GeodesicLength=1.2248568141653617 rxn_smarts="[C:1]([n:2]1[c:3]([H:11])[c:4]([C:5]([H:12])([H:13])[H:14])[c:6]([H:15])[n:7]1)([H:8])([H:9])[H:10]>>[C:1]([N:2]1[C:3]([H:11])=[C:4]=[C:6]([H:15])[N:7]1[C:5]([H:12])([H:13])[H:14])([H:8])([H:9])[H:10]"
C       -2.07431628      -0.29870210       0.20185782
N       -0.81237525       0.01825334      -0.40840040
C       -0.08159128      -0.69352637      -1.31258850
C        1.21031031      -0.18577560      -1.29916358
C        1.57282983       0.03285921       1.03044708
C        0.93018924       1.14017342      -0.90881620
N       -0.02992873       1.00563146       0.04517178
H       -2.83316573       0.34400146      -0.24846575
H       -2.10895611      -0.15697286       1.28081765
H       -2.32411941      -1.34074009       0.00690244
H       -0.48179059      -1.63037188      -1.67611358
H        2.61195750       0.34696289       0.91974294
H        1.54008967      -1.03929255       1.23279362
H        1.29696676       0.45681023       2.00018482
H        1.58390004       2.00068946      -0.86437015
15
Frame=14 idx=009340 GeodesicLength=1.3174788227454879 rxn_smarts="[C:1]([n:2]1[c:3]([H:11])[c:4]([C:5]([H:12])([H:13])[H:14])[c:6]([H:15])[n:7]1)([H:8])([H:9])[H:10]>>[C:1]([N:2]1[C:3]([H:11])=[C:4]=[C:6]([H:15])[N:7]1[C:5]([H:12])([H:13])[H:14])([H:8])([H:9])[H:10]"
C       -2.08010554      -0.29263432       0.19411676
N       -0.82054958       0.02312513      -0.42133456
C       -0.07638787      -0.70773933      -1.29723718
C        1.21271424      -0.18999099      -1.26759076
C        1.57882396       0.02458518       1.03079383
C        0.91304480       1.14775100      -0.93560613
N       -0.03652652       1.01554426       0.02480061
H       -2.82256260       0.41330572      -0.18344748
H       -2.08429694      -0.23930601       1.28160884
H       -2.37322993      -1.30362975      -0.08431236
H       -0.45944046      -1.66339232      -1.62825919
H        2.61172787       0.36514780       0.93615877
H        1.58331479      -1.04515138       1.25142357
H        1.28807086       0.44260847       1.99949679
H        1.56540291       2.00977655      -0.90061152
15
Frame=15 idx=009340 GeodesicLength=1.4100156520241394 rxn_smarts="[C:1]([n:2]1[c:3]([H:11])[c:4]([C:5]([H:12])([H:13])[H:14])[c:6]([H:15])[n:7]1)([H:8])([H:9])[H:10]>>[C:1]([N:2]1[C:3]([H:11])=[C:4]=[C:6]([H:15])[N:7]1[C:5]([H:12])([H:13])[H:14])([H:8])([H:9])[H:10]"
C       -2.08507406      -0.28669802       0.18671438
N       -0.82910549       0.02955306      -0.43610094
C       -0.07156235      -0.72116391      -1.28186560
C        1.21440898      -0.19285347      -1.23668710
C        1.58377937       0.01525331       1.03147466
C        0.89665307       1.15450483      -0.96391118
N       -0.04296980       1.02660896       0.00277543
H       -2.80823101       0.47533703      -0.11165018
H       -2.06038960      -0.32429917       1.27465177
H       -2.42021280      -1.25796139      -0.17318327
H       -0.43766868      -1.69518246      -1.57628108
H        2.60912563       0.38386328       0.95450102
H        1.62732803      -1.05067504       1.26957072
H        1.27579106       0.42599831       1.99876797
H        1.54812767       2.01771469      -0.93877660
15
Frame=16 idx=009340 GeodesicLength=1.502744690154771 rxn_smarts="[C:1]([n:2]1[c:3]([H:11])[c:4]([C:5]([H:12])([H:13])[H:14])[c:6]([H:15])[n:7]1)([H:8])([H:9])[H:10]>>[C:1]([N:2]1[C:3]([H:11])=[C:4]=[C:6]([H:15])[N:7]1[C:5]([H:12])([H:13])[H:14])([H:8])([H:9])[H:10]"
C       -2.08887770      -0.28111286       0.17956160
N       -0.83783266       0.03720901      -0.45235158
C       -0.06726791      -0.73367491      -1.26625082
C        1.21509610      -0.19435903      -1.20619020
C        1.58783874       0.00487329       1.03261051
C        0.88069632       1.16019052      -0.99356310
N       -0.04925726       1.03853986      -0.02078557
H       -2.78978948       0.52878849      -0.03447429
H       -2.03765482      -0.40996247       1.25960602
H       -2.46385267      -1.20437574      -0.25833040
H       -0.41726696      -1.72448191      -1.52115008
H        2.60402342       0.40275842       0.97469319
H        1.67191874      -1.05548771       1.28750001
H        1.26062877       0.40694679       1.99794999
H        1.53159737       2.02414826      -0.97882531
