15
Frame=0 idx=008033 GeodesicLength=0.0 rxn_smarts="[C:1]([C@@:2]1([H:11])[C:3]([H:12])([H:13])[N:4]([H:14])[C@:5]1([C:6]#[N:7])[H:15])([H:8])([H:9])[H:10]>>[C:1]([C@@:2]1([H:11])[C:3]([H:12])([H:13])[N:4]=[C:5]1[H:15])([H:8])([H:9])[H:10].[C:6]=[N:7][H:14]"
C        1.68362637      -0.39344130      -0.44774600
C        0.78480143       0.49611984       0.39467090
C       -0.31614823       1.32102695      -0.34253099
N       -1.27313124       0.59137761       0.49899814
C       -0.39486186      -0.17419518       1.03625801
C       -1.44168187      -2.09602416      -0.52567836
N       -2.53064605      -1.78084436      -0.25119308
H        1.08304267      -1.04354665      -1.08486341
H        2.34327111       0.22355683      -1.05921669
H        2.30079331      -1.02413973       0.19253869
H        1.35824201       1.09125683       1.10877509
H       -0.43644783       1.04752392      -1.39064218
H       -0.33103613       2.40015861      -0.20304026
H       -2.25775831       0.35360713       0.37813334
H       -0.57206535      -1.01243640       1.69553683
15
Frame=1 idx=008033 GeodesicLength=0.08451706187963538 rxn_smarts="[C:1]([C@@:2]1([H:11])[C:3]([H:12])([H:13])[N:4]([H:14])[C@:5]1([C:6]#[N:7])[H:15])([H:8])([H:9])[H:10]>>[C:1]([C@@:2]1([H:11])[C:3]([H:12])([H:13])[N:4]=[C:5]1[H:15])([H:8])([H:9])[H:10].[C:6]=[N:7][H:14]"
C        1.69359967      -0.38735574      -0.45015094
C        0.78667869       0.49182378       0.39369528
C       -0.31522926       1.31631052      -0.34049984
N       -1.27444232       0.59000002       0.50271202
C       -0.39276763      -0.18730629       1.02983807
C       -1.47247812      -2.10093391      -0.50406068
N       -2.55888292      -1.75555370      -0.25910133
H        1.09968390      -1.03795602      -1.09312786
H        2.35197099       0.23519214      -1.05751812
H        2.31435103      -1.01680119       0.18807375
H        1.35592936       1.08935856       1.10914840
H       -0.43275546       1.04677965      -1.39017450
H       -0.33203949       2.39548849      -0.20051091
H       -2.26396933       0.32552101       0.35395993
H       -0.55964911      -1.00456733       1.71771674
15
Frame=2 idx=008033 GeodesicLength=0.16910536353797223 rxn_smarts="[C:1]([C@@:2]1([H:11])[C:3]([H:12])([H:13])[N:4]([H:14])[C@:5]1([C:6]#[N:7])[H:15])([H:8])([H:9])[H:10]>>[C:1]([C@@:2]1([H:11])[C:3]([H:12])([H:13])[N:4]=[C:5]1[H:15])([H:8])([H:9])[H:10].[C:6]=[N:7][H:14]"
C        1.70384672      -0.38107019      -0.45255483
C        0.78844719       0.48719215       0.39265449
C       -0.31437118       1.31124284      -0.33861337
N       -1.27578531       0.58805608       0.50609898
C       -0.39084236      -0.20119324       1.02277819
C       -1.50446875      -2.10628903      -0.48143157
N       -2.58693581      -1.73051777      -0.26773668
H        1.11697288      -1.03197687      -1.10179423
H        2.36096303       0.24734300      -1.05538386
H        2.32807424      -1.00932379       0.18362364
H        1.35318900       1.08702340       1.10976333
H       -0.42901017       1.04580506      -1.38987000
H       -0.33315281       2.39044599      -0.19799215
H       -2.27023041       0.29904250       0.33096545
H       -0.54669625      -0.99578014       1.73949262
15
Frame=3 idx=008033 GeodesicLength=0.2537557265137238 rxn_smarts="[C:1]([C@@:2]1([H:11])[C:3]([H:12])([H:13])[N:4]([H:14])[C@:5]1([C:6]#[N:7])[H:15])([H:8])([H:9])[H:10]>>[C:1]([C@@:2]1([H:11])[C:3]([H:12])([H:13])[N:4]=[C:5]1[H:15])([H:8])([H:9])[H:10].[C:6]=[N:7][H:14]"
C        1.71438148      -0.37459070      -0.45493693
C        0.79012412       0.48222003       0.39155405
C       -0.31357728       1.30581231      -0.33686433
N       -1.27712777       0.58560327       0.50927908
C       -0.38906223      -0.21584679       1.01513144
C       -1.53771913      -2.11192635      -0.45779254
N       -2.61475451      -1.70571863      -0.27709082
H        1.13493350      -1.02558884      -1.11085415
H        2.37026418       0.25999802      -1.05279147
H        2.34196347      -1.00173614       0.17921255
H        1.35005880       1.08426403       1.11059010
H       -0.42526613       1.04453686      -1.38970102
H       -0.33435855       2.38503179      -0.19553250
H       -2.27671363       0.27401316       0.30906848
H       -0.53314632      -0.98607201       1.76072805
15
Frame=4 idx=008033 GeodesicLength=0.33841151738447345 rxn_smarts="[C:1]([C@@:2]1([H:11])[C:3]([H:12])([H:13])[N:4]([H:14])[C@:5]1([C:6]#[N:7])[H:15])([H:8])([H:9])[H:10]>>[C:1]([C@@:2]1([H:11])[C:3]([H:12])([H:13])[N:4]=[C:5]1[H:15])([H:8])([H:9])[H:10].[C:6]=[N:7][H:14]"
C        1.72518063      -0.36794137      -0.45727158
C        0.79171264       0.47690506       0.39040935
C       -0.31287449       1.29999124      -0.33524840
N       -1.27843521       0.58270282       0.51237680
C       -0.38738239      -0.23121317       1.00699918
C       -1.57220920      -2.11766047      -0.43313233
N       -2.64221017      -1.68108730      -0.28730059
H        1.15355307      -1.01878647      -1.12029774
H        2.37983408       0.27309536      -1.04973332
H        2.35598440      -0.99407553       0.17488453
H        1.34656846       1.08110271       1.11160727
H       -0.42160774       1.04288029      -1.38966090
H       -0.33567322       2.37922092      -0.19318462
H       -2.28354957       0.25031198       0.28826051
H       -0.51889131      -0.97544606       1.78129186
15
Frame=5 idx=008033 GeodesicLength=0.42299269211245166 rxn_smarts="[C:1]([C@@:2]1([H:11])[C:3]([H:12])([H:13])[N:4]([H:14])[C@:5]1([C:6]#[N:7])[H:15])([H:8])([H:9])[H:10]>>[C:1]([C@@:2]1([H:11])[C:3]([H:12])([H:13])[N:4]=[C:5]1[H:15])([H:8])([H:9])[H:10].[C:6]=[N:7][H:14]"
C        1.73622921      -0.36106104      -0.45950905
C        0.79322271       0.47124676       0.38919893
C       -0.31220743       1.29372485      -0.33375792
N       -1.27961903       0.57934349       0.51545465
C       -0.38579421      -0.24731203       0.99833768
C       -1.60817060      -2.12330171      -0.40742441
N       -2.66928931      -1.65664273      -0.29819960
H        1.17283034      -1.01151798      -1.13002153
H        2.38965115       0.28672132      -1.04611346
H        2.37010333      -0.98623487       0.17066388
H        1.34272601       1.07755941       1.11273534
H       -0.41801348       1.04072773      -1.38966207
H       -0.33699837       2.37295545      -0.19100929
H       -2.29077309       0.22780253       0.26844896
H       -0.50389725      -0.96401118       1.80085789
15
Frame=6 idx=008033 GeodesicLength=0.5075879613838947 rxn_smarts="[C:1]([C@@:2]1([H:11])[C:3]([H:12])([H:13])[N:4]([H:14])[C@:5]1([C:6]#[N:7])[H:15])([H:8])([H:9])[H:10]>>[C:1]([C@@:2]1([H:11])[C:3]([H:12])([H:13])[N:4]=[C:5]1[H:15])([H:8])([H:9])[H:10].[C:6]=[N:7][H:14]"
C        1.74756815      -0.35400351      -0.46165526
C        0.79467005       0.46524006       0.38794899
C       -0.31164006       1.28703113      -0.33240092
N       -1.28071328       0.57560041       0.51862804
C       -0.38426695      -0.26408726       0.98929297
C       -1.64554020      -2.12872335      -0.38062948
N       -2.69590197      -1.63233173      -0.30993083
H        1.19281147      -1.00380925      -1.14006435
H        2.39974647       0.30080050      -1.04197627
H        2.38439759      -0.97830269       0.16657826
H        1.33857266       1.07365446       1.11399212
H       -0.41458370       1.03804804      -1.38975975
H       -0.33842304       2.36627802      -0.18904621
H       -2.29855714       0.20643940       0.24963892
H       -0.48814006      -0.95183422       1.81938378
15
Frame=7 idx=008033 GeodesicLength=0.5921235632996585 rxn_smarts="[C:1]([C@@:2]1([H:11])[C:3]([H:12])([H:13])[N:4]([H:14])[C@:5]1([C:6]#[N:7])[H:15])([H:8])([H:9])[H:10]>>[C:1]([C@@:2]1([H:11])[C:3]([H:12])([H:13])[N:4]=[C:5]1[H:15])([H:8])([H:9])[H:10].[C:6]=[N:7][H:14]"
C        1.75912025      -0.34677600      -0.46369328
C        0.79605245       0.45889761       0.38665453
C       -0.31115885       1.27991520      -0.33114937
N       -1.28167578       0.57150394       0.52195671
C       -0.38278699      -0.28145928       0.97993906
C       -1.68432540      -2.13383658      -0.35252859
N       -2.72181578      -1.60815081      -0.32267699
H        1.21339473      -0.99563614      -1.15037828
H        2.41003969       0.31529426      -1.03730580
H        2.39876865      -0.97029177       0.16262698
H        1.33414943       1.06941447       1.11531219
H       -0.41133474       1.03482278      -1.38990036
H       -0.33990906       2.35919076      -0.18729183
H       -2.30692442       0.18611637       0.23175197
H       -0.47159419      -0.93900482       1.83668306
15
Frame=8 idx=008033 GeodesicLength=0.6766963042933588 rxn_smarts="[C:1]([C@@:2]1([H:11])[C:3]([H:12])([H:13])[N:4]([H:14])[C@:5]1([C:6]#[N:7])[H:15])([H:8])([H:9])[H:10]>>[C:1]([C@@:2]1([H:11])[C:3]([H:12])([H:13])[N:4]=[C:5]1[H:15])([H:8])([H:9])[H:10].[C:6]=[N:7][H:14]"
C        1.77090474      -0.33943722      -0.46563107
C        0.79738712       0.45223234       0.38534136
C       -0.31082390       1.27242320      -0.32999703
N       -1.28254664       0.56713565       0.52552457
C       -0.38133818      -0.29934508       0.97040359
C       -1.72451780      -2.13853658      -0.32303052
N       -2.74684946      -1.58412089      -0.33656023
H        1.23457472      -0.98703978      -1.16099501
H        2.42054323       0.33011633      -1.03213852
H        2.41327746      -0.96229223       0.15882724
H        1.32951351       1.06487998       1.11672257
H       -0.40835719       1.03106075      -1.39012677
H       -0.34154102       2.35176909      -0.18574832
H       -2.31599363       0.16680778       0.21471133
H       -0.45423297      -0.92565333       1.85269681
15
Frame=9 idx=008033 GeodesicLength=0.7609217797460226 rxn_smarts="[C:1]([C@@:2]1([H:11])[C:3]([H:12])([H:13])[N:4]([H:14])[C@:5]1([C:6]#[N:7])[H:15])([H:8])([H:9])[H:10]>>[C:1]([C@@:2]1([H:11])[C:3]([H:12])([H:13])[N:4]=[C:5]1[H:15])([H:8])([H:9])[H:10].[C:6]=[N:7][H:14]"
C        1.78262650      -0.33192596      -0.46743751
C        0.79863644       0.44526869       0.38393106
C       -0.31047469       1.26452618      -0.32886641
N       -1.28317126       0.56243703       0.52930656
C       -0.37992400      -0.31761123       0.96073640
C       -1.76599774      -2.14263116      -0.29170098
N       -2.77045487      -1.56036696      -0.35185169
H        1.25598889      -0.97785838      -1.17172145
H        2.43100276       0.34526025      -1.02642416
H        2.42747134      -0.95424104       0.15509144
H        1.32470978       1.06004161       1.11793452
H       -0.40550392       1.02678967      -1.39020167
H       -0.34303980       2.34390131      -0.18436623
H       -2.32556374       0.14825627       0.19844429
H       -0.43630568      -0.91184629       1.86712583
15
Frame=10 idx=008033 GeodesicLength=0.8451479508927608 rxn_smarts="[C:1]([C@@:2]1([H:11])[C:3]([H:12])([H:13])[N:4]([H:14])[C@:5]1([C:6]#[N:7])[H:15])([H:8])([H:9])[H:10]>>[C:1]([C@@:2]1([H:11])[C:3]([H:12])([H:13])[N:4]=[C:5]1[H:15])([H:8])([H:9])[H:10].[C:6]=[N:7][H:14]"
C        1.79447604      -0.32436425      -0.46914485
C        0.79984237       0.43802973       0.38250349
C       -0.31028758       1.25632700      -0.32780380
N       -1.28370593       0.55758207       0.53342263
C       -0.37852642      -0.33618975       0.95110387
C       -1.80885335      -2.14597206      -0.25871404
N       -2.79258214      -1.53695510      -0.36846843
H        1.27782493      -0.96826449      -1.18269314
H        2.44157422       0.36059894      -1.02026110
H        2.44169887      -0.94629548       0.15149818
H        1.31978537       1.05498115       1.11915647
H       -0.40297739       1.02202003      -1.39033725
H       -0.34468466       2.33578626      -0.18319399
H       -2.33589738       0.13060185       0.18286693
H       -0.41768696      -0.89788591       1.88006504
15
Frame=11 idx=008033 GeodesicLength=0.9292936822623606 rxn_smarts="[C:1]([C@@:2]1([H:11])[C:3]([H:12])([H:13])[N:4]([H:14])[C@:5]1([C:6]#[N:7])[H:15])([H:8])([H:9])[H:10]>>[C:1]([C@@:2]1([H:11])[C:3]([H:12])([H:13])[N:4]=[C:5]1[H:15])([H:8])([H:9])[H:10].[C:6]=[N:7][H:14]"
C        1.80642383      -0.31670702      -0.47071949
C        0.80099486       0.43052970       0.38102930
C       -0.31022103       1.24780439      -0.32683427
N       -1.28410643       0.55258762       0.53789713
C       -0.37716296      -0.35505194       0.94149904
C       -1.85318038      -2.14823335      -0.22411501
N       -2.81306697      -1.51401736      -0.38610125
H        1.30007594      -0.95820384      -1.19381752
H        2.45223301       0.37617958      -1.01360300
H        2.45590252      -0.93837901       0.14807703
H        1.31471170       1.04971564       1.12031037
H       -0.40072880       1.01669655      -1.39050844
H       -0.34640448       2.32739451      -0.18233000
H       -2.34697330       0.11381733       0.16792602
H       -0.39849752      -0.88413280       1.89129007
15
Frame=12 idx=008033 GeodesicLength=1.0132109464554782 rxn_smarts="[C:1]([C@@:2]1([H:11])[C:3]([H:12])([H:13])[N:4]([H:14])[C@:5]1([C:6]#[N:7])[H:15])([H:8])([H:9])[H:10]>>[C:1]([C@@:2]1([H:11])[C:3]([H:12])([H:13])[N:4]=[C:5]1[H:15])([H:8])([H:9])[H:10].[C:6]=[N:7][H:14]"
C        1.81822524      -0.30893666      -0.47211687
C        0.80211088       0.42283422       0.37948035
C       -0.31018482       1.23896385      -0.32585548
N       -1.28427665       0.54747588       0.54266555
C       -0.37580860      -0.37399530       0.93191807
C       -1.89899894      -2.14922654      -0.18767500
N       -2.83146486      -1.49186133      -0.40490083
H        1.32233935      -0.94761332      -1.20494368
H        2.46275041       0.39191144      -1.00636413
H        2.46977663      -0.93044372       0.14477767
H        1.30965630       1.04430102       1.12125885
H       -0.39873453       1.01083758      -1.39051185
H       -0.34800181       2.31867324      -0.18164016
H       -2.35865717       0.09773427       0.15333997
H       -0.37873143      -0.87065463       1.90056755
15
Frame=13 idx=008033 GeodesicLength=1.0969011624959368 rxn_smarts="[C:1]([C@@:2]1([H:11])[C:3]([H:12])([H:13])[N:4]([H:14])[C@:5]1([C:6]#[N:7])[H:15])([H:8])([H:9])[H:10]>>[C:1]([C@@:2]1([H:11])[C:3]([H:12])([H:13])[N:4]=[C:5]1[H:15])([H:8])([H:9])[H:10].[C:6]=[N:7][H:14]"
C        1.83008561      -0.30106970      -0.47336769
C        0.80313239       0.41488731       0.37786987
C       -0.31025400       1.22981290      -0.32502257
N       -1.28429530       0.54229624       0.54778594
C       -0.37454449      -0.39313270       0.92237464
C       -1.94607328      -2.14845627      -0.15015388
N       -2.84792420      -1.47056555      -0.42362048
H        1.34504087      -0.93647067      -1.21622692
H        2.47333732       0.40784793      -0.99859034
H        2.48353254      -0.92256227       0.14167731
H        1.30435520       1.03866052       1.12214182
H       -0.39694220       1.00444310      -1.39062731
H       -0.34966315       2.30966345      -0.18134601
H       -2.37102643       0.08254462       0.13909502
H       -0.35876089      -0.85789892       1.90801059
15
Frame=14 idx=008033 GeodesicLength=1.180497745381051 rxn_smarts="[C:1]([C@@:2]1([H:11])[C:3]([H:12])([H:13])[N:4]([H:14])[C@:5]1([C:6]#[N:7])[H:15])([H:8])([H:9])[H:10]>>[C:1]([C@@:2]1([H:11])[C:3]([H:12])([H:13])[N:4]=[C:5]1[H:15])([H:8])([H:9])[H:10].[C:6]=[N:7][H:14]"
C        1.84186244      -0.29316541      -0.47450270
C        0.80412058       0.40676635       0.37619866
C       -0.31038604       1.22052852      -0.32421619
N       -1.28420519       0.53714378       0.55317106
C       -0.37334767      -0.41228005       0.91294571
C       -1.99438450      -2.14605402      -0.11105540
N       -2.86217234      -1.45055978      -0.44266385
H        1.36783102      -0.92479322      -1.22763299
H        2.48388768       0.42386514      -0.99031289
H        2.49703672      -0.91487649       0.13866070
H        1.29905835       1.03284985       1.12291449
H       -0.39534516       0.99777772      -1.39072674
H       -0.35128083       2.30056118      -0.18119891
H       -2.38408961       0.06812191       0.12472916
H       -0.33858545      -0.84588549       1.91368991
15
Frame=15 idx=008033 GeodesicLength=1.2639217079874165 rxn_smarts="[C:1]([C@@:2]1([H:11])[C:3]([H:12])([H:13])[N:4]([H:14])[C@:5]1([C:6]#[N:7])[H:15])([H:8])([H:9])[H:10]>>[C:1]([C@@:2]1([H:11])[C:3]([H:12])([H:13])[N:4]=[C:5]1[H:15])([H:8])([H:9])[H:10].[C:6]=[N:7][H:14]"
C        1.85353952      -0.28520410      -0.47551247
C        0.80505298       0.39846567       0.37445325
C       -0.31055464       1.21110271      -0.32345966
N       -1.28399069       0.53202841       0.55878229
C       -0.37226077      -0.43142105       0.90357414
C       -2.04374195      -2.14169628      -0.07075402
N       -2.87427921      -1.43207794      -0.46128767
H        1.39073020      -0.91250340      -1.23916872
H        2.49440504       0.43997244      -0.98147358
H        2.51023310      -0.90738111       0.13572570
H        1.29370666       1.02682961       1.12358626
H       -0.39387413       0.99086089      -1.39083392
H       -0.35281823       2.29133416      -0.18122034
H       -2.39776607       0.05448275       0.10999479
H       -0.31838181      -0.83479277       1.91759395
15
Frame=16 idx=008033 GeodesicLength=1.3471710877709588 rxn_smarts="[C:1]([C@@:2]1([H:11])[C:3]([H:12])([H:13])[N:4]([H:14])[C@:5]1([C:6]#[N:7])[H:15])([H:8])([H:9])[H:10]>>[C:1]([C@@:2]1([H:11])[C:3]([H:12])([H:13])[N:4]=[C:5]1[H:15])([H:8])([H:9])[H:10].[C:6]=[N:7][H:14]"
C        1.86512527      -0.27718277      -0.47638333
C        0.80592964       0.38999142       0.37262965
C       -0.31075276       1.20154613      -0.32277868
N       -1.28365131       0.52698525       0.56460032
C       -0.37130316      -0.45053917       0.89422498
C       -2.09389003      -2.13518031      -0.02965765
N       -2.88448228      -1.41530737      -0.47887264
H        1.41376310      -0.89956584      -1.25083180
H        2.50490556       0.45616965      -0.97202543
H        2.52312222      -0.90009050       0.13288399
H        1.28828479       1.02059662       1.12417585
H       -0.39250402       0.98370121      -1.39098147
H       -0.35426136       2.28199812      -0.18144585
H       -2.41203001       0.04165641       0.09469234
H       -0.29825565      -0.82477886       1.91976974
