13
Frame=0 idx=004564 GeodesicLength=0.0 rxn_smarts="[C:1]([C@@:2]1([H:10])[C:3]([H:11])([H:12])[N:4]1[C:5](=[O:6])[H:13])([H:7])([H:8])[H:9]>>[C:1]([C:2]([C:3]([H:11])([H:12])[H:13])([N:4]=[C:5]=[O:6])[H:10])([H:7])([H:8])[H:9]"
C       -1.69719486      -0.17517199       0.47311682
C       -0.20499124      -0.41110617       0.27646166
C        0.28392956      -0.21524629      -1.08187215
N        0.53919573       0.70439691       0.84549221
C        1.77573582       0.72936303       0.34416695
O        2.66842091       1.51968714       0.48858272
H       -1.89494891      -0.13163082       1.54388109
H       -2.28828319      -0.97703422       0.02999571
H       -1.99550553       0.77897127       0.03765697
H        0.07788139      -1.38244830       0.69108225
H        0.76869221      -0.96619472      -1.69530761
H       -0.00834896       0.70203488      -1.57864443
H        1.97541712      -0.17562069      -0.37461219
13
Frame=1 idx=004564 GeodesicLength=0.08507220300736032 rxn_smarts="[C:1]([C@@:2]1([H:10])[C:3]([H:11])([H:12])[N:4]1[C:5](=[O:6])[H:13])([H:7])([H:8])[H:9]>>[C:1]([C:2]([C:3]([H:11])([H:12])[H:13])([N:4]=[C:5]=[O:6])[H:10])([H:7])([H:8])[H:9]"
C       -1.69769949      -0.17472163       0.47353602
C       -0.20715982      -0.41476113       0.27805595
C        0.29127773      -0.21029203      -1.07796657
N        0.54308664       0.70268237       0.83131020
C        1.78821402       0.73229756       0.36157574
O        2.66708479       1.53952964       0.48807050
H       -1.89913632      -0.13749459       1.54411253
H       -2.28945471      -0.97262891       0.02362589
H       -1.99486831       0.78181005       0.04193876
H        0.07700373      -1.38636759       0.69053862
H        0.75277128      -0.97236079      -1.69571737
H       -0.01181892       0.70024317      -1.58159278
H        1.98069937      -0.18793611      -0.37748747
13
Frame=2 idx=004564 GeodesicLength=0.17012880045060458 rxn_smarts="[C:1]([C@@:2]1([H:10])[C:3]([H:11])([H:12])[N:4]1[C:5](=[O:6])[H:13])([H:7])([H:8])[H:9]>>[C:1]([C:2]([C:3]([H:11])([H:12])[H:13])([N:4]=[C:5]=[O:6])[H:10])([H:7])([H:8])[H:9]"
C       -1.69803438      -0.17412753       0.47399679
C       -0.20921918      -0.41843799       0.27950353
C        0.29870676      -0.20571517      -1.07423325
N        0.54734718       0.70049860       0.81713780
C        1.80023552       0.73615540       0.37894600
O        2.66537747       1.55919399       0.48829972
H       -1.90312623      -0.14333545       1.54434239
H       -2.29058664      -0.96787337       0.01724887
H       -1.99386858       0.78489292       0.04640893
H        0.07615872      -1.39033830       0.68983776
H        0.73662966      -0.97840782      -1.69607957
H       -0.01554693       0.69767335      -1.58486278
H        1.98592665      -0.20017864      -0.38054619
13
Frame=3 idx=004564 GeodesicLength=0.2551835344298624 rxn_smarts="[C:1]([C@@:2]1([H:10])[C:3]([H:11])([H:12])[N:4]1[C:5](=[O:6])[H:13])([H:7])([H:8])[H:9]>>[C:1]([C:2]([C:3]([H:11])([H:12])[H:13])([N:4]=[C:5]=[O:6])[H:10])([H:7])([H:8])[H:9]"
C       -1.69820303      -0.17338923       0.47450001
C       -0.21117093      -0.42214180       0.28080776
C        0.30621018      -0.20152135      -1.07068385
N        0.55197105       0.69784913       0.80298665
C        1.81177580       0.74095420       0.39627124
O        2.66332992       1.57875205       0.48927485
H       -1.90693043      -0.14917442       1.54457240
H       -2.29168540      -0.96275328       0.01084628
H       -1.99250191       0.78823323       0.05108627
H        0.07533757      -1.39437280       0.68898308
H        0.72025091      -0.98435437      -1.69639934
H       -0.01950704       0.69432901      -1.58843341
H        1.99112331      -0.21241038      -0.38381194
13
Frame=4 idx=004564 GeodesicLength=0.34022696193519614 rxn_smarts="[C:1]([C@@:2]1([H:10])[C:3]([H:11])([H:12])[N:4]1[C:5](=[O:6])[H:13])([H:7])([H:8])[H:9]>>[C:1]([C:2]([C:3]([H:11])([H:12])[H:13])([N:4]=[C:5]=[O:6])[H:10])([H:7])([H:8])[H:9]"
C       -1.69819848      -0.17250434       0.47504184
C       -0.21301713      -0.42587836       0.28197219
C        0.31378143      -0.19771702      -1.06731454
N        0.55695801       0.69472095       0.78887276
C        1.82281615       0.74667056       0.41359768
O        2.66090540       1.59830182       0.49089984
H       -1.91055206      -0.15504645       1.54478908
H       -2.29275125      -0.95723151       0.00437705
H       -1.99073934       0.79184568       0.05600689
H        0.07451981      -1.39848029       0.68796750
H        0.70362723      -0.99020499      -1.69665743
H       -0.02364374       0.69022710      -1.59225726
H        1.99629396      -0.22470316      -0.38729560
13
Frame=5 idx=004564 GeodesicLength=0.4252695093292228 rxn_smarts="[C:1]([C@@:2]1([H:10])[C:3]([H:11])([H:12])[N:4]1[C:5](=[O:6])[H:13])([H:7])([H:8])[H:9]>>[C:1]([C:2]([C:3]([H:11])([H:12])[H:13])([N:4]=[C:5]=[O:6])[H:10])([H:7])([H:8])[H:9]"
C       -1.69802965      -0.17147399       0.47562581
C       -0.21476306      -0.42966429       0.28299838
C        0.32141642      -0.19429586      -1.06413474
N        0.56230371       0.69108767       0.77482326
C        1.83333780       0.75329821       0.43095034
O        2.65809090       1.61791279       0.49311635
H       -1.91400677      -0.16091096       1.54499481
H       -2.29379647      -0.95132262      -0.00211670
H       -1.98858688       0.79571680       0.06114075
H        0.07368545      -1.40269302       0.68677725
H        0.68678142      -0.99593852      -1.69686951
H       -0.02789276       0.68541771      -1.59628050
H        2.00145989      -0.23713392      -0.39102552
13
Frame=6 idx=004564 GeodesicLength=0.5103043175449837 rxn_smarts="[C:1]([C@@:2]1([H:10])[C:3]([H:11])([H:12])[N:4]1[C:5](=[O:6])[H:13])([H:7])([H:8])[H:9]>>[C:1]([C:2]([C:3]([H:11])([H:12])[H:13])([N:4]=[C:5]=[O:6])[H:10])([H:7])([H:8])[H:9]"
C       -1.69769222      -0.17029206       0.47625227
C       -0.21641005      -0.43351171       0.28389367
C        0.32911707      -0.19126862      -1.06113928
N        0.56801466       0.68692599       0.76085898
C        1.84332419       0.76080986       0.44839166
O        2.65481240       1.63768742       0.49579323
H       -1.91730540      -0.16680698       1.54518526
H       -2.29482505      -0.94497936      -0.00867681
H       -1.98601369       0.79987101       0.06652858
H        0.07281307      -1.40703086       0.68541164
H        0.66972675      -1.00155073      -1.69702914
H       -0.03218725       0.67993224      -1.60046224
H        2.00662553      -0.24978619      -0.39500781
13
Frame=7 idx=004564 GeodesicLength=0.595329101340583 rxn_smarts="[C:1]([C@@:2]1([H:10])[C:3]([H:11])([H:12])[N:4]1[C:5](=[O:6])[H:13])([H:7])([H:8])[H:9]>>[C:1]([C:2]([C:3]([H:11])([H:12])[H:13])([N:4]=[C:5]=[O:6])[H:10])([H:7])([H:8])[H:9]"
C       -1.69718448      -0.16895907       0.47692137
C       -0.21796297      -0.43743510       0.28465651
C        0.33687591      -0.18863014      -1.05833157
N        0.57409435       0.68220897       0.74699957
C        1.85274652       0.76920306       0.46596146
O        2.65103124       1.65768250       0.49885299
H       -1.92044827      -0.17270118       1.54535346
H       -2.29583936      -0.93820982      -0.01527327
H       -1.98300977       0.80429614       0.07215200
H        0.07188102      -1.41151944       0.68385169
H        0.65248635      -1.00702229      -1.69713736
H       -0.03646325       0.67382538      -1.60474205
H        2.01179271      -0.26273901      -0.39926479
13
Frame=8 idx=004564 GeodesicLength=0.6803154282620617 rxn_smarts="[C:1]([C@@:2]1([H:10])[C:3]([H:11])([H:12])[N:4]1[C:5](=[O:6])[H:13])([H:7])([H:8])[H:9]>>[C:1]([C:2]([C:3]([H:11])([H:12])[H:13])([N:4]=[C:5]=[O:6])[H:10])([H:7])([H:8])[H:9]"
C       -1.69650604      -0.16747403       0.47763554
C       -0.21942465      -0.44144538       0.28528778
C        0.34468783      -0.18637988      -1.05571493
N        0.58054808       0.67691379       0.73325997
C        1.86157507       0.77846607       0.48371188
O        2.64669470       1.67793925       0.50220460
H       -1.92343803      -0.17856818       1.54549953
H       -2.29683993      -0.93101764      -0.02188065
H       -1.97956955       0.80898352       0.07799840
H        0.07087387      -1.41617874       0.68208626
H        0.63509779      -1.01232842      -1.69719917
H       -0.04065829       0.66715741      -1.60907293
H        2.01695915      -0.27606777      -0.40381628
13
Frame=9 idx=004564 GeodesicLength=0.7651769870902018 rxn_smarts="[C:1]([C@@:2]1([H:10])[C:3]([H:11])([H:12])[N:4]1[C:5](=[O:6])[H:13])([H:7])([H:8])[H:9]>>[C:1]([C:2]([C:3]([H:11])([H:12])[H:13])([N:4]=[C:5]=[O:6])[H:10])([H:7])([H:8])[H:9]"
C       -1.69566589      -0.16583719       0.47839900
C       -0.22079934      -0.44555682       0.28579058
C        0.35255190      -0.18452040      -1.05329589
N        0.58737782       0.67101617       0.71966929
C        1.86978448       0.78860363       0.50166581
O        2.64177961       1.69849449       0.50577249
H       -1.92628486      -0.18437911       1.54563065
H       -2.29783805      -0.92340980      -0.02847768
H       -1.97570250       0.81392302       0.08405703
H        0.06977789      -1.42103191       0.68010602
H        0.61760205      -1.01744946      -1.69723140
H       -0.04471801       0.65998757      -1.61341256
H        2.02213490      -0.28984018      -0.40867334
13
Frame=10 idx=004564 GeodesicLength=0.8502435864003384 rxn_smarts="[C:1]([C@@:2]1([H:10])[C:3]([H:11])([H:12])[N:4]1[C:5](=[O:6])[H:13])([H:7])([H:8])[H:9]>>[C:1]([C:2]([C:3]([H:11])([H:12])[H:13])([N:4]=[C:5]=[O:6])[H:10])([H:7])([H:8])[H:9]"
C       -1.69462415      -0.16405030       0.47920974
C       -0.22208423      -0.44976771       0.28615945
C        0.36045492      -0.18302400      -1.05105683
N        0.59461167       0.66449611       0.70620391
C        1.87727076       0.79964795       0.51997220
O        2.63617773       1.71939937       0.50942619
H       -1.92894888      -0.19011797       1.54572861
H       -2.29878906      -0.91539349      -0.03502757
H       -1.97134212       0.81909797       0.09031242
H        0.06856293      -1.42608686       0.67788464
H        0.60001205      -1.02235454      -1.69723738
H       -0.04855964       0.65240200      -1.61771045
H        2.02725801      -0.30424854      -0.41386492
13
Frame=11 idx=004564 GeodesicLength=0.9352099713245791 rxn_smarts="[C:1]([C@@:2]1([H:10])[C:3]([H:11])([H:12])[N:4]1[C:5](=[O:6])[H:13])([H:7])([H:8])[H:9]>>[C:1]([C:2]([C:3]([H:11])([H:12])[H:13])([N:4]=[C:5]=[O:6])[H:10])([H:7])([H:8])[H:9]"
C       -1.69340140      -0.16210037       0.48007591
C       -0.22327797      -0.45411069       0.28640366
C        0.36841606      -0.18193093      -1.04901318
N        0.60226156       0.65730564       0.69291005
C        1.88402155       0.81161518       0.53859650
O        2.62984637       1.74069776       0.51311717
H       -1.93146415      -0.19579945       1.54580885
H       -2.29973839      -0.90691020      -0.04156888
H       -1.96649144       0.82454486       0.09681191
H        0.06722802      -1.43138436       0.67542584
H        0.58236806      -1.02706719      -1.69721813
H       -0.05215284       0.64442066      -1.62193977
H        2.03238457      -0.31928090      -0.41940993
13
Frame=12 idx=004564 GeodesicLength=1.0201267107413798 rxn_smarts="[C:1]([C@@:2]1([H:10])[C:3]([H:11])([H:12])[N:4]1[C:5](=[O:6])[H:13])([H:7])([H:8])[H:9]>>[C:1]([C:2]([C:3]([H:11])([H:12])[H:13])([N:4]=[C:5]=[O:6])[H:10])([H:7])([H:8])[H:9]"
C       -1.69197414      -0.15997701       0.48100116
C       -0.22437843      -0.45861242       0.28652878
C        0.37644287      -0.18125539      -1.04714930
N        0.61036001       0.64938604       0.67980878
C        1.88996595       0.82456181       0.55760274
O        2.62266879       1.76247359       0.51670928
H       -1.93382635      -0.20146197       1.54586332
H       -2.30067807      -0.89788720      -0.04814644
H       -1.96107486       0.83030073       0.10361301
H        0.06573977      -1.43696795       0.67271399
H        0.56469305      -1.03159733      -1.69717534
H       -0.05543570       0.63609126      -1.62605783
H        2.03749711      -0.33505414      -0.42531214
13
Frame=13 idx=004564 GeodesicLength=1.1050247480624062 rxn_smarts="[C:1]([C@@:2]1([H:10])[C:3]([H:11])([H:12])[N:4]1[C:5](=[O:6])[H:13])([H:7])([H:8])[H:9]>>[C:1]([C:2]([C:3]([H:11])([H:12])[H:13])([N:4]=[C:5]=[O:6])[H:10])([H:7])([H:8])[H:9]"
C       -1.69031902      -0.15766660       0.48199003
C       -0.22537892      -0.46330070       0.28653766
C        0.38455102      -0.18101551      -1.04545760
N        0.61894431       0.64067331       0.66691988
C        1.89500851       0.83856051       0.57704158
O        2.61452675       1.78479502       0.52009856
H       -1.93603007      -0.20713099       1.54588430
H       -2.30160281      -0.88825125      -0.05479307
H       -1.95502050       0.83640215       0.11077562
H        0.06407321      -1.44288106       0.66972879
H        0.54700323      -1.03595978      -1.69711032
H       -0.05834829       0.62745600      -1.63002470
H        2.04259260      -0.35168110      -0.43159074
13
Frame=14 idx=004564 GeodesicLength=1.189907743508979 rxn_smarts="[C:1]([C@@:2]1([H:10])[C:3]([H:11])([H:12])[N:4]1[C:5](=[O:6])[H:13])([H:7])([H:8])[H:9]>>[C:1]([C:2]([C:3]([H:11])([H:12])[H:13])([N:4]=[C:5]=[O:6])[H:10])([H:7])([H:8])[H:9]"
C       -1.68841696      -0.15516408       0.48304921
C       -0.22627113      -0.46818322       0.28642763
C        0.39274351      -0.18121773      -1.04394284
N        0.62805192       0.63113482       0.65424025
C        1.89903625       0.85367255       0.59698828
O        2.60535378       1.80765980       0.52323576
H       -1.93805427      -0.21277925       1.54587592
H       -2.30249930      -0.87798907      -0.06148450
H       -1.94829122       0.84284125       0.11830363
H        0.06221770      -1.44913619       0.66645399
H        0.52932527      -1.04014479      -1.69703973
H       -0.06085431       0.61856788      -1.63382216
H        2.04765877      -0.36926198      -0.43828544
13
Frame=15 idx=004564 GeodesicLength=1.2747812831264855 rxn_smarts="[C:1]([C@@:2]1([H:10])[C:3]([H:11])([H:12])[N:4]1[C:5](=[O:6])[H:13])([H:7])([H:8])[H:9]>>[C:1]([C:2]([C:3]([H:11])([H:12])[H:13])([N:4]=[C:5]=[O:6])[H:10])([H:7])([H:8])[H:9]"
C       -1.68624278      -0.15244805       0.48419063
C       -0.22704601      -0.47330320       0.28620021
C        0.40104365      -0.18189416      -1.04259600
N        0.63773920       0.62067189       0.64179607
C        1.90192297       0.87001225       0.61747307
O        2.59500721       1.83115354       0.52602815
H       -1.93989512      -0.21843079       1.54583545
H       -2.30336674      -0.86699636      -0.06825703
H       -1.94079848       0.84967139       0.12627716
H        0.06014437      -1.45579987       0.66286228
H        0.51168645      -1.04417341      -1.69698257
H       -0.06289375       0.60946558      -1.63741334
H        2.05269903      -0.38792882      -0.44541407
13
Frame=16 idx=004564 GeodesicLength=1.3596283708159187 rxn_smarts="[C:1]([C@@:2]1([H:10])[C:3]([H:11])([H:12])[N:4]1[C:5](=[O:6])[H:13])([H:7])([H:8])[H:9]>>[C:1]([C:2]([C:3]([H:11])([H:12])[H:13])([N:4]=[C:5]=[O:6])[H:10])([H:7])([H:8])[H:9]"
C       -1.68375559      -0.14950800       0.48542076
C       -0.22768934      -0.47867084       0.28585258
C        0.40946471      -0.18305341      -1.04142280
N        0.64805573       0.60922994       0.62958829
C        1.90347617       0.88767532       0.63857454
O        2.58339147       1.85524865       0.52842573
H       -1.94151242      -0.22405564       1.54576608
H       -2.30417143      -0.85524243      -0.07508282
H       -1.93246779       0.85688961       0.13470496
H        0.05783571      -1.46288908       0.65893333
H        0.49410267      -1.04803674      -1.69695146
H       -0.06442256       0.60020237      -1.64078019
H        2.05769267      -0.40778975      -0.45302900
