6
Frame=0 idx=002552 GeodesicLength=0.0 rxn_smarts="[O:1]=[c:2]1[o:3][n:4][n:5][o:6]1>>[N-:4]=[N+:5]=[O:6].[O:1]=[C:2]=[O:3]"
O        2.01014381       0.14654346      -0.03713816
C        0.88563738      -0.18461209      -0.01027547
O        0.13836761      -1.17197023       0.02656615
N       -1.56433365      -0.52241857       0.03907420
N       -1.31157464       0.60930315       0.00695228
O       -0.15824051       1.12315428      -0.02517899
6
Frame=1 idx=002552 GeodesicLength=0.04656091119752933 rxn_smarts="[O:1]=[c:2]1[o:3][n:4][n:5][o:6]1>>[N-:4]=[N+:5]=[O:6].[O:1]=[C:2]=[O:3]"
O        2.01927118       0.14106011      -0.03536725
C        0.89375627      -0.18592310      -0.01717572
O        0.14381212      -1.17248620       0.02985537
N       -1.57053792      -0.52134210       0.03954673
N       -1.31995856       0.61154402       0.00463087
O       -0.16634309       1.12714727      -0.02149001
6
Frame=2 idx=002552 GeodesicLength=0.09312725795643059 rxn_smarts="[O:1]=[c:2]1[o:3][n:4][n:5][o:6]1>>[N-:4]=[N+:5]=[O:6].[O:1]=[C:2]=[O:3]"
O        2.02851055       0.13537707      -0.03600118
C        0.90202798      -0.18716972      -0.02176289
O        0.14936449      -1.17286932       0.03428625
N       -1.57686378      -0.52031678       0.03785781
N       -1.32845942       0.61382238       0.00282183
O       -0.17457982       1.13115637      -0.01720183
6
Frame=3 idx=002552 GeodesicLength=0.1396844080461807 rxn_smarts="[O:1]=[c:2]1[o:3][n:4][n:5][o:6]1>>[N-:4]=[N+:5]=[O:6].[O:1]=[C:2]=[O:3]"
O        2.03792569       0.12956511      -0.03579403
C        0.91048765      -0.18834879      -0.02429391
O        0.15495179      -1.17324001       0.03677413
N       -1.58327882      -0.51929649       0.03556172
N       -1.33706223       0.61619004       0.00473757
O       -0.18302408       1.13513013      -0.01698549
6
Frame=4 idx=002552 GeodesicLength=0.18624043847548152 rxn_smarts="[O:1]=[c:2]1[o:3][n:4][n:5][o:6]1>>[N-:4]=[N+:5]=[O:6].[O:1]=[C:2]=[O:3]"
O        2.04754134       0.12363402      -0.03443243
C        0.91910761      -0.18948112      -0.02639218
O        0.16057084      -1.17361971       0.03668701
N       -1.58975478      -0.51819181       0.03641399
N       -1.34583344       0.61852667       0.00471966
O       -0.19163157       1.13913196      -0.01699606
6
Frame=5 idx=002552 GeodesicLength=0.2328047914032837 rxn_smarts="[O:1]=[c:2]1[o:3][n:4][n:5][o:6]1>>[N-:4]=[N+:5]=[O:6].[O:1]=[C:2]=[O:3]"
O        2.05734336       0.11754529      -0.03314101
C        0.92789246      -0.19056919      -0.02783495
O        0.16625758      -1.17394092       0.03622194
N       -1.59633492      -0.51708436       0.03713610
N       -1.35474939       0.62088915       0.00524730
O       -0.20040910       1.14316003      -0.01762937
6
Frame=6 idx=002552 GeodesicLength=0.2793907218316818 rxn_smarts="[O:1]=[c:2]1[o:3][n:4][n:5][o:6]1>>[N-:4]=[N+:5]=[O:6].[O:1]=[C:2]=[O:3]"
O        2.06734912       0.11130111      -0.03151165
C        0.93685345      -0.19159806      -0.02869941
O        0.17199425      -1.17423676       0.03443047
N       -1.60300222      -0.51592995       0.03934038
N       -1.36383411       0.62323971       0.00479694
O       -0.20936049       1.14722396      -0.01835674
6
Frame=7 idx=002552 GeodesicLength=0.32595695628360716 rxn_smarts="[O:1]=[c:2]1[o:3][n:4][n:5][o:6]1>>[N-:4]=[N+:5]=[O:6].[O:1]=[C:2]=[O:3]"
O        2.07751379       0.10482715      -0.03243384
C        0.94594409      -0.19262729      -0.02924517
O        0.17788086      -1.17430380       0.03619591
N       -1.60982584      -0.51487695       0.03746996
N       -1.37305949       0.62564019       0.00573170
O       -0.21845341       1.15134069      -0.01771856
6
Frame=8 idx=002552 GeodesicLength=0.37252960321624723 rxn_smarts="[O:1]=[c:2]1[o:3][n:4][n:5][o:6]1>>[N-:4]=[N+:5]=[O:6].[O:1]=[C:2]=[O:3]"
O        2.08789542       0.09820734      -0.03191055
C        0.95522114      -0.19360090      -0.02961066
O        0.18380711      -1.17436200       0.03569829
N       -1.61672615      -0.51375966       0.03782585
N       -1.38245255       0.62803875       0.00627279
O       -0.22774498       1.15547647      -0.01827573
6
Frame=9 idx=002552 GeodesicLength=0.4191148830342646 rxn_smarts="[O:1]=[c:2]1[o:3][n:4][n:5][o:6]1>>[N-:4]=[N+:5]=[O:6].[O:1]=[C:2]=[O:3]"
O        2.09847734       0.09139272      -0.03204636
C        0.96465988      -0.19454807      -0.02991633
O        0.18983222      -1.17429817       0.03597373
N       -1.62374829      -0.51265164       0.03752579
N       -1.39201596       0.63044623       0.00662687
O       -0.23720519       1.15965894      -0.01816370
6
Frame=10 idx=002552 GeodesicLength=0.4657021404124122 rxn_smarts="[O:1]=[c:2]1[o:3][n:4][n:5][o:6]1>>[N-:4]=[N+:5]=[O:6].[O:1]=[C:2]=[O:3]"
O        2.10924874       0.08436901      -0.03273960
C        0.97428711      -0.19544871      -0.02966535
O        0.19595144      -1.17411832       0.03646288
N       -1.63088867      -0.51155074       0.03681843
N       -1.40175094       0.63286735       0.00701005
O       -0.24684768       1.16388142      -0.01788642
6
Frame=11 idx=002552 GeodesicLength=0.512295828842858 rxn_smarts="[O:1]=[c:2]1[o:3][n:4][n:5][o:6]1>>[N-:4]=[N+:5]=[O:6].[O:1]=[C:2]=[O:3]"
O        2.12025002       0.07716819      -0.03220748
C        0.98409527      -0.19631800      -0.02990413
O        0.20214560      -1.17385831       0.03591100
N       -1.63813261      -0.51042073       0.03699889
N       -1.41165767       0.63530646       0.00792198
O       -0.25670061       1.16812239      -0.01872026
6
Frame=12 idx=002552 GeodesicLength=0.5588991796356458 rxn_smarts="[O:1]=[c:2]1[o:3][n:4][n:5][o:6]1>>[N-:4]=[N+:5]=[O:6].[O:1]=[C:2]=[O:3]"
O        2.13146211       0.06974209      -0.03232199
C        0.99409170      -0.19715006      -0.02989215
O        0.20844605      -1.17345075       0.03616942
N       -1.64551162      -0.50931362       0.03606944
N       -1.42173781       0.63776875       0.00943180
O       -0.26675044       1.17240359      -0.01945653
6
Frame=13 idx=002552 GeodesicLength=0.6055017816318042 rxn_smarts="[O:1]=[c:2]1[o:3][n:4][n:5][o:6]1>>[N-:4]=[N+:5]=[O:6].[O:1]=[C:2]=[O:3]"
O        2.14289866       0.06208844      -0.03280087
C        1.00428990      -0.19792637      -0.02939009
O        0.21483808      -1.17292329       0.03630624
N       -1.65301334      -0.50819811       0.03527987
N       -1.43201197       0.64022972       0.01051366
O       -0.27700132       1.17672962      -0.01990880
6
Frame=14 idx=002552 GeodesicLength=0.6521154649821942 rxn_smarts="[O:1]=[c:2]1[o:3][n:4][n:5][o:6]1>>[N-:4]=[N+:5]=[O:6].[O:1]=[C:2]=[O:3]"
O        2.15455599       0.05420975      -0.03318967
C        1.01469465      -0.19864236      -0.02898750
O        0.22131174      -1.17231447       0.03502381
N       -1.66059772      -0.50700355       0.03796953
N       -1.44255257       0.64260725       0.00693577
O       -0.28741209       1.18114338      -0.01775195
6
Frame=15 idx=002552 GeodesicLength=0.6987242787367495 rxn_smarts="[O:1]=[c:2]1[o:3][n:4][n:5][o:6]1>>[N-:4]=[N+:5]=[O:6].[O:1]=[C:2]=[O:3]"
O        2.16646232       0.04609509      -0.03383889
C        1.02532959      -0.19930404      -0.02742633
O        0.22788274      -1.17154439       0.03477193
N       -1.66837035      -0.50589795       0.03646225
N       -1.45319184       0.64511902       0.00956864
O       -0.29811245       1.18553227      -0.01953760
6
Frame=16 idx=002552 GeodesicLength=0.7453250674312318 rxn_smarts="[O:1]=[c:2]1[o:3][n:4][n:5][o:6]1>>[N-:4]=[N+:5]=[O:6].[O:1]=[C:2]=[O:3]"
O        2.17857655       0.03766948      -0.03693814
C        1.03617499      -0.19989954      -0.02503022
O        0.23458522      -1.17057128       0.03593700
N       -1.67626572      -0.50478917       0.03518001
N       -1.46409508       0.64755428       0.00831928
O       -0.30897596       1.19003623      -0.01746793
