16
Frame=0 idx=007630 GeodesicLength=0.0 rxn_smarts="[C:1]([C@:2]12[C:3]([H:11])([H:12])[C@@:4]1([H:13])[C@@:5]1([H:14])[N:6]([H:15])[C@@:7]21[H:16])([H:8])([H:9])[H:10]>>[C:1]([C:2][C@@:7]1([H:16])[C@:5]([C:4](=[C:3]([H:11])[H:12])[H:13])([H:14])[N:6]1[H:15])([H:8])([H:9])[H:10]"
C        1.50266501      -0.75106922       0.95499352
C        0.63740457      -0.76439466      -0.26336146
C        0.41224992       1.25831338      -1.17095861
C       -0.35067065       1.26791792      -0.06727249
C       -1.50394797       0.33008128       0.14756927
N       -1.83091689      -0.65561552      -0.86956094
C       -0.82962066      -0.97795095       0.12126230
H        1.06115327      -0.42129802       1.90527282
H        2.45335144      -0.24503758       0.78749062
H        1.74961016      -1.81691355       1.06991047
H        1.35800703       1.78425225      -1.18435722
H        0.09030026       0.84592060      -2.11492561
H        0.00264813       1.78517511       0.81898828
H       -2.30025559       0.61502742       0.82359013
H       -1.40317303      -0.46554266      -1.76886229
H       -1.04880499      -1.78886580       0.81022118
16
Frame=1 idx=007630 GeodesicLength=0.05199678268023185 rxn_smarts="[C:1]([C@:2]12[C:3]([H:11])([H:12])[C@@:4]1([H:13])[C@@:5]1([H:14])[N:6]([H:15])[C@@:7]21[H:16])([H:8])([H:9])[H:10]>>[C:1]([C:2][C@@:7]1([H:16])[C@:5]([C:4](=[C:3]([H:11])[H:12])[H:13])([H:14])[N:6]1[H:15])([H:8])([H:9])[H:10]"
C        1.50707730      -0.76389674       0.96600915
C        0.63645233      -0.74418398      -0.24774940
C        0.40956155       1.25936949      -1.18242702
C       -0.34885568       1.27017874      -0.07117751
C       -1.50419629       0.33309629       0.14229372
N       -1.82711117      -0.65695667      -0.86903448
C       -0.82764917      -0.97706173       0.12616660
H        1.06474983      -0.45855242       1.92387686
H        2.45431069      -0.24752901       0.81059442
H        1.76025632      -1.83071200       1.05364366
H        1.34895873       1.79640094      -1.20365882
H        0.07668503       0.85710477      -2.12733988
H       -0.00145720       1.80160081       0.80875076
H       -2.30012877       0.61656527       0.81935010
H       -1.39698906      -0.47212538      -1.76822971
H       -1.05166444      -1.78329838       0.81893153
16
Frame=2 idx=007630 GeodesicLength=0.10341924541908962 rxn_smarts="[C:1]([C@:2]12[C:3]([H:11])([H:12])[C@@:4]1([H:13])[C@@:5]1([H:14])[N:6]([H:15])[C@@:7]21[H:16])([H:8])([H:9])[H:10]>>[C:1]([C:2][C@@:7]1([H:16])[C@:5]([C:4](=[C:3]([H:11])[H:12])[H:13])([H:14])[N:6]1[H:15])([H:8])([H:9])[H:10]"
C        1.51157604      -0.77675900       0.97656489
C        0.63523580      -0.72383725      -0.23139575
C        0.40716223       1.26000561      -1.19358709
C       -0.34732028       1.27272739      -0.07516539
C       -1.50463600       0.33624505       0.13690010
N       -1.82309901      -0.65841182      -0.86845907
C       -0.82574705      -0.97591681       0.13149824
H        1.06877795      -0.49707558       1.94185987
H        2.45511225      -0.24997814       0.83375336
H        1.77135077      -1.84377338       1.03613633
H        1.34008149       1.80794736      -1.22237763
H        0.06333085       0.86813439      -2.13932672
H       -0.00633046       1.81857868       0.79815290
H       -2.30043401       0.61836014       0.81465639
H       -1.39030384      -0.47899520      -1.76740749
H       -1.05475672      -1.77725143       0.82819707
16
Frame=3 idx=007630 GeodesicLength=0.15428270082773576 rxn_smarts="[C:1]([C@:2]12[C:3]([H:11])([H:12])[C@@:4]1([H:13])[C@@:5]1([H:14])[N:6]([H:15])[C@@:7]21[H:16])([H:8])([H:9])[H:10]>>[C:1]([C:2][C@@:7]1([H:16])[C@:5]([C:4](=[C:3]([H:11])[H:12])[H:13])([H:14])[N:6]1[H:15])([H:8])([H:9])[H:10]"
C        1.51616526      -0.78964335       0.98664538
C        0.63374358      -0.70332268      -0.21426733
C        0.40506030       1.26021252      -1.20442620
C       -0.34608783       1.27557030      -0.07923382
C       -1.50527757       0.33951915       0.13139263
N       -1.81887566      -0.65998640      -0.86782606
C       -0.82392059      -0.97450781       0.13727075
H        1.07327139      -0.53684581       1.95912438
H        2.45578184      -0.25245082       0.85697449
H        1.78282765      -1.85603278       1.01739281
H        1.33140150       1.81887189      -1.24049895
H        0.05028088       0.87898892      -2.15087406
H       -0.01200380       1.83611555       0.78716960
H       -2.30117881       0.62038942       0.80952420
H       -1.38310681      -0.48614940      -1.76637664
H       -1.05808133      -1.77072870       0.83800883
16
Frame=4 idx=007630 GeodesicLength=0.2045894283247663 rxn_smarts="[C:1]([C@:2]12[C:3]([H:11])([H:12])[C@@:4]1([H:13])[C@@:5]1([H:14])[N:6]([H:15])[C@@:7]21[H:16])([H:8])([H:9])[H:10]>>[C:1]([C:2][C@@:7]1([H:16])[C@:5]([C:4](=[C:3]([H:11])[H:12])[H:13])([H:14])[N:6]1[H:15])([H:8])([H:9])[H:10]"
C        1.52084805      -0.80253439       0.99622981
C        0.63196166      -0.68260734      -0.19632637
C        0.40326424       1.25998021      -1.21492276
C       -0.34518504       1.27871193      -0.08337849
C       -1.50613267       0.34290851       0.12577361
N       -1.81443254      -0.66168636      -0.86712684
C       -0.82217542      -0.97282615       0.14349809
H        1.07826875      -0.57781282       1.97556028
H        2.45635272      -0.25502949       0.88024035
H        1.79460655      -1.86742552       0.99742695
H        1.32294441       1.82915346      -1.25799465
H        0.03758659       0.88964486      -2.16196300
H       -0.01851602       1.85421182       0.77577693
H       -2.30237344       0.62262812       0.80396249
H       -1.37538270      -0.49358397      -1.76511529
H       -1.06163513      -1.76373288       0.84835887
16
Frame=5 idx=007630 GeodesicLength=0.2543385095391243 rxn_smarts="[C:1]([C@:2]12[C:3]([H:11])([H:12])[C@@:4]1([H:13])[C@@:5]1([H:14])[N:6]([H:15])[C@@:7]21[H:16])([H:8])([H:9])[H:10]>>[C:1]([C:2][C@@:7]1([H:16])[C@:5]([C:4](=[C:3]([H:11])[H:12])[H:13])([H:14])[N:6]1[H:15])([H:8])([H:9])[H:10]"
C        1.52563044      -0.81540940       1.00528883
C        0.62987091      -0.66165734      -0.17753589
C        0.40178889       1.25930738      -1.22504947
C       -0.34464036       1.28215894      -0.08758707
C       -1.50722182       0.34639732       0.12004728
N       -1.80976761      -0.66352827      -0.86635869
C       -0.82052614      -0.97086935       0.15019520
H        1.08382338      -0.61988722       1.99105833
H        2.45687715      -0.25779963       0.90350103
H        1.80658426      -1.87789251       0.97625908
H        1.31475660       1.83877112      -1.27482318
H        0.02531741       0.90007460      -2.17257857
H       -0.02590456       1.87286755       0.76396631
H       -2.30404428       0.62504333       0.79798217
H       -1.36711779      -0.50130156      -1.76361119
H       -1.06542647      -1.75627497       0.85924583
16
Frame=6 idx=007630 GeodesicLength=0.3035269998069236 rxn_smarts="[C:1]([C@:2]12[C:3]([H:11])([H:12])[C@@:4]1([H:13])[C@@:5]1([H:14])[N:6]([H:15])[C@@:7]21[H:16])([H:8])([H:9])[H:10]>>[C:1]([C:2][C@@:7]1([H:16])[C@:5]([C:4](=[C:3]([H:11])[H:12])[H:13])([H:14])[N:6]1[H:15])([H:8])([H:9])[H:10]"
C        1.53051877      -0.82825483       1.01379814
C        0.62745630      -0.64043951      -0.15784744
C        0.40064172       1.25818107      -1.23477366
C       -0.34449264       1.28591346      -0.09185571
C       -1.50856321       0.34997833       0.11421233
N       -1.80486579      -0.66551062      -0.86551345
C       -0.81897532      -0.96862621       0.15737813
H        1.08997259      -0.66298492       2.00550125
H        2.45740807      -0.26087362       0.92669750
H        1.81867612      -1.88738199       0.95391950
H        1.30685708       1.84770536      -1.29094216
H        0.01354225       0.91024772      -2.18269908
H       -0.03423274       1.89207445       0.75171152
H       -2.30621326       0.62761387       0.79158439
H       -1.35828677      -0.50928911      -1.76183979
H       -1.06944315      -1.74835346       0.87066853
16
Frame=7 idx=007630 GeodesicLength=0.35211447958999104 rxn_smarts="[C:1]([C@:2]12[C:3]([H:11])([H:12])[C@@:4]1([H:13])[C@@:5]1([H:14])[N:6]([H:15])[C@@:7]21[H:16])([H:8])([H:9])[H:10]>>[C:1]([C:2][C@@:7]1([H:16])[C@:5]([C:4](=[C:3]([H:11])[H:12])[H:13])([H:14])[N:6]1[H:15])([H:8])([H:9])[H:10]"
C        1.53550310      -0.84102305       1.02169617
C        0.62467007      -0.61891748      -0.13721066
C        0.39985203       1.25659173      -1.24403563
C       -0.34475868       1.28996954      -0.09616015
C       -1.51017629       0.35362654       0.10826527
N       -1.79972563      -0.66766522      -0.86458399
C       -0.81755606      -0.96609207       0.16507271
H        1.09678270      -0.70699834       2.01876132
H        2.45797066      -0.26427434       0.94972913
H        1.83076107      -1.89580425       0.93037119
H        1.29932883       1.85590088      -1.30625517
H        0.00236281       0.92010597      -2.19227860
H       -0.04351499       1.91180612       0.73901620
H       -2.30891160       0.63030396       0.78474395
H       -1.34886982      -0.51756862      -1.75977351
H       -1.07371820      -1.73996138       0.88264176
16
Frame=8 idx=007630 GeodesicLength=0.4001740819417302 rxn_smarts="[C:1]([C@:2]12[C:3]([H:11])([H:12])[C@@:4]1([H:13])[C@@:5]1([H:14])[N:6]([H:15])[C@@:7]21[H:16])([H:8])([H:9])[H:10]>>[C:1]([C:2][C@@:7]1([H:16])[C@:5]([C:4](=[C:3]([H:11])[H:12])[H:13])([H:14])[N:6]1[H:15])([H:8])([H:9])[H:10]"
C        1.54059156      -0.85373123       1.02897653
C        0.62150224      -0.59702520      -0.11554536
C        0.39943042       1.25452834      -1.25281753
C       -0.34547012       1.29434429      -0.10050450
C       -1.51207830       0.35734656       0.10220082
N       -1.79432210      -0.67000522      -0.86355313
C       -0.81626759      -0.96324227       0.17331616
H        1.10425265      -0.75197567       2.03075183
H        2.45862097      -0.26811216       0.97261054
H        1.84280211      -1.90313466       0.90556186
H        1.29215707       1.86340724      -1.32078348
H       -0.00815603       0.92961096      -2.20132422
H       -0.05382608       1.93210590       0.72582911
H       -2.31216889       0.63311546       0.77745089
H       -1.33881842      -0.52616672      -1.75738011
H       -1.07824948      -1.73106562       0.89521058
16
Frame=9 idx=007630 GeodesicLength=0.44759439030384984 rxn_smarts="[C:1]([C@:2]12[C:3]([H:11])([H:12])[C@@:4]1([H:13])[C@@:5]1([H:14])[N:6]([H:15])[C@@:7]21[H:16])([H:8])([H:9])[H:10]>>[C:1]([C:2][C@@:7]1([H:16])[C@:5]([C:4](=[C:3]([H:11])[H:12])[H:13])([H:14])[N:6]1[H:15])([H:8])([H:9])[H:10]"
C        1.54573862      -0.86632099       1.03552448
C        0.61787455      -0.57473339      -0.09276970
C        0.39939888       1.25197396      -1.26100647
C       -0.34665982       1.29903481      -0.10486132
C       -1.51427001       0.36112138       0.09600279
N       -1.78859563      -0.67256891      -0.86238760
C       -0.81513075      -0.96006529       0.18215892
H        1.11246200      -0.79777298       2.04128414
H        2.45932628      -0.27239738       0.99515177
H        1.85462102      -1.90926977       0.87939067
H        1.28541354       1.87012418      -1.33434883
H       -0.01786299       0.93865660      -2.20972541
H       -0.06520918       1.95293713       0.71213892
H       -2.31600792       0.63604031       0.76961455
H       -1.32805118      -0.53511950      -1.75457921
H       -1.08304740      -1.72164017       0.90841232
16
Frame=10 idx=007630 GeodesicLength=0.4945223663890038 rxn_smarts="[C:1]([C@:2]12[C:3]([H:11])([H:12])[C@@:4]1([H:13])[C@@:5]1([H:14])[N:6]([H:15])[C@@:7]21[H:16])([H:8])([H:9])[H:10]>>[C:1]([C:2][C@@:7]1([H:16])[C@:5]([C:4](=[C:3]([H:11])[H:12])[H:13])([H:14])[N:6]1[H:15])([H:8])([H:9])[H:10]"
C        1.55100187      -0.87881037       1.04134287
C        0.61377328      -0.55196502      -0.06877622
C        0.39979834       1.24891183      -1.26859476
C       -0.34837660       1.30405225      -0.10923529
C       -1.51683191       0.36495896       0.08965712
N       -1.78258043      -0.67536417      -0.86109025
C       -0.81419146      -0.95652053       0.19166725
H        1.12146157      -0.84452775       2.05030869
H        2.46020085      -0.27720337       1.01738893
H        1.86627927      -1.91413603       0.85173640
H        1.27915355       1.87608144      -1.34696892
H       -0.02665451       0.94718806      -2.21753916
H       -0.07774974       1.97431716       0.69791767
H       -2.32056526       0.63908905       0.76120612
H       -1.31654916      -0.54445243      -1.75137495
H       -1.08816964      -1.71161907       0.92235449
16
Frame=11 idx=007630 GeodesicLength=0.5409891021287326 rxn_smarts="[C:1]([C@:2]12[C:3]([H:11])([H:12])[C@@:4]1([H:13])[C@@:5]1([H:14])[N:6]([H:15])[C@@:7]21[H:16])([H:8])([H:9])[H:10]>>[C:1]([C:2][C@@:7]1([H:16])[C@:5]([C:4](=[C:3]([H:11])[H:12])[H:13])([H:14])[N:6]1[H:15])([H:8])([H:9])[H:10]"
C        1.55635710      -0.89118922       1.04633552
C        0.60912084      -0.52862373      -0.04340219
C        0.40066749       1.24531373      -1.27549309
C       -0.35065465       1.30941952      -0.11362191
C       -1.51978326       0.36886683       0.08312849
N       -1.77620857      -0.67845271      -0.85961078
C       -0.81348203      -0.95255591       0.20195412
H        1.13131244      -0.89241442       2.05764874
H        2.46121274      -0.28252483       1.03930461
H        1.87770670      -1.91759899       0.82229874
H        1.27341453       1.88126082      -1.35855416
H       -0.03438032       0.95507817      -2.22470198
H       -0.09152294       1.99628910       0.68310211
H       -2.32590972       0.64229941       0.75209048
H       -1.30418317      -0.55427924      -1.74766688
H       -1.09366717      -1.70088854       0.93718817
16
Frame=12 idx=007630 GeodesicLength=0.5870435881383801 rxn_smarts="[C:1]([C@:2]12[C:3]([H:11])([H:12])[C@@:4]1([H:13])[C@@:5]1([H:14])[N:6]([H:15])[C@@:7]21[H:16])([H:8])([H:9])[H:10]>>[C:1]([C:2][C@@:7]1([H:16])[C@:5]([C:4](=[C:3]([H:11])[H:12])[H:13])([H:14])[N:6]1[H:15])([H:8])([H:9])[H:10]"
C        1.56179234      -0.90344600       1.05040725
C        0.60383874      -0.50460959      -0.01646052
C        0.40206671       1.24113288      -1.28160512
C       -0.35353801       1.31515496      -0.11802276
C       -1.52316309       0.37285490       0.07638540
N       -1.76943207      -0.68188446      -0.85789457
C       -0.81305044      -0.94811077       0.21314416
H        1.14206917      -0.94164992       2.06308949
H        2.46234496      -0.28836703       1.06088983
H        1.88888311      -1.91946588       0.79076021
H        1.26825409       1.88563752      -1.36901179
H       -0.04085677       0.96217168      -2.23116306
H       -0.10662802       2.01889381       0.66761764
H       -2.33213914       0.64571389       0.74213833
H       -1.29083597      -0.56469933      -1.74334985
H       -1.09960560      -1.68932666       0.95307535
16
Frame=13 idx=007630 GeodesicLength=0.6327684418863424 rxn_smarts="[C:1]([C@:2]12[C:3]([H:11])([H:12])[C@@:4]1([H:13])[C@@:5]1([H:14])[N:6]([H:15])[C@@:7]21[H:16])([H:8])([H:9])[H:10]>>[C:1]([C:2][C@@:7]1([H:16])[C@:5]([C:4](=[C:3]([H:11])[H:12])[H:13])([H:14])[N:6]1[H:15])([H:8])([H:9])[H:10]"
C        1.56731000      -0.91556622       1.05343138
C        0.59782678      -0.47979192       0.01229274
C        0.40406919       1.23631640      -1.28681194
C       -0.35709546       1.32128502      -0.12244426
C       -1.52703832       0.37693862       0.06938005
N       -1.76219945      -0.68572028      -0.85587870
C       -0.81296742      -0.94310089       0.22540513
H        1.15384353      -0.99253815       2.06635945
H        2.46358994      -0.29473260       1.08215877
H        1.89978869      -1.91947448       0.75669561
H        1.26376590       1.88915323      -1.37821075
H       -0.04585270       0.96827194      -2.23686660
H       -0.12319460       2.04218220       0.65137222
H       -2.33940715       0.64938446       0.73117247
H       -1.27635778      -0.57584164      -1.73829788
H       -1.10608117      -1.67676569       0.97024228
16
Frame=14 idx=007630 GeodesicLength=0.678235439604439 rxn_smarts="[C:1]([C@:2]12[C:3]([H:11])([H:12])[C@@:4]1([H:13])[C@@:5]1([H:14])[N:6]([H:15])[C@@:7]21[H:16])([H:8])([H:9])[H:10]>>[C:1]([C:2][C@@:7]1([H:16])[C@:5]([C:4](=[C:3]([H:11])[H:12])[H:13])([H:14])[N:6]1[H:15])([H:8])([H:9])[H:10]"
C        1.57288051      -0.92752441       1.05524033
C        0.59096242      -0.45400858       0.04317137
C        0.40677823       1.23078900      -1.29094248
C       -0.36139853       1.32784486      -0.12689556
C       -1.53145827       0.38113081       0.06206073
N       -1.75440909      -0.69005147      -0.85346325
C       -0.81330004      -0.93742826       0.23894467
H        1.16671283      -1.04540897       2.06706179
H        2.46493143      -0.30167933       1.10306356
H        1.91033038      -1.91728814       0.71960476
H        1.26003026       1.89177371      -1.38597736
H       -0.04906935       0.97312030      -2.24170916
H       -0.14141541       2.06625413       0.63422951
H       -2.34785000       0.65336849       0.71898309
H       -1.26053269      -0.58788042      -1.73231936
H       -1.11319268      -1.66301172       0.98894739
16
Frame=15 idx=007630 GeodesicLength=0.7234562568726569 rxn_smarts="[C:1]([C@:2]12[C:3]([H:11])([H:12])[C@@:4]1([H:13])[C@@:5]1([H:14])[N:6]([H:15])[C@@:7]21[H:16])([H:8])([H:9])[H:10]>>[C:1]([C:2][C@@:7]1([H:16])[C@:5]([C:4](=[C:3]([H:11])[H:12])[H:13])([H:14])[N:6]1[H:15])([H:8])([H:9])[H:10]"
C        1.57845287      -0.93920432       1.05557216
C        0.58306287      -0.42712798       0.07648515
C        0.41032685       1.22445293      -1.29373678
C       -0.36653494       1.33483045      -0.13134238
C       -1.53649014       0.38540677       0.05437676
N       -1.74598016      -0.69497349      -0.85057307
C       -0.81416717      -0.93100959       0.25395521
H        1.18085477      -1.10027591       2.06471356
H        2.46637090      -0.30922926       1.12333057
H        1.92025653      -1.91248179       0.67903997
H        1.25726492       1.89331104      -1.39195467
H       -0.05011515       0.97640338      -2.24553849
H       -0.16144074       2.09109314       0.61614341
H       -2.35762977       0.65767071       0.70534723
H       -1.24315574      -0.60097114      -1.72523194
H       -1.12107590      -1.64789493       1.00941330
16
Frame=16 idx=007630 GeodesicLength=0.7686297374725193 rxn_smarts="[C:1]([C@:2]12[C:3]([H:11])([H:12])[C@@:4]1([H:13])[C@@:5]1([H:14])[N:6]([H:15])[C@@:7]21[H:16])([H:8])([H:9])[H:10]>>[C:1]([C:2][C@@:7]1([H:16])[C@:5]([C:4](=[C:3]([H:11])[H:12])[H:13])([H:14])[N:6]1[H:15])([H:8])([H:9])[H:10]"
C        1.58400053      -0.95054403       1.05416212
C        0.57394843      -0.39891473       0.11273883
C        0.41490803       1.21718935      -1.29492146
C       -0.37261796       1.34227806      -0.13580898
C       -1.54223830       0.38977144       0.04624967
N       -1.73679382      -0.70061135      -0.84705465
C       -0.81569869      -0.92370297       0.27076044
H        1.19640604      -1.15759331       2.05867725
H        2.46794765      -0.31748116       1.14282958
H        1.92938649      -1.90448535       0.63428284
H        1.25565067       1.89369664      -1.39585372
H       -0.04849947       0.97772163      -2.24819597
H       -0.18357522       2.11683546       0.59688474
H       -2.36899333       0.66234196       0.68995810
H       -1.22391863      -0.61534565      -1.71674123
H       -1.12991241      -1.63115600       1.03203244
