15
Frame=0 idx=008652 GeodesicLength=0.0 rxn_smarts="[C:1]([C@@:2]1([H:11])[O:3][C:4]12[C:5]([H:12])([H:13])[O:6][C:7]2([H:14])[H:15])([H:8])([H:9])[H:10]>>[C:1]([C@@:2]1([H:11])[O:3][C@:4]12[C:5]([H:12])([H:13])[O+:6]=[C-:7]2)([H:8])([H:9])[H:10].[H:14][H:15]"
C        2.01934597      -0.31162064       0.70163489
C        0.95884590       0.67319450       0.32059277
O        0.62142437       0.75615214      -1.06939092
C       -0.33675516       0.25025655      -0.19914986
C       -1.74254841       0.77054452       0.03574698
O       -2.13948685      -0.60579272       0.25475612
C       -0.95492739      -1.14139095      -0.15088700
H        2.01413709      -0.46924038       1.78169940
H        1.84341102      -1.26959916       0.21240796
H        3.00443003       0.05907308       0.41349919
H        1.00183040       1.64673696       0.80568316
H       -1.94975806       1.40739060       0.89673066
H       -2.21395853       1.15808603      -0.87296032
H       -1.13867624      -1.13625595      -1.85977930
H       -0.98731408      -1.78753463      -1.27058368
15
Frame=1 idx=008652 GeodesicLength=0.06512736129705216 rxn_smarts="[C:1]([C@@:2]1([H:11])[O:3][C:4]12[C:5]([H:12])([H:13])[O:6][C:7]2([H:14])[H:15])([H:8])([H:9])[H:10]>>[C:1]([C@@:2]1([H:11])[O:3][C@:4]12[C:5]([H:12])([H:13])[O+:6]=[C-:7]2)([H:8])([H:9])[H:10].[H:14][H:15]"
C        2.01706245      -0.31355859       0.69254052
C        0.95606443       0.67624942       0.32521358
O        0.61682802       0.77333693      -1.06301230
C       -0.34136470       0.26050930      -0.19595786
C       -1.74583026       0.78494974       0.03760594
O       -2.15246245      -0.59105080       0.23935398
C       -0.96316866      -1.12837414      -0.15205675
H        2.00987202      -0.48932524       1.76978220
H        1.84311024      -1.26351229       0.18714583
H        3.00221973       0.06268416       0.41200535
H        1.00097302       1.64424432       0.82112911
H       -1.95264330       1.41283045       0.90535859
H       -2.21188065       1.18689357      -0.86736198
H       -1.11338448      -1.18510784      -1.85979215
H       -0.96539541      -1.83076899      -1.25195407
15
Frame=2 idx=008652 GeodesicLength=0.13022109359639136 rxn_smarts="[C:1]([C@@:2]1([H:11])[O:3][C:4]12[C:5]([H:12])([H:13])[O:6][C:7]2([H:14])[H:15])([H:8])([H:9])[H:10]>>[C:1]([C@@:2]1([H:11])[O:3][C@:4]12[C:5]([H:12])([H:13])[O+:6]=[C-:7]2)([H:8])([H:9])[H:10].[H:14][H:15]"
C        2.01433929      -0.31555707       0.68305190
C        0.95311039       0.67934427       0.32956045
O        0.61218961       0.79101996      -1.05676027
C       -0.34616138       0.27116985      -0.19317438
C       -1.74916693       0.79975936       0.03979027
O       -2.16574445      -0.57588530       0.22176302
C       -0.97176085      -1.11491492      -0.15503197
H        2.00510387      -0.50948850       1.75715231
H        1.84219776      -1.25714185       0.16156313
H        2.99967195       0.06587517       0.41029489
H        1.00007084       1.64153560       0.83648370
H       -1.95561617       1.41720437       0.91519828
H       -2.20958084       1.21759923      -0.86061217
H       -1.08597456      -1.23589664      -1.85856321
H       -0.94267852      -1.87462353      -1.23071597
15
Frame=3 idx=008652 GeodesicLength=0.19520450481701995 rxn_smarts="[C:1]([C@@:2]1([H:11])[O:3][C:4]12[C:5]([H:12])([H:13])[O:6][C:7]2([H:14])[H:15])([H:8])([H:9])[H:10]>>[C:1]([C@@:2]1([H:11])[O:3][C@:4]12[C:5]([H:12])([H:13])[O+:6]=[C-:7]2)([H:8])([H:9])[H:10].[H:14][H:15]"
C        2.01115990      -0.31760872       0.67320072
C        0.94998285       0.68246811       0.33359290
O        0.60755300       0.80919069      -1.05066507
C       -0.35111779       0.28222407      -0.19086732
C       -1.75253135       0.81491270       0.04232606
O       -2.17923632      -0.56028508       0.20183526
C       -0.98067247      -1.10101433      -0.16011353
H        1.99984366      -0.52957597       1.74386263
H        1.84063513      -1.25053582       0.13581245
H        2.99676998       0.06859235       0.40832623
H        0.99911089       1.63860868       0.85166376
H       -1.95866780       1.42030013       0.92629318
H       -2.20703494       1.25021823      -0.85254616
H       -1.05646363      -1.28857527      -1.85595900
H       -0.91933110      -1.91891976      -1.20676212
15
Frame=4 idx=008652 GeodesicLength=0.2600378376838304 rxn_smarts="[C:1]([C@@:2]1([H:11])[O:3][C:4]12[C:5]([H:12])([H:13])[O:6][C:7]2([H:14])[H:15])([H:8])([H:9])[H:10]>>[C:1]([C@@:2]1([H:11])[O:3][C@:4]12[C:5]([H:12])([H:13])[O+:6]=[C-:7]2)([H:8])([H:9])[H:10].[H:14][H:15]"
C        2.00753287      -0.31970235       0.66302214
C        0.94669859       0.68561738       0.33728085
O        0.60298545       0.82785434      -1.04475657
C       -0.35619779       0.29366159      -0.18910963
C       -1.75590524       0.83033977       0.04522502
O       -2.19284346      -0.54422925       0.17944698
C       -0.98986736      -1.08666829      -0.16762181
H        1.99410276      -0.54946731       1.72997818
H        1.83842543      -1.24373231       0.11000151
H        2.99353485       0.07081504       0.40609477
H        0.99809137       1.63546605       0.86662101
H       -1.96180601       1.42190797       0.93865471
H       -2.20423198       1.28472168      -0.84301327
H       -1.02492403      -1.34311273      -1.85183918
H       -0.89559543      -1.96347157      -1.17998471
15
Frame=5 idx=008652 GeodesicLength=0.32466477855371395 rxn_smarts="[C:1]([C@@:2]1([H:11])[O:3][C:4]12[C:5]([H:12])([H:13])[O:6][C:7]2([H:14])[H:15])([H:8])([H:9])[H:10]>>[C:1]([C@@:2]1([H:11])[O:3][C@:4]12[C:5]([H:12])([H:13])[O+:6]=[C-:7]2)([H:8])([H:9])[H:10].[H:14][H:15]"
C        2.00346712      -0.32182722       0.65254236
C        0.94327508       0.68879404       0.34060335
O        0.59856591       0.84705368      -1.03904949
C       -0.36134663       0.30547838      -0.18797385
C       -1.75925423       0.84595441       0.04847347
O       -2.20641458      -0.52769730       0.15455733
C       -0.99926810      -1.07186434      -0.17788381
H        1.98784757      -0.56912852       1.71554181
H        1.83561405      -1.23673756       0.08415921
H        2.98998306       0.07256946       0.40365221
H        0.99699151       1.63209971       0.88134086
H       -1.96503028       1.42183851       0.95221831
H       -2.20115329       1.32099397      -0.83190045
H       -0.99148655      -1.39946353      -1.84602335
H       -0.87179063      -2.00806370      -1.15025796
15
Frame=6 idx=008652 GeodesicLength=0.38897337034403967 rxn_smarts="[C:1]([C@@:2]1([H:11])[O:3][C:4]12[C:5]([H:12])([H:13])[O:6][C:7]2([H:14])[H:15])([H:8])([H:9])[H:10]>>[C:1]([C@@:2]1([H:11])[O:3][C@:4]12[C:5]([H:12])([H:13])[O+:6]=[C-:7]2)([H:8])([H:9])[H:10].[H:14][H:15]"
C        1.99898871      -0.32398019       0.64180094
C        0.93973076       0.69197661       0.34357828
O        0.59435437       0.86680987      -1.03351528
C       -0.36651856       0.31765606      -0.18750437
C       -1.76256371       0.86163770       0.05203851
O       -2.21979293      -0.51066596       0.12717690
C       -1.00880533      -1.05657281      -0.19127045
H        1.98118574      -0.58841140       1.70063674
H        1.83218857      -1.22960951       0.05842615
H        2.98613006       0.07380725       0.40093149
H        0.99579836       1.62846937       0.89585474
H       -1.96835679       1.41992356       0.96684634
H       -2.19782577       1.35881544      -0.81912465
H       -0.95637908      -1.45750389      -1.83835429
H       -0.84813440      -2.05235210      -1.11752105
15
Frame=7 idx=008652 GeodesicLength=0.4529563379010199 rxn_smarts="[C:1]([C@@:2]1([H:11])[O:3][C:4]12[C:5]([H:12])([H:13])[O:6][C:7]2([H:14])[H:15])([H:8])([H:9])[H:10]>>[C:1]([C@@:2]1([H:11])[O:3][C@:4]12[C:5]([H:12])([H:13])[O+:6]=[C-:7]2)([H:8])([H:9])[H:10].[H:14][H:15]"
C        1.99411233      -0.32615781       0.63075698
C        0.93607660       0.69517686       0.34621071
O        0.59043666       0.88728320      -1.02812385
C       -0.37164756       0.33022632      -0.18777895
C       -1.76579571       0.87731308       0.05585413
O       -2.23282263      -0.49307657       0.09726796
C       -1.01835754      -1.04072048      -0.20810470
H        1.97398762      -0.60753175       1.68518412
H        1.82828986      -1.22225175       0.03256805
H        2.98199766       0.07465029       0.39808438
H        0.99445032       1.62451517       0.91026677
H       -1.97180425       1.41597161       0.98238906
H       -2.19420922       1.39804489      -0.80463133
H       -0.91970847      -1.51732435      -1.82849286
H       -0.82500566      -2.09611873      -1.08145047
15
Frame=8 idx=008652 GeodesicLength=0.5165653609784507 rxn_smarts="[C:1]([C@@:2]1([H:11])[O:3][C:4]12[C:5]([H:12])([H:13])[O:6][C:7]2([H:14])[H:15])([H:8])([H:9])[H:10]>>[C:1]([C@@:2]1([H:11])[O:3][C@:4]12[C:5]([H:12])([H:13])[O+:6]=[C-:7]2)([H:8])([H:9])[H:10].[H:14][H:15]"
C        1.98889331      -0.32840557       0.61936182
C        0.93231399       0.69836337       0.34857599
O        0.58685435       0.90862218      -1.02274655
C       -0.37671033       0.34320669      -0.18882033
C       -1.76899894       0.89289277       0.05982760
O       -2.24539070      -0.47486924       0.06483601
C       -1.02784367      -1.02421978      -0.22879814
H        1.96638686      -0.62656114       1.66911938
H        1.82397585      -1.21469553       0.00651155
H        2.97762444       0.07505342       0.39502152
H        0.99288478       1.62012664       0.92477156
H       -1.97549355       1.40989387       0.99858003
H       -2.19038264       1.43846037      -0.78840737
H       -0.88158045      -1.57891110      -1.81607775
H       -0.80253330      -2.13895695      -1.04175532
15
Frame=9 idx=008652 GeodesicLength=0.5804251886070547 rxn_smarts="[C:1]([C@@:2]1([H:11])[O:3][C:4]12[C:5]([H:12])([H:13])[O:6][C:7]2([H:14])[H:15])([H:8])([H:9])[H:10]>>[C:1]([C@@:2]1([H:11])[O:3][C@:4]12[C:5]([H:12])([H:13])[O+:6]=[C-:7]2)([H:8])([H:9])[H:10].[H:14][H:15]"
C        1.98347160      -0.33069332       0.60749032
C        0.92857267       0.70166231       0.35074029
O        0.58398530       0.93120836      -1.01733993
C       -0.38159140       0.35671246      -0.19077030
C       -1.77222258       0.90838911       0.06389719
O       -2.25756683      -0.45601938       0.02974624
C       -1.03720336      -1.00701017      -0.25385991
H        1.95808453      -0.64596047       1.65222685
H        1.81965253      -1.20674105      -0.02042549
H        2.97331438       0.07534341       0.39213080
H        0.99108886       1.61535570       0.93979017
H       -1.97963841       1.40158639       1.01538621
H       -2.18632501       1.48000559      -0.77040028
H       -0.84217115      -1.64292956      -1.80068525
H       -0.78145112      -2.18090938      -0.99792693
15
Frame=10 idx=008652 GeodesicLength=0.642689647787133 rxn_smarts="[C:1]([C@@:2]1([H:11])[O:3][C:4]12[C:5]([H:12])([H:13])[O:6][C:7]2([H:14])[H:15])([H:8])([H:9])[H:10]>>[C:1]([C@@:2]1([H:11])[O:3][C@:4]12[C:5]([H:12])([H:13])[O+:6]=[C-:7]2)([H:8])([H:9])[H:10].[H:14][H:15]"
C        1.97746951      -0.33310634       0.59516794
C        0.92451750       0.70465877       0.35267062
O        0.58117629       0.95488305      -1.01166060
C       -0.38628180       0.37057297      -0.19361936
C       -1.77510374       0.92326691       0.06779840
O       -2.26834890      -0.43644694      -0.00759686
C       -1.04591664      -0.98861280      -0.28374757
H        1.94943486      -0.66548940       1.63448255
H        1.81470104      -1.19827316      -0.04760662
H        2.96820659       0.07504910       0.38891110
H        0.98874595       1.60937094       0.95501702
H       -1.98360992       1.39042563       1.03199617
H       -2.18204975       1.52175435      -0.75076778
H       -0.80178005      -1.70799281      -1.78153177
H       -0.76116094      -2.22006027      -0.94951325
15
Frame=11 idx=008652 GeodesicLength=0.7054429758319256 rxn_smarts="[C:1]([C@@:2]1([H:11])[O:3][C:4]12[C:5]([H:12])([H:13])[O:6][C:7]2([H:14])[H:15])([H:8])([H:9])[H:10]>>[C:1]([C@@:2]1([H:11])[O:3][C@:4]12[C:5]([H:12])([H:13])[O+:6]=[C-:7]2)([H:8])([H:9])[H:10].[H:14][H:15]"
C        1.97151495      -0.33565215       0.58221600
C        0.92057171       0.70774089       0.35463848
O        0.57941762       0.98036710      -1.00554945
C       -0.39066973       0.38500888      -0.19751573
C       -1.77819019       0.93779756       0.07153355
O       -2.27855600      -0.41638857      -0.04733176
C       -1.05421327      -0.96925885      -0.31938940
H        1.94030740      -0.68575166       1.61563509
H        1.81005467      -1.18941423      -0.07606253
H        2.96349654       0.07462256       0.38578692
H        0.98603764       1.60276308       0.97142022
H       -1.98839401       1.37692852       1.04858462
H       -2.17789682       1.56395330      -0.72945387
H       -0.76057202      -1.77566089      -1.75834432
H       -0.74290850      -2.25705553      -0.89616782
15
Frame=12 idx=008652 GeodesicLength=0.7676597223801688 rxn_smarts="[C:1]([C@@:2]1([H:11])[O:3][C:4]12[C:5]([H:12])([H:13])[O:6][C:7]2([H:14])[H:15])([H:8])([H:9])[H:10]>>[C:1]([C@@:2]1([H:11])[O:3][C@:4]12[C:5]([H:12])([H:13])[O+:6]=[C-:7]2)([H:8])([H:9])[H:10].[H:14][H:15]"
C        1.96535148      -0.33835040       0.56818312
C        0.91649362       0.71064505       0.35664039
O        0.57840488       1.00829132      -0.99865997
C       -0.39460135       0.40015494      -0.20281653
C       -1.78105923       0.95163106       0.07470689
O       -2.28732672      -0.39557781      -0.09028422
C       -1.06138672      -0.94812176      -0.36179541
H        1.93029796      -0.70782533       1.59471773
H        1.80595748      -1.17914451      -0.10705397
H        2.95857349       0.07438279       0.38336192
H        0.98240559       1.59437814       0.98955893
H       -1.99348000       1.35990783       1.06462906
H       -2.17363678       1.60632973      -0.70647730
H       -0.71881436      -1.84636525      -1.72903774
H       -0.72717934      -2.29033581      -0.83567289
15
Frame=13 idx=008652 GeodesicLength=0.8292988733807001 rxn_smarts="[C:1]([C@@:2]1([H:11])[O:3][C:4]12[C:5]([H:12])([H:13])[O:6][C:7]2([H:14])[H:15])([H:8])([H:9])[H:10]>>[C:1]([C@@:2]1([H:11])[O:3][C@:4]12[C:5]([H:12])([H:13])[O+:6]=[C-:7]2)([H:8])([H:9])[H:10].[H:14][H:15]"
C        1.95885774      -0.34140049       0.55306816
C        0.91220298       0.71315593       0.35875903
O        0.57832383       1.03869437      -0.99073203
C       -0.39803273       0.41578192      -0.20950396
C       -1.78378763       0.96430461       0.07721834
O       -2.29440067      -0.37457624      -0.13555399
C       -1.06723470      -0.92512867      -0.41199217
H        1.91966175      -0.73133981       1.57188352
H        1.80190475      -1.16803756      -0.13987918
H        2.95334110       0.07368238       0.38063124
H        0.97778894       1.58402063       1.00934402
H       -1.99906359       1.33936415       1.07960881
H       -2.16954030       1.64792155      -0.68200437
H       -0.67643317      -1.91873619      -1.69284635
H       -0.71358831      -2.31770657      -0.76800106
15
Frame=14 idx=008652 GeodesicLength=0.8900235409887066 rxn_smarts="[C:1]([C@@:2]1([H:11])[O:3][C:4]12[C:5]([H:12])([H:13])[O:6][C:7]2([H:14])[H:15])([H:8])([H:9])[H:10]>>[C:1]([C@@:2]1([H:11])[O:3][C@:4]12[C:5]([H:12])([H:13])[O+:6]=[C-:7]2)([H:8])([H:9])[H:10].[H:14][H:15]"
C        1.95250931      -0.34457895       0.53690200
C        0.90787092       0.71514642       0.36114380
O        0.57934521       1.07168256      -0.98137772
C       -0.40059175       0.43159636      -0.21780433
C       -1.78615190       0.97509526       0.07859793
O       -2.29902924      -0.35405558      -0.18323581
C       -1.07077266      -0.90017056      -0.47043749
H        1.90877369      -0.75646551       1.54687332
H        1.79866738      -1.15551441      -0.17483388
H        2.94811735       0.07310546       0.37830341
H        0.97191878       1.57117695       1.03119908
H       -2.00489371       1.31450646       1.09284325
H       -2.16573823       1.68750582      -0.65657216
H       -0.63583433      -1.99187899      -1.64860965
H       -0.70419081      -2.33715128      -0.69299173
15
Frame=15 idx=008652 GeodesicLength=0.9506677837775995 rxn_smarts="[C:1]([C@@:2]1([H:11])[O:3][C:4]12[C:5]([H:12])([H:13])[O:6][C:7]2([H:14])[H:15])([H:8])([H:9])[H:10]>>[C:1]([C@@:2]1([H:11])[O:3][C@:4]12[C:5]([H:12])([H:13])[O+:6]=[C-:7]2)([H:8])([H:9])[H:10].[H:14][H:15]"
C        1.94675304      -0.34796411       0.51938849
C        0.90360868       0.71643353       0.36391223
O        0.58172276       1.10741412      -0.97015524
C       -0.40213555       0.44729953      -0.22784130
C       -1.78833553       0.98348524       0.07848065
O       -2.30122927      -0.33440662      -0.23472534
C       -1.07142322      -0.87343259      -0.53704330
H        1.89808641      -0.78355347       1.51916700
H        1.79687231      -1.14152669      -0.21239660
H        2.94341014       0.07276437       0.37620269
H        0.96453419       1.55537960       1.05554887
H       -2.01166014       1.28433493       1.10385206
H       -2.16229300       1.72481528      -0.63019661
H       -0.59823411      -2.06468994      -1.59435420
H       -0.69967671      -2.34635318      -0.60983940
15
Frame=16 idx=008652 GeodesicLength=1.0112382009474035 rxn_smarts="[C:1]([C@@:2]1([H:11])[O:3][C:4]12[C:5]([H:12])([H:13])[O:6][C:7]2([H:14])[H:15])([H:8])([H:9])[H:10]>>[C:1]([C@@:2]1([H:11])[O:3][C@:4]12[C:5]([H:12])([H:13])[O+:6]=[C-:7]2)([H:8])([H:9])[H:10].[H:14][H:15]"
C        1.94212097      -0.35122895       0.50100688
C        0.89960677       0.71678003       0.36699492
O        0.58524038       1.14443339      -0.95709824
C       -0.40242396       0.46193244      -0.23921762
C       -1.79011147       0.98853148       0.07655497
O       -2.30057501      -0.31620841      -0.29043276
C       -1.06828609      -0.84624144      -0.60836049
H        1.88870059      -0.81130826       1.48954044
H        1.79677354      -1.12640715      -0.25106133
H        2.93951009       0.07296265       0.37396169
H        0.95564764       1.53668954       1.08153030
H       -2.01942180       1.24810322       1.11185279
H       -2.15885881       1.75848644      -0.60341547
H       -0.56689183      -2.13293613      -1.53061622
H       -0.70103101      -2.34358886      -0.52123986
