13
Frame=0 idx=011635 GeodesicLength=0.0 rxn_smarts="[C:1]([C@:2]12[C:3]([H:11])([H:12])[C@@:4]1([H:13])[C:5](=[O:6])[O:7]2)([H:8])([H:9])[H:10]>>[C:1]([C:3]([C@:4]1([H:13])[C-:2]=[O+:7][C:5]1=[O:6])([H:11])[H:12])([H:8])([H:9])[H:10]"
C       -1.58990398      -0.26123323       0.09515989
C        0.05565856      -0.92087940      -0.46960373
C       -0.09003852       0.90072913      -0.02659183
C        1.04470283       0.22963336      -0.68256782
C        1.85778552      -0.49186195       0.34719170
O        2.97213719      -0.52189564       0.74186078
O        0.80668657      -1.31324930       0.69600358
H       -2.03486607       0.54459368       0.69300851
H       -1.71387113      -1.16095539       0.69389486
H       -2.14493007      -0.35552099      -0.83137612
H        0.01984147       1.15113692       1.01972573
H       -0.59837006       1.63782960      -0.63514793
H        1.41516772       0.56167327      -1.64155756
13
Frame=1 idx=011635 GeodesicLength=0.06290434838726554 rxn_smarts="[C:1]([C@:2]12[C:3]([H:11])([H:12])[C@@:4]1([H:13])[C:5](=[O:6])[O:7]2)([H:8])([H:9])[H:10]>>[C:1]([C:3]([C@:4]1([H:13])[C-:2]=[O+:7][C:5]1=[O:6])([H:11])[H:12])([H:8])([H:9])[H:10]"
C       -1.60025980      -0.25796427       0.08899705
C        0.06166328      -0.92965902      -0.43764271
C       -0.09035770       0.89758570      -0.01764432
C        1.03994420       0.22075544      -0.68103092
C        1.87376745      -0.48665588       0.34262635
O        2.99077458      -0.49939693       0.72924899
O        0.83297690      -1.31639662       0.71119720
H       -2.05453678       0.53341372       0.69858614
H       -1.74912992      -1.16936614       0.66447869
H       -2.14134075      -0.32794878      -0.84847988
H        0.02742008       1.15426645       1.02668274
H       -0.58345213       1.64710421      -0.62389483
H        1.39253057       0.53426212      -1.65312449
13
Frame=2 idx=011635 GeodesicLength=0.1257431623086119 rxn_smarts="[C:1]([C@:2]12[C:3]([H:11])([H:12])[C@@:4]1([H:13])[C:5](=[O:6])[O:7]2)([H:8])([H:9])[H:10]>>[C:1]([C:3]([C@:4]1([H:13])[C-:2]=[O+:7][C:5]1=[O:6])([H:11])[H:12])([H:8])([H:9])[H:10]"
C       -1.61062461      -0.25448218       0.08235273
C        0.06756053      -0.93828528      -0.40334752
C       -0.09062350       0.89452051      -0.00792375
C        1.03453101       0.21122729      -0.67911130
C        1.89000795      -0.48118264       0.33761772
O        3.00981063      -0.47631263       0.71480744
O        0.86048857      -1.31913768       0.72729229
H       -2.07513615       0.52180123       0.70310868
H       -1.78477389      -1.17729069       0.63257508
H       -2.13666513      -0.29985162      -0.86574627
H        0.03523000       1.15741132       1.03430915
H       -0.56786572       1.65644743      -0.61175092
H        1.36806030       0.50513495      -1.66418334
13
Frame=3 idx=011635 GeodesicLength=0.18848802537232912 rxn_smarts="[C:1]([C@:2]12[C:3]([H:11])([H:12])[C@@:4]1([H:13])[C:5](=[O:6])[O:7]2)([H:8])([H:9])[H:10]>>[C:1]([C:3]([C@:4]1([H:13])[C-:2]=[O+:7][C:5]1=[O:6])([H:11])[H:12])([H:8])([H:9])[H:10]"
C       -1.62094522      -0.25078637       0.07519288
C        0.07333635      -0.94665060      -0.36654563
C       -0.09084408       0.89158789       0.00261491
C        1.02838786       0.20100853      -0.67673802
C        1.90643525      -0.47545866       0.33212723
O        3.02915572      -0.45269601       0.69839862
O        0.88924468      -1.32145836       0.74425687
H       -2.09668674       0.50970750       0.70648343
H       -1.82052767      -1.18467060       0.59801127
H       -2.13085624      -0.27124692      -0.88314048
H        0.04329194       1.16064148       1.04263860
H       -0.55161080       1.66583870      -0.59872418
H        1.34161895       0.47418342      -1.67457548
13
Frame=4 idx=011635 GeodesicLength=0.25111227774171185 rxn_smarts="[C:1]([C@:2]12[C:3]([H:11])([H:12])[C@@:4]1([H:13])[C:5](=[O:6])[O:7]2)([H:8])([H:9])[H:10]>>[C:1]([C:3]([C@:4]1([H:13])[C-:2]=[O+:7][C:5]1=[O:6])([H:11])[H:12])([H:8])([H:9])[H:10]"
C       -1.63115504      -0.24688099       0.06748686
C        0.07897606      -0.95462012      -0.32707741
C       -0.09103099       0.88885603       0.01400674
C        1.02143717       0.19006568      -0.67383191
C        1.92295321      -0.46951165       0.32611947
O        3.04868481      -0.42862466       0.67990112
O        0.91924063      -1.32335367       0.76202878
H       -2.11919227       0.49706062       0.70863234
H       -1.85604305      -1.19145915       0.56062440
H       -2.12387978      -0.24214727      -0.90061173
H        0.05162896       1.16405343       1.05168940
H       -0.53469546       1.67525829      -0.58485030
H        1.31307576       0.44130346      -1.68411777
13
Frame=5 idx=011635 GeodesicLength=0.3135851508935793 rxn_smarts="[C:1]([C@:2]12[C:3]([H:11])([H:12])[C@@:4]1([H:13])[C:5](=[O:6])[O:7]2)([H:8])([H:9])[H:10]>>[C:1]([C:3]([C@:4]1([H:13])[C-:2]=[O+:7][C:5]1=[O:6])([H:11])[H:12])([H:8])([H:9])[H:10]"
C       -1.64117185      -0.24277638       0.05921181
C        0.08446261      -0.96202542      -0.28481199
C       -0.09119925       0.88640776       0.02626906
C        1.01360209       0.17837650      -0.67030589
C        1.93943624      -0.46338327       0.31956609
O        3.06823053      -0.40420755       0.65922406
O        0.95043071      -1.32483043       0.78050448
H       -2.14262814       0.48375740       0.70950066
H       -1.89088879      -1.19762477       0.52027158
H       -2.11572444      -0.21255951      -0.91808304
H        0.06026937       1.16777523       1.06145322
H       -0.51713841       1.68468375      -0.57020343
H        1.28231932       0.40640670      -1.69259662
13
Frame=6 idx=011635 GeodesicLength=0.37590386942649534 rxn_smarts="[C:1]([C@:2]12[C:3]([H:11])([H:12])[C@@:4]1([H:13])[C:5](=[O:6])[O:7]2)([H:8])([H:9])[H:10]>>[C:1]([C:3]([C@:4]1([H:13])[C-:2]=[O+:7][C:5]1=[O:6])([H:11])[H:12])([H:8])([H:9])[H:10]"
C       -1.65090164      -0.23849080       0.05036069
C        0.08978102      -0.96866721      -0.23965970
C       -0.09137170       0.88434821       0.03939184
C        1.00481598       0.16593527      -0.66607242
C        1.95573466      -0.45713705       0.31245136
O        3.08759179      -0.37959745       0.63631880
O        0.98272015      -1.32592002       0.79954274
H       -2.16694632       0.46965270       0.70908145
H       -1.92455691      -1.20316653       0.47683669
H       -2.10641217      -0.18247422      -0.93544557
H        0.06923729       1.17198068       1.07188820
H       -0.49897583       1.69410156      -0.55491485
H        1.24928368       0.36943486      -1.69977924
13
Frame=7 idx=011635 GeodesicLength=0.4380326694006885 rxn_smarts="[C:1]([C@:2]12[C:3]([H:11])([H:12])[C@@:4]1([H:13])[C:5](=[O:6])[O:7]2)([H:8])([H:9])[H:10]>>[C:1]([C:3]([C@:4]1([H:13])[C-:2]=[O+:7][C:5]1=[O:6])([H:11])[H:12])([H:8])([H:9])[H:10]"
C       -1.66023355      -0.23404973       0.04093506
C        0.09492733      -0.97431968      -0.19162015
C       -0.09156417       0.88278064       0.05333067
C        0.99502807       0.15276395      -0.66103730
C        1.97164799      -0.45083755       0.30478056
O        3.10648314      -0.35497298       0.61123602
O        1.01593878      -1.32667089       0.81892053
H       -2.19203423       0.45456830       0.70738591
H       -1.95641496      -1.20809051       0.43027467
H       -2.09603029      -0.15187112      -0.95254664
H        0.07858816       1.17685570       1.08289620
H       -0.48024467       1.70347904      -0.53914931
H        1.21390840       0.33036482      -1.70540622
13
Frame=8 idx=011635 GeodesicLength=0.4999306739057464 rxn_smarts="[C:1]([C@:2]12[C:3]([H:11])([H:12])[C@@:4]1([H:13])[C:5](=[O:6])[O:7]2)([H:8])([H:9])[H:10]>>[C:1]([C:3]([C@:4]1([H:13])[C-:2]=[O+:7][C:5]1=[O:6])([H:11])[H:12])([H:8])([H:9])[H:10]"
C       -1.66904964      -0.22949696       0.03100735
C        0.09988093      -0.97870935      -0.14085905
C       -0.09181401       0.88184537       0.06795958
C        0.98422716       0.13892883      -0.65514391
C        1.98695730      -0.44462123       0.29657668
O        3.12459182      -0.33060644       0.58416951
O        1.04980824      -1.32722131       0.83831101
H       -2.21775644       0.43828919       0.70452553
H       -1.98578296      -1.21242278       0.38071992
H       -2.08473866      -0.12079073      -0.96914897
H        0.08834809       1.18265227       1.09429917
H       -0.46104724       1.71278903      -0.52321749
H        1.17637543       0.28936410      -1.70919932
13
Frame=9 idx=011635 GeodesicLength=0.5616524463888389 rxn_smarts="[C:1]([C@:2]12[C:3]([H:11])([H:12])[C@@:4]1([H:13])[C:5](=[O:6])[O:7]2)([H:8])([H:9])[H:10]>>[C:1]([C:3]([C@:4]1([H:13])[C-:2]=[O+:7][C:5]1=[O:6])([H:11])[H:12])([H:8])([H:9])[H:10]"
C       -1.67725546      -0.22487722       0.02065911
C        0.10467440      -0.98159661      -0.08765024
C       -0.09216802       0.88168497       0.08311499
C        0.97245642       0.12453794      -0.64835911
C        2.00144755      -0.43862326       0.28791140
O        3.14160687      -0.30681882       0.55543312
O        1.08400315      -1.32775783       0.85736497
H       -2.24396171       0.42058196       0.70066447
H       -2.01193012      -1.21622094       0.32841081
H       -2.07279821      -0.08922969      -0.98501485
H        0.09853701       1.18963484       1.10588406
H       -0.44150888       1.72203362      -0.50746263
H        1.13689699       0.24665103      -1.71095611
13
Frame=10 idx=011635 GeodesicLength=0.6229644383232398 rxn_smarts="[C:1]([C@:2]12[C:3]([H:11])([H:12])[C@@:4]1([H:13])[C:5](=[O:6])[O:7]2)([H:8])([H:9])[H:10]>>[C:1]([C:3]([C@:4]1([H:13])[C-:2]=[O+:7][C:5]1=[O:6])([H:11])[H:12])([H:8])([H:9])[H:10]"
C       -1.68471133      -0.22025649       0.01003811
C        0.10922513      -0.98266027      -0.03235256
C       -0.09260427       0.88239524       0.09859401
C        0.95973062       0.10971433      -0.64063129
C        2.01482519      -0.43295722       0.27882156
O        3.15711176      -0.28380396       0.52541190
O        1.11801268      -1.32838678       0.87562556
H       -2.27035522       0.40110488       0.69598441
H       -2.03420995      -1.21954304       0.27355215
H       -2.06042279      -0.05720362      -0.99976129
H        0.10928508       1.19801926       1.11729838
H       -0.42163507       1.73111093      -0.49221961
H        1.09574817       0.20246674      -1.71036132
13
Frame=11 idx=011635 GeodesicLength=0.6844331960403122 rxn_smarts="[C:1]([C@:2]12[C:3]([H:11])([H:12])[C@@:4]1([H:13])[C:5](=[O:6])[O:7]2)([H:8])([H:9])[H:10]>>[C:1]([C:3]([C@:4]1([H:13])[C-:2]=[O+:7][C:5]1=[O:6])([H:11])[H:12])([H:8])([H:9])[H:10]"
C       -1.69144205      -0.21565948      -0.00074006
C        0.11369541      -0.98179187       0.02472161
C       -0.09325215       0.88417893       0.11420575
C        0.94621212       0.09461170      -0.63203576
C        2.02707313      -0.42783074       0.26945318
O        3.17110428      -0.26202632       0.49445652
O        1.15159756      -1.32945895       0.89293758
H       -2.29700278       0.37960728       0.69078365
H       -2.05204834      -1.22251275       0.21649949
H       -2.04799379      -0.02458452      -1.01326205
H        0.12043761       1.20811818       1.12839692
H       -0.40168864       1.74021871      -0.47791228
H        1.05330763       0.15712983      -1.70750455
13
Frame=12 idx=011635 GeodesicLength=0.7453433903579462 rxn_smarts="[C:1]([C@:2]12[C:3]([H:11])([H:12])[C@@:4]1([H:13])[C:5](=[O:6])[O:7]2)([H:8])([H:9])[H:10]>>[C:1]([C:3]([C@:4]1([H:13])[C-:2]=[O+:7][C:5]1=[O:6])([H:11])[H:12])([H:8])([H:9])[H:10]"
C       -1.69723516      -0.21117157      -0.01162923
C        0.11798194      -0.97864902       0.08301614
C       -0.09394259       0.88695262       0.12975471
C        0.93182317       0.07937395      -0.62244166
C        2.03772419      -0.42320027       0.25988401
O        3.18294753      -0.24153291       0.46307436
O        1.18404257      -1.33081243       0.90871571
H       -2.32320358       0.35570134       0.68501802
H       -2.06481694      -1.22498289       0.15755700
H       -2.03578441       0.00846246      -1.02510626
H        0.13240261       1.21993233       1.13871139
H       -0.38144311       1.74899428      -0.46465768
H        1.00950379       0.11093211      -1.70189651
13
Frame=13 idx=011635 GeodesicLength=0.8065394605025124 rxn_smarts="[C:1]([C@:2]12[C:3]([H:11])([H:12])[C@@:4]1([H:13])[C:5](=[O:6])[O:7]2)([H:8])([H:9])[H:10]>>[C:1]([C:3]([C@:4]1([H:13])[C-:2]=[O+:7][C:5]1=[O:6])([H:11])[H:12])([H:8])([H:9])[H:10]"
C       -1.70223152      -0.20678860      -0.02240870
C        0.12225509      -0.97321562       0.14227216
C       -0.09485743       0.89094831       0.14508176
C        0.91682195       0.06417767      -0.61201953
C        2.04699895      -0.41933905       0.25020488
O        3.19299048      -0.22274900       0.43154895
O        1.21519878      -1.33293504       0.92293491
H       -2.34934351       0.32920050       0.67894115
H       -2.07229714      -1.22706610       0.09713451
H       -2.02408468       0.04205201      -1.03518782
H        0.14486816       1.23372950       1.14815536
H       -0.36124480       1.75777386      -0.45282160
H        0.96492567       0.06421157      -1.69383602
13
Frame=14 idx=011635 GeodesicLength=0.8681309681054543 rxn_smarts="[C:1]([C@:2]12[C:3]([H:11])([H:12])[C@@:4]1([H:13])[C:5](=[O:6])[O:7]2)([H:8])([H:9])[H:10]>>[C:1]([C:3]([C@:4]1([H:13])[C-:2]=[O+:7][C:5]1=[O:6])([H:11])[H:12])([H:8])([H:9])[H:10]"
C       -1.70634603      -0.20255659      -0.03307689
C        0.12657347      -0.96529871       0.20231801
C       -0.09595367       0.89622117       0.16010311
C        0.90118008       0.04915977      -0.60070300
C        2.05473362      -0.41623393       0.24056665
O        3.20114172      -0.20602012       0.39990078
O        1.24465899      -1.33572067       0.93559496
H       -2.37512140       0.29959247       0.67258709
H       -2.07411708      -1.22868498       0.03521241
H       -2.01311353       0.07624667      -1.04336858
H        0.15795872       1.24963405       1.15653779
H       -0.34103228       1.76652062      -0.44251378
H        0.91943741       0.01714025      -1.68315855
13
Frame=15 idx=011635 GeodesicLength=0.9299555189576408 rxn_smarts="[C:1]([C@:2]12[C:3]([H:11])([H:12])[C@@:4]1([H:13])[C:5](=[O:6])[O:7]2)([H:8])([H:9])[H:10]>>[C:1]([C:3]([C@:4]1([H:13])[C-:2]=[O+:7][C:5]1=[O:6])([H:11])[H:12])([H:8])([H:9])[H:10]"
C       -1.70955987      -0.19852643      -0.04334936
C        0.13093470      -0.95483992       0.26255929
C       -0.09719721       0.90272125       0.17461617
C        0.88499266       0.03450752      -0.58864840
C        2.06076687      -0.41401540       0.23090989
O        3.20708473      -0.19123233       0.36884600
O        1.27187475      -1.33942733       0.94625056
H       -2.40029003       0.26680629       0.66590931
H       -2.07002945      -1.22967079      -0.02747763
H       -2.00296461       0.11085113      -1.04931980
H        0.17173280       1.26748595       1.16353698
H       -0.32077803       1.77515544      -0.43390187
H        0.87343268      -0.02981539      -1.66993113
13
Frame=16 idx=011635 GeodesicLength=0.9924389307190746 rxn_smarts="[C:1]([C@:2]12[C:3]([H:11])([H:12])[C@@:4]1([H:13])[C:5](=[O:6])[O:7]2)([H:8])([H:9])[H:10]>>[C:1]([C:3]([C@:4]1([H:13])[C-:2]=[O+:7][C:5]1=[O:6])([H:11])[H:12])([H:8])([H:9])[H:10]"
C       -1.71198849      -0.19470810      -0.05324105
C        0.13551308      -0.94182383       0.32268269
C       -0.09861373       0.91050883       0.18857673
C        0.86839587       0.02037753      -0.57587027
C        2.06526393      -0.41274916       0.22137085
O        3.21122585      -0.17885270       0.33838849
O        1.29662878      -1.34394099       0.95507628
H       -2.42481953       0.23055184       0.65881770
H       -2.06009501      -1.22980114      -0.09069575
H       -1.99398255       0.14565616      -1.05305415
H        0.18616441       1.28734418       1.16907703
H       -0.30063212       1.78373371      -0.42695851
H        0.82693951      -0.07629632      -1.65417005
