12
Frame=0 idx=009786 GeodesicLength=0.0 rxn_smarts="[N:1]([c:2]1[c:3]([H:10])[c:4]([O:5][H:11])[c:6]([H:12])[o:7]1)([H:8])[H:9]>>[N:1]([C:2]#[C:3][C@:4]([O:5][H:11])([C:6](=[O:7])[H:12])[H:10])([H:8])[H:9]"
N       -2.29677598      -0.31575365      -0.37286604
C       -0.94430657      -0.15430214      -0.11328075
C        0.08786403      -1.03785018       0.00030285
C        1.22448162      -0.07412752       0.10644079
O        2.48746166      -0.39968795       0.50226886
C        0.71365137       1.24756584       0.19184799
O       -0.57441123       1.18949675      -0.00719721
H       -2.90450016       0.11025540       0.31193105
H       -2.51034151      -1.29424469      -0.48603111
H        1.05340528      -0.12892403      -1.04384467
H        2.49320498      -1.35839646       0.58900525
H        1.17026651       2.21596866       0.32142299
12
Frame=1 idx=009786 GeodesicLength=0.12226561212545077 rxn_smarts="[N:1]([c:2]1[c:3]([H:10])[c:4]([O:5][H:11])[c:6]([H:12])[o:7]1)([H:8])[H:9]>>[N:1]([C:2]#[C:3][C@:4]([O:5][H:11])([C:6](=[O:7])[H:12])[H:10])([H:8])[H:9]"
N       -2.30493020      -0.32623486      -0.36407799
C       -0.95222313      -0.15524418      -0.11958642
C        0.08871015      -1.02170595      -0.01286980
C        1.22793791      -0.06660000       0.09458538
O        2.48545359      -0.39600603       0.50682896
C        0.72361863       1.25858867       0.17164028
O       -0.56449766       1.21559186      -0.02340410
H       -2.90877210       0.09519717       0.32665128
H       -2.51841071      -1.30352352      -0.48599683
H        1.05303049      -0.16130038      -1.06827374
H        2.48492940      -1.35303283       0.60812301
H        1.18515363       2.21427003       0.36637997
12
Frame=2 idx=009786 GeodesicLength=0.24454597509567355 rxn_smarts="[N:1]([c:2]1[c:3]([H:10])[c:4]([O:5][H:11])[c:6]([H:12])[o:7]1)([H:8])[H:9]>>[N:1]([C:2]#[C:3][C@:4]([O:5][H:11])([C:6](=[O:7])[H:12])[H:10])([H:8])[H:9]"
N       -2.31270886      -0.33682230      -0.35523936
C       -0.96002720      -0.15621517      -0.12585052
C        0.08967163      -1.00506305      -0.02571197
C        1.23161256      -0.05858642       0.08209411
O        2.48334371      -0.39195823       0.51100682
C        0.73400719       1.27018135       0.15191954
O       -0.55376842       1.24255885      -0.04111835
H       -2.91260505       0.08075674       0.34094653
H       -2.52639895      -1.31288251      -0.48507588
H        1.05263753      -0.19454136      -1.09228023
H        2.47623409      -1.34704901       0.62672610
H        1.19800179       2.20962113       0.41258321
12
Frame=3 idx=009786 GeodesicLength=0.3667746724766327 rxn_smarts="[N:1]([c:2]1[c:3]([H:10])[c:4]([O:5][H:11])[c:6]([H:12])[o:7]1)([H:8])[H:9]>>[N:1]([C:2]#[C:3][C@:4]([O:5][H:11])([C:6](=[O:7])[H:12])[H:10])([H:8])[H:9]"
N       -2.32013302      -0.34749064      -0.34640284
C       -0.96774907      -0.15726824      -0.13200233
C        0.09079929      -0.98795768      -0.03883483
C        1.23544656      -0.05018319       0.06942766
O        2.48104774      -0.38788772       0.51513972
C        0.74452470       1.28208114       0.13465211
O       -0.54234748       1.27033666      -0.05926444
H       -2.91606958       0.06646613       0.35502988
H       -2.53422948      -1.32224015      -0.48395698
H        1.05229781      -0.22775054      -1.11546811
H        2.46701879      -1.34084585       0.64469341
H        1.20939373       2.20274006       0.45698675
12
Frame=4 idx=009786 GeodesicLength=0.48901706753055396 rxn_smarts="[N:1]([c:2]1[c:3]([H:10])[c:4]([O:5][H:11])[c:6]([H:12])[o:7]1)([H:8])[H:9]>>[N:1]([C:2]#[C:3][C@:4]([O:5][H:11])([C:6](=[O:7])[H:12])[H:10])([H:8])[H:9]"
N       -2.32725863      -0.35833013      -0.33751125
C       -0.97541738      -0.15846554      -0.13825854
C        0.09201152      -0.97040354      -0.05254202
C        1.23943156      -0.04143697       0.05664763
O        2.47844242      -0.38390132       0.51942368
C        0.75515104       1.29417177       0.12029105
O       -0.53012485       1.29891953      -0.07801038
H       -2.91909979       0.05221187       0.36907508
H       -2.54200124      -1.33169189      -0.48252113
H        1.05220730      -0.26082696      -1.13787903
H        2.45713640      -1.33458030       0.66196128
H        1.21952164       2.19433349       0.49932365
12
Frame=5 idx=009786 GeodesicLength=0.6111955078795048 rxn_smarts="[N:1]([c:2]1[c:3]([H:10])[c:4]([O:5][H:11])[c:6]([H:12])[o:7]1)([H:8])[H:9]>>[N:1]([C:2]#[C:3][C@:4]([O:5][H:11])([C:6](=[O:7])[H:12])[H:10])([H:8])[H:9]"
N       -2.33406896      -0.36937872      -0.32868824
C       -0.98307233      -0.15984283      -0.14428079
C        0.09333348      -0.95239372      -0.06660826
C        1.24356147      -0.03238343       0.04371944
O        2.47558173      -0.38005874       0.52369988
C        0.76576674       1.30639924       0.10884583
O       -0.51719329       1.32834485      -0.09684441
H       -2.92190723       0.03793811       0.38278524
H       -2.54959296      -1.34128410      -0.48100176
H        1.05208908      -0.29399821      -1.15948985
H        2.44667632      -1.32832684       0.67848395
H        1.22882595       2.18498440       0.53937897
12
Frame=6 idx=009786 GeodesicLength=0.7333848347002457 rxn_smarts="[N:1]([c:2]1[c:3]([H:10])[c:4]([O:5][H:11])[c:6]([H:12])[o:7]1)([H:8])[H:9]>>[N:1]([C:2]#[C:3][C@:4]([O:5][H:11])([C:6](=[O:7])[H:12])[H:10])([H:8])[H:9]"
N       -2.34059312      -0.38069059      -0.31988210
C       -0.99072184      -0.16141766      -0.15015849
C        0.09471272      -0.93388966      -0.08100502
C        1.24788027      -0.02299445       0.03044470
O        2.47245850      -0.37628254       0.52786209
C        0.77646887       1.31879807       0.09983735
O       -0.50338101       1.35867411      -0.11622488
H       -2.92448370       0.02377004       0.39615790
H       -2.55706438      -1.35111455      -0.47909757
H        1.05198497      -0.32767861      -1.18043696
H        2.43559856      -1.32200274       0.69429509
H        1.23714016       2.17482857       0.57820789
12
Frame=7 idx=009786 GeodesicLength=0.8555859587791068 rxn_smarts="[N:1]([c:2]1[c:3]([H:10])[c:4]([O:5][H:11])[c:6]([H:12])[o:7]1)([H:8])[H:9]>>[N:1]([C:2]#[C:3][C@:4]([O:5][H:11])([C:6](=[O:7])[H:12])[H:10])([H:8])[H:9]"
N       -2.34682055      -0.39227796      -0.31107449
C       -0.99835686      -0.16319296      -0.15587209
C        0.09614951      -0.91484302      -0.09570088
C        1.25241361      -0.01323762       0.01665807
O        2.46907791      -0.37252566       0.53177043
C        0.78727999       1.33139648       0.09292022
O       -0.48858065       1.38998086      -0.13628593
H       -2.92683720       0.00977209       0.40916470
H       -2.56438183      -1.36122430      -0.47670365
H        1.05183346      -0.36220383      -1.20075596
H        2.42387189      -1.31553516       0.70946029
H        1.24435073       2.16389110       0.61641930
12
Frame=8 idx=009786 GeodesicLength=0.977788303225238 rxn_smarts="[N:1]([c:2]1[c:3]([H:10])[c:4]([O:5][H:11])[c:6]([H:12])[o:7]1)([H:8])[H:9]>>[N:1]([C:2]#[C:3][C@:4]([O:5][H:11])([C:6](=[O:7])[H:12])[H:10])([H:8])[H:9]"
N       -2.35274526      -0.40414992      -0.30226475
C       -1.00597583      -0.16516940      -0.16135234
C        0.09763910      -0.89519069      -0.11068299
C        1.25718408      -0.00307374       0.00222014
O        2.46545643      -0.36874595       0.53526510
C        0.79822747       1.34421174       0.08784496
O       -0.47269168       1.42233963      -0.15695874
H       -2.92901484      -0.00406548       0.42177761
H       -2.57150489      -1.37163651      -0.47383863
H        1.05155849      -0.39785531      -1.22041396
H        2.41144053      -1.30883170       0.72406669
H        1.25042639       2.15216735       0.65433691
12
Frame=9 idx=009786 GeodesicLength=1.0999927686705622 rxn_smarts="[N:1]([c:2]1[c:3]([H:10])[c:4]([O:5][H:11])[c:6]([H:12])[o:7]1)([H:8])[H:9]>>[N:1]([C:2]#[C:3][C@:4]([O:5][H:11])([C:6](=[O:7])[H:12])[H:10])([H:8])[H:9]"
N       -2.35835760      -0.41630523      -0.29339104
C       -1.01355821      -0.16733898      -0.16667796
C        0.09918204      -0.87486106      -0.12609028
C        1.26221662       0.00754853      -0.01299896
O        2.46156172      -0.36490496       0.53828793
C        0.80933706       1.35726306       0.08437573
O       -0.45555302       1.45584109      -0.17842058
H       -2.93095891      -0.01769917       0.43408055
H       -2.57841133      -1.38236798      -0.47036426
H        1.05120302      -0.43487198      -1.23935973
H        2.39822462      -1.30180831       0.73815075
H        1.25511401       2.13950499       0.69240784
12
Frame=10 idx=009786 GeodesicLength=1.222190625404913 rxn_smarts="[N:1]([c:2]1[c:3]([H:10])[c:4]([O:5][H:11])[c:6]([H:12])[o:7]1)([H:8])[H:9]>>[N:1]([C:2]#[C:3][C@:4]([O:5][H:11])([C:6](=[O:7])[H:12])[H:10])([H:8])[H:9]"
N       -2.36365416      -0.42877599      -0.28450303
C       -1.02112058      -0.16971105      -0.17165852
C        0.10075621      -0.85377180      -0.14192668
C        1.26751104       0.01867387      -0.02907525
O        2.45740792      -0.36098713       0.54067121
C        0.82063856       1.37056017       0.08239373
O       -0.43709612       1.49058345      -0.20020379
H       -2.93280027      -0.03126970       0.44599030
H       -2.58503302      -1.39344860      -0.46650024
H        1.05063701      -0.47344315      -1.25743208
H        2.38412759      -1.29437786       0.75179784
H        1.25862583       2.12596778       0.73044651
12
Frame=11 idx=009786 GeodesicLength=1.3443721113804927 rxn_smarts="[N:1]([c:2]1[c:3]([H:10])[c:4]([O:5][H:11])[c:6]([H:12])[o:7]1)([H:8])[H:9]>>[N:1]([C:2]#[C:3][C@:4]([O:5][H:11])([C:6](=[O:7])[H:12])[H:10])([H:8])[H:9]"
N       -2.36863355      -0.44159252      -0.27556588
C       -1.02865921      -0.17228495      -0.17631497
C        0.10234431      -0.83182207      -0.15839669
C        1.27306706       0.03035567      -0.04608388
O        2.45294314      -0.35699509       0.54236585
C        0.83215972       1.38411389       0.08175140
O       -0.41719518       1.52668859      -0.22215715
H       -2.93452668      -0.04487726       0.45759633
H       -2.59133037      -1.40490735      -0.46227653
H        1.04987966      -0.51370554      -1.27447805
H        2.36899430      -1.28646993       0.76508438
H        1.26095681       2.11149655       0.76847518
12
Frame=12 idx=009786 GeodesicLength=1.466537709926299 rxn_smarts="[N:1]([c:2]1[c:3]([H:10])[c:4]([O:5][H:11])[c:6]([H:12])[o:7]1)([H:8])[H:9]>>[N:1]([C:2]#[C:3][C@:4]([O:5][H:11])([C:6](=[O:7])[H:12])[H:10])([H:8])[H:9]"
N       -2.37328450      -0.45480986      -0.26655329
C       -1.03616955      -0.17507087      -0.18061090
C        0.10392592      -0.80889642      -0.17574624
C        1.27887328       0.04265147      -0.06408024
O        2.44809459      -0.35295496       0.54333268
C        0.84393489       1.39793951       0.08231213
O       -0.39573662       1.56430629      -0.24403502
H       -2.93614665      -0.05865876       0.46896185
H       -2.59724287      -1.41679849      -0.45775208
H        1.04893463      -0.55574206      -1.29030964
H        2.35261622      -1.27802295       0.77809193
H        1.26220067       2.09605708       0.80638883
12
Frame=13 idx=009786 GeodesicLength=1.5886991018178005 rxn_smarts="[N:1]([c:2]1[c:3]([H:10])[c:4]([O:5][H:11])[c:6]([H:12])[o:7]1)([H:8])[H:9]>>[N:1]([C:2]#[C:3][C@:4]([O:5][H:11])([C:6](=[O:7])[H:12])[H:10])([H:8])[H:9]"
N       -2.37759359      -0.46850333      -0.25738900
C       -1.04364085      -0.17808258      -0.18464063
C        0.10547038      -0.78484953      -0.19438831
C        1.28491656       0.05562472      -0.08309927
O        2.44272336      -0.34892844       0.54362262
C        0.85600978       1.41205228       0.08393899
O       -0.37256435       1.60360827      -0.26569053
H       -2.93757127      -0.07277948       0.48027331
H       -2.60272774      -1.42919717      -0.45290069
H        1.04789313      -0.59954540      -1.30475337
H        2.33467807      -1.26900485       0.79093121
H        1.26240652       2.07960550       0.84409568
12
Frame=14 idx=009786 GeodesicLength=1.7108541107067425 rxn_smarts="[N:1]([c:2]1[c:3]([H:10])[c:4]([O:5][H:11])[c:6]([H:12])[o:7]1)([H:8])[H:9]>>[N:1]([C:2]#[C:3][C@:4]([O:5][H:11])([C:6](=[O:7])[H:12])[H:10])([H:8])[H:9]"
N       -2.38151759      -0.48277837      -0.24802468
C       -1.05105258      -0.18135273      -0.18831591
C        0.10694487      -0.75950615      -0.21472786
C        1.29117438       0.06933635      -0.10315585
O        2.43667820      -0.34501671       0.54326624
C        0.86843755       1.42647368       0.08648950
O       -0.34755672       1.64479336      -0.28682523
H       -2.93878838      -0.08744104       0.49161300
H       -2.60767587      -1.44220739      -0.44777165
H        1.04676436      -0.64506839      -1.31759586
H        2.31481453      -1.25939420       0.80370879
H        1.26177725       2.06216159       0.88133951
12
Frame=15 idx=009786 GeodesicLength=1.8330157790391044 rxn_smarts="[N:1]([c:2]1[c:3]([H:10])[c:4]([O:5][H:11])[c:6]([H:12])[o:7]1)([H:8])[H:9]>>[N:1]([C:2]#[C:3][C@:4]([O:5][H:11])([C:6](=[O:7])[H:12])[H:10])([H:8])[H:9]"
N       -2.38499192      -0.49777110      -0.23832939
C       -1.05836072      -0.18491901      -0.19176693
C        0.10830530      -0.73262879      -0.23742626
C        1.29763573       0.08385856      -0.12424897
O        2.42969122      -0.34137812       0.54243731
C        0.88128890       1.44122862       0.08981726
O       -0.32050616       1.68808576      -0.30734285
H       -2.93961278      -0.10285542       0.50324457
H       -2.61198660      -1.45597604      -0.44222857
H        1.04567899      -0.69214309      -1.32869236
H        2.29246899      -1.24921924       0.81656874
H        1.26038905       2.04371786       0.91796744
12
Frame=16 idx=009786 GeodesicLength=1.955195571474385 rxn_smarts="[N:1]([c:2]1[c:3]([H:10])[c:4]([O:5][H:11])[c:6]([H:12])[o:7]1)([H:8])[H:9]>>[N:1]([C:2]#[C:3][C@:4]([O:5][H:11])([C:6](=[O:7])[H:12])[H:10])([H:8])[H:9]"
N       -2.38788975      -0.51365643      -0.22817228
C       -1.06548236      -0.18884136      -0.19497362
C        0.10950060      -0.70390289      -0.26319774
C        1.30429257       0.09926885      -0.14636761
O        2.42142383      -0.33823305       0.54133709
C        0.89465405       1.45636334       0.09375080
O       -0.29119775       1.73374905      -0.32707031
H       -2.93987106      -0.11928500       0.51538102
H       -2.61546043      -1.47069088      -0.43617055
H        1.04467374      -0.74055924      -1.33789504
H        2.26694021      -1.23853541       0.82965817
H        1.25841633       2.02432303       0.95372005
