10
Frame=0 idx=001232 GeodesicLength=0.0 rxn_smarts="[N:1]([c:2]1[n:3][o:4][c:5]([H:9])[c:6]1[H:10])([H:7])[H:8]>>[N:1](=[C:2]1[N-:3][O+:4]=[C:5]([H:9])[C:6]1([H:7])[H:10])[H:8]"
N       -1.91127132      -0.04415675      -0.25533588
C       -0.61838464      -0.35753846      -0.33428198
N        0.04330340      -1.49906703      -0.28241428
O        1.40149817      -1.12613094       0.01713116
C        1.48664320       0.14456422       0.20772555
C        0.28718994       0.79158669       0.00867455
H       -0.83955310       0.61025448       0.69018409
H       -2.49296099      -0.87214300      -0.18064668
H        2.47408761       0.53128568       0.42496057
H        0.16944773       1.82134511      -0.29599710
10
Frame=1 idx=001232 GeodesicLength=0.06354743247395285 rxn_smarts="[N:1]([c:2]1[n:3][o:4][c:5]([H:9])[c:6]1[H:10])([H:7])[H:8]>>[N:1](=[C:2]1[N-:3][O+:4]=[C:5]([H:9])[C:6]1([H:7])[H:10])[H:8]"
N       -1.90956964      -0.04703184      -0.24864474
C       -0.61620177      -0.35451858      -0.34201097
N        0.04494162      -1.49756038      -0.28938436
O        1.40046294      -1.12630277       0.00936724
C        1.48630258       0.14276122       0.21289034
C        0.28603556       0.79189836       0.01377551
H       -0.85698144       0.62474657       0.69946763
H       -2.48628976      -0.87864047      -0.17708931
H        2.47464224       0.52708735       0.42977541
H        0.17665768       1.81756054      -0.30814674
10
Frame=2 idx=001232 GeodesicLength=0.12710120970475433 rxn_smarts="[N:1]([c:2]1[n:3][o:4][c:5]([H:9])[c:6]1[H:10])([H:7])[H:8]>>[N:1](=[C:2]1[N-:3][O+:4]=[C:5]([H:9])[C:6]1([H:7])[H:10])[H:8]"
N       -1.90767982      -0.05010705      -0.24169938
C       -0.61399640      -0.35147284      -0.35023323
N        0.04664251      -1.49602041      -0.29687542
O        1.39940498      -1.12645361       0.00156524
C        1.48587001       0.14085759       0.21799153
C        0.28484735       0.79215282       0.01849629
H       -0.87473643       0.63996410       0.70830271
H       -2.47935647      -0.88528629      -0.17273414
H        2.47496413       0.52276107       0.43519172
H        0.18404012       1.81360463      -0.32000532
10
Frame=3 idx=001232 GeodesicLength=0.19064538374371975 rxn_smarts="[N:1]([c:2]1[n:3][o:4][c:5]([H:9])[c:6]1[H:10])([H:7])[H:8]>>[N:1](=[C:2]1[N-:3][O+:4]=[C:5]([H:9])[C:6]1([H:7])[H:10])[H:8]"
N       -1.90556939      -0.05339146      -0.23447909
C       -0.61175985      -0.34839396      -0.35895077
N        0.04842521      -1.49443374      -0.30490425
O        1.39831525      -1.12659706      -0.00625115
C        1.48531132       0.13882620       0.22309153
C        0.28360859       0.79233307       0.02286815
H       -0.89286319       0.65597623       0.71665367
H       -2.47212090      -0.89209775      -0.16760321
H        2.47506200       0.51829365       0.44110121
H        0.19159096       1.80948483      -0.33152609
10
Frame=4 idx=001232 GeodesicLength=0.25417896154668085 rxn_smarts="[N:1]([c:2]1[n:3][o:4][c:5]([H:9])[c:6]1[H:10])([H:7])[H:8]>>[N:1](=[C:2]1[N-:3][O+:4]=[C:5]([H:9])[C:6]1([H:7])[H:10])[H:8]"
N       -1.90321768      -0.05687993      -0.22700109
C       -0.60949265      -0.34530505      -0.36815317
N        0.05026993      -1.49283441      -0.31339793
O        1.39718349      -1.12676262      -0.01394048
C        1.48462406       0.13664892       0.22829107
C        0.28231377       0.79241608       0.02698565
H       -0.91143026       0.67279947       0.72452311
H       -2.46459439      -0.89906798      -0.16188204
H        2.47503488       0.51374784       0.44713536
H        0.19930885       1.80523769      -0.34256049
10
Frame=5 idx=001232 GeodesicLength=0.3177123367619691 rxn_smarts="[N:1]([c:2]1[n:3][o:4][c:5]([H:9])[c:6]1[H:10])([H:7])[H:8]>>[N:1](=[C:2]1[N-:3][O+:4]=[C:5]([H:9])[C:6]1([H:7])[H:10])[H:8]"
N       -1.90056016      -0.06060009      -0.21916169
C       -0.60719543      -0.34219048      -0.37788723
N        0.05219790      -1.49119498      -0.32245072
O        1.39600439      -1.12695559      -0.02152114
C        1.48380861       0.13433134       0.23354838
C        0.28095263       0.79240386       0.03084854
H       -0.93045106       0.69054405       0.73184544
H       -2.45670115      -0.90623370      -0.15549366
H        2.47475606       0.50903575       0.45340681
H        0.20718821       1.80085983      -0.35313474
10
Frame=6 idx=001232 GeodesicLength=0.3812337312005817 rxn_smarts="[N:1]([c:2]1[n:3][o:4][c:5]([H:9])[c:6]1[H:10])([H:7])[H:8]>>[N:1](=[C:2]1[N-:3][O+:4]=[C:5]([H:9])[C:6]1([H:7])[H:10])[H:8]"
N       -1.89759442      -0.06455765      -0.21091608
C       -0.60487463      -0.33906848      -0.38813670
N        0.05421018      -1.48953268      -0.33210201
O        1.39480025      -1.12717538      -0.02910391
C        1.48284731       0.13184498       0.23885341
C        0.27951990       0.79227349       0.03443674
H       -0.94996229       0.70927568       0.73856952
H       -2.44844110      -0.91360213      -0.14837657
H        2.47426150       0.50417601       0.46005508
H        0.21523329       1.79636616      -0.36327947
10
Frame=7 idx=001232 GeodesicLength=0.4447538484823737 rxn_smarts="[N:1]([c:2]1[n:3][o:4][c:5]([H:9])[c:6]1[H:10])([H:7])[H:8]>>[N:1](=[C:2]1[N-:3][O+:4]=[C:5]([H:9])[C:6]1([H:7])[H:10])[H:8]"
N       -1.89428059      -0.06880110      -0.20217808
C       -0.60255122      -0.33591579      -0.39893038
N        0.05633654      -1.48780666      -0.34255820
O        1.39356578      -1.12741354      -0.03682525
C        1.48166237       0.12914026       0.24436126
C        0.27800091       0.79202368       0.03775957
H       -0.97004194       0.72917401       0.74454842
H       -2.43970755      -0.92125291      -0.14032077
H        2.47350654       0.49911066       0.46721616
H        0.22350916       1.79174140      -0.37307273
10
Frame=8 idx=001232 GeodesicLength=0.5082641465932317 rxn_smarts="[N:1]([c:2]1[n:3][o:4][c:5]([H:9])[c:6]1[H:10])([H:7])[H:8]>>[N:1](=[C:2]1[N-:3][O+:4]=[C:5]([H:9])[C:6]1([H:7])[H:10])[H:8]"
N       -1.89056076      -0.07333963      -0.19285918
C       -0.60022608      -0.33274225      -0.41026282
N        0.05857934      -1.48602488      -0.35382698
O        1.39230616      -1.12768037      -0.04463744
C        1.48026889       0.12620884       0.25007253
C        0.27638425       0.79163468       0.04086687
H       -0.99073356       0.75031788       0.74972359
H       -2.43046678      -0.92918079      -0.13141093
H        2.47245791       0.49382630       0.47478147
H        0.23199063       1.78698023      -0.38244709
10
Frame=9 idx=001232 GeodesicLength=0.5717664065640825 rxn_smarts="[N:1]([c:2]1[n:3][o:4][c:5]([H:9])[c:6]1[H:10])([H:7])[H:8]>>[N:1](=[C:2]1[N-:3][O+:4]=[C:5]([H:9])[C:6]1([H:7])[H:10])[H:8]"
N       -1.88638986      -0.07820640      -0.18285817
C       -0.59791424      -0.32954036      -0.42214271
N        0.06096062      -1.48416426      -0.36604155
O        1.39102261      -1.12797569      -0.05262489
C        1.47862430       0.12300806       0.25603191
C        0.27465698       0.79109318       0.04377541
H       -1.01211414       0.77285489       0.75394549
H       -2.42065344      -0.93744211      -0.12152603
H        2.47109344       0.48828858       0.48285125
H        0.24071372       1.78208412      -0.39141070
10
Frame=10 idx=001232 GeodesicLength=0.6352602516905284 rxn_smarts="[N:1]([c:2]1[n:3][o:4][c:5]([H:9])[c:6]1[H:10])([H:7])[H:8]>>[N:1](=[C:2]1[N-:3][O+:4]=[C:5]([H:9])[C:6]1([H:7])[H:10])[H:8]"
N       -1.88170156      -0.08343463      -0.17205411
C       -0.59563186      -0.32630352      -0.43457359
N        0.06350050      -1.48220267      -0.37932915
O        1.38971664      -1.12829529      -0.06085524
C        1.47669110       0.11949887       0.26229110
C        0.27280225       0.79038327       0.04652006
H       -1.03426746       0.79693919       0.75704337
H       -2.41018144      -0.94607810      -0.11057368
H        2.46937104       0.48245461       0.49147804
H        0.24970080       1.77703827      -0.39994680
10
Frame=11 idx=001232 GeodesicLength=0.6987474236210063 rxn_smarts="[N:1]([c:2]1[n:3][o:4][c:5]([H:9])[c:6]1[H:10])([H:7])[H:8]>>[N:1](=[C:2]1[N-:3][O+:4]=[C:5]([H:9])[C:6]1([H:7])[H:10])[H:8]"
N       -1.87643651      -0.08907329      -0.16029438
C       -0.59341617      -0.32301817      -0.44757410
N        0.06621757      -1.48010783      -0.39387614
O        1.38840857      -1.12861934      -0.06949297
C        1.47443738       0.11563617       0.26887896
C        0.27080743       0.78949799       0.04910443
H       -1.05728301       0.82275979       0.75877933
H       -2.39894865      -0.95515903      -0.09833852
H        2.46722454       0.47624554       0.50089579
H        0.25898885       1.77183816      -0.40808239
10
Frame=12 idx=001232 GeodesicLength=0.7622269219998942 rxn_smarts="[N:1]([c:2]1[n:3][o:4][c:5]([H:9])[c:6]1[H:10])([H:7])[H:8]>>[N:1](=[C:2]1[N-:3][O+:4]=[C:5]([H:9])[C:6]1([H:7])[H:10])[H:8]"
N       -1.87047131      -0.09513856      -0.14745734
C       -0.59125546      -0.31967184      -0.46112836
N        0.06915952      -1.47782831      -0.40981770
O        1.38707226      -1.12893661      -0.07861457
C        1.47177460       0.11135616       0.27583349
C        0.26864169       0.78840584       0.05159483
H       -1.08128596       0.85048200       0.75887829
H       -2.38680538      -0.96471614      -0.08467618
H        2.46456669       0.46960221       0.51111937
H        0.26860336       1.76644525      -0.41573184
10
Frame=13 idx=001232 GeodesicLength=0.8257217802420618 rxn_smarts="[N:1]([c:2]1[n:3][o:4][c:5]([H:9])[c:6]1[H:10])([H:7])[H:8]>>[N:1](=[C:2]1[N-:3][O+:4]=[C:5]([H:9])[C:6]1([H:7])[H:10])[H:8]"
N       -1.86370158      -0.10170470      -0.13324432
C       -0.58925169      -0.31624841      -0.47525419
N        0.07232057      -1.47531195      -0.42743200
O        1.38577386      -1.12916690      -0.08864193
C        1.46867765       0.10660200       0.28313279
C        0.26628792       0.78711245       0.05393531
H       -1.10639564       0.88037726       0.75692403
H       -2.37352811      -0.97484206      -0.06917346
H        2.46124002       0.46233673       0.52277115
H        0.27857700       1.76084558      -0.42301739
10
Frame=14 idx=001232 GeodesicLength=0.8892198165709029 rxn_smarts="[N:1]([c:2]1[n:3][o:4][c:5]([H:9])[c:6]1[H:10])([H:7])[H:8]>>[N:1](=[C:2]1[N-:3][O+:4]=[C:5]([H:9])[C:6]1([H:7])[H:10])[H:8]"
N       -1.85601981      -0.10878879      -0.11750027
C       -0.58742646      -0.31272925      -0.48991828
N        0.07573113      -1.47250405      -0.44681360
O        1.38452387      -1.12928120      -0.09968251
C        1.46509902       0.10130711       0.29078477
C        0.26372493       0.78559850       0.05622505
H       -1.13276910       0.91258241       0.75252100
H       -2.35900577      -0.98558711      -0.05168603
H        2.45720710       0.45436208       0.53586709
H        0.28893508       1.75504031      -0.42979722
10
Frame=15 idx=001232 GeodesicLength=0.9527323298443126 rxn_smarts="[N:1]([c:2]1[n:3][o:4][c:5]([H:9])[c:6]1[H:10])([H:7])[H:8]>>[N:1](=[C:2]1[N-:3][O+:4]=[C:5]([H:9])[C:6]1([H:7])[H:10])[H:8]"
N       -1.84725678      -0.11637936      -0.10002625
C       -0.58582425      -0.30910962      -0.50505543
N        0.07938881      -1.46935712      -0.46798787
O        1.38334484      -1.12922146      -0.11192622
C        1.46100954       0.09541179       0.29874306
C        0.26092216       0.78383852       0.05856299
H       -1.16058534       0.94717162       0.74521115
H       -2.34305219      -0.99693206      -0.03208513
H        2.45239781       0.44556092       0.55048866
H        0.29965541       1.74901678      -0.43592494
10
Frame=16 idx=001232 GeodesicLength=1.0162670035495291 rxn_smarts="[N:1]([c:2]1[n:3][o:4][c:5]([H:9])[c:6]1[H:10])([H:7])[H:8]>>[N:1](=[C:2]1[N-:3][O+:4]=[C:5]([H:9])[C:6]1([H:7])[H:10])[H:8]"
N       -1.83724476      -0.12439902      -0.08069500
C       -0.58447690      -0.30540834      -0.52053649
N        0.08326476      -1.46586121      -0.49075509
O        1.38227566      -1.12893026      -0.12548854
C        1.45643820       0.08888465       0.30689332
C        0.25785730       0.78180064       0.06109923
H       -1.19001853       0.98402526       0.73458490
H       -2.32557915      -1.00875999      -0.01045088
H        2.44682884       0.43586346       0.56650984
H        0.31065458       1.74278481      -0.44116127
