12
Frame=0 idx=000166 GeodesicLength=0.0 rxn_smarts="[C:1]([O:2][C:3](=[O:4])[C:5]([O:6][H:12])([H:10])[H:11])([H:7])([H:8])[H:9]>>[C:1]([O+:2]=[C-:3][O:4][C:5]([O:6][H:12])([H:10])[H:11])([H:7])([H:8])[H:9]"
C        2.25356473      -0.38330687      -0.04745497
O        1.16749091      -1.02478901       0.64222701
C       -0.03191101      -0.45497852       0.58054453
O       -0.10785175       0.61047713      -0.09938429
C       -1.97196546       0.07035753       0.15519535
O       -2.43471505       0.68181856      -0.92630581
H        2.05659014      -0.33076718      -1.11811626
H        2.41425554       0.62606782       0.33138599
H        3.12485064      -1.00289521       0.14819747
H       -2.24472563      -0.97370455       0.13117268
H       -2.03549446       0.56844917       1.11283866
H       -2.19008859       1.61327109      -0.91030032
12
Frame=1 idx=000166 GeodesicLength=0.0432484930286334 rxn_smarts="[C:1]([O:2][C:3](=[O:4])[C:5]([O:6][H:12])([H:10])[H:11])([H:7])([H:8])[H:9]>>[C:1]([O+:2]=[C-:3][O:4][C:5]([O:6][H:12])([H:10])[H:11])([H:7])([H:8])[H:9]"
C        2.25864629      -0.37756051      -0.03950158
O        1.16201652      -1.03887817       0.61364799
C       -0.04341810      -0.49190656       0.51312110
O       -0.11266145       0.59479917      -0.13165359
C       -1.96660049       0.07737469       0.16963341
O       -2.45572115       0.68122947      -0.90885396
H        2.08927602      -0.31057946      -1.11406271
H        2.39820587       0.62750171       0.35857713
H        3.13090734      -0.99155030       0.16889839
H       -2.26921430      -0.95967826       0.17353861
H       -2.01461910       0.58642275       1.12331061
H       -2.17681745       1.60282548      -0.92665540
12
Frame=2 idx=000166 GeodesicLength=0.08672490115088377 rxn_smarts="[C:1]([O:2][C:3](=[O:4])[C:5]([O:6][H:12])([H:10])[H:11])([H:7])([H:8])[H:9]>>[C:1]([O+:2]=[C-:3][O:4][C:5]([O:6][H:12])([H:10])[H:11])([H:7])([H:8])[H:9]"
C        2.26264212      -0.37181927      -0.02914895
O        1.15434809      -1.05260784       0.58284933
C       -0.05527956      -0.53040594       0.43415601
O       -0.11788319       0.57673082      -0.17412711
C       -1.95888340       0.08465325       0.18438148
O       -2.48036981       0.68312406      -0.88626990
H        2.12601070      -0.29186235      -1.10745435
H        2.37745641       0.62921627       0.38649561
H        3.13507613      -0.97909100       0.19725697
H       -2.29045324      -0.94392879       0.21797734
H       -1.98451020       0.60362955       1.13446906
H       -2.16815405       1.59236125      -0.94058549
12
Frame=3 idx=000166 GeodesicLength=0.13008517620565874 rxn_smarts="[C:1]([O:2][C:3](=[O:4])[C:5]([O:6][H:12])([H:10])[H:11])([H:7])([H:8])[H:9]>>[C:1]([O+:2]=[C-:3][O:4][C:5]([O:6][H:12])([H:10])[H:11])([H:7])([H:8])[H:9]"
C        2.26433356      -0.36634739      -0.01681550
O        1.14361036      -1.06509485       0.55086684
C       -0.06705980      -0.56812019       0.34633067
O       -0.12332806       0.55856270      -0.22444769
C       -1.94762126       0.09161374       0.19886506
O       -2.50666000       0.68687417      -0.85914022
H        2.16427248      -0.27472989      -1.09820521
H        2.35241516       0.63096084       0.41410828
H        3.13550079      -0.96682450       0.23184278
H       -2.30546051      -0.92772908       0.26336412
H       -1.94604749       0.61902571       1.14556944
H       -2.16395525       1.58180875      -0.95233857
12
Frame=4 idx=000166 GeodesicLength=0.17453831951327986 rxn_smarts="[C:1]([O:2][C:3](=[O:4])[C:5]([O:6][H:12])([H:10])[H:11])([H:7])([H:8])[H:9]>>[C:1]([O+:2]=[C-:3][O:4][C:5]([O:6][H:12])([H:10])[H:11])([H:7])([H:8])[H:9]"
C        2.26224912      -0.36128045      -0.00311171
O        1.12897043      -1.07514994       0.51881085
C       -0.07827643      -0.60260092       0.25323158
O       -0.12877890       0.54191306      -0.28002904
C       -1.93154385       0.09774648       0.21242070
O       -2.53185024       0.69159521      -0.82814990
H        2.20117793      -0.25979922      -1.08652577
H        2.32300838       0.63253905       0.44016441
H        3.13002392      -0.95540838       0.27100542
H       -2.31136910      -0.91215948       0.30784422
H       -1.90047168       0.63179655       1.15586025
H       -2.16313958       1.57080804      -0.96152100
12
Frame=5 idx=000166 GeodesicLength=0.21975431106085963 rxn_smarts="[C:1]([O:2][C:3](=[O:4])[C:5]([O:6][H:12])([H:10])[H:11])([H:7])([H:8])[H:9]>>[C:1]([O+:2]=[C-:3][O:4][C:5]([O:6][H:12])([H:10])[H:11])([H:7])([H:8])[H:9]"
C        2.25659502      -0.35742151       0.00956158
O        1.11154168      -1.08321734       0.48697589
C       -0.08817842      -0.62807666       0.16747820
O       -0.13338229       0.53260932      -0.32847161
C       -1.91198172       0.10281542       0.22466266
O       -2.55159901       0.69342206      -0.79878810
H        2.23146857      -0.24369275      -1.07402549
H        2.29453336       0.63162539       0.46574684
H        3.11891011      -0.94893882       0.30529322
H       -2.30713964      -0.89880698       0.34992548
H       -1.85755383       0.64301623       1.16446441
H       -2.16321383       1.55666564      -0.97282308
12
Frame=6 idx=000166 GeodesicLength=0.26455595647513297 rxn_smarts="[C:1]([O:2][C:3](=[O:4])[C:5]([O:6][H:12])([H:10])[H:11])([H:7])([H:8])[H:9]>>[C:1]([O+:2]=[C-:3][O:4][C:5]([O:6][H:12])([H:10])[H:11])([H:7])([H:8])[H:9]"
C        2.24929522      -0.35513803       0.01994671
O        1.09356638      -1.08806141       0.45901792
C       -0.09639277      -0.64351826       0.09486116
O       -0.13673959       0.53174003      -0.36460992
C       -1.89138541       0.10666486       0.23499054
O       -2.56568790       0.69236333      -0.77374615
H        2.25377681      -0.22846518      -1.06246177
H        2.27099644       0.62858100       0.48841363
H        3.10499498      -0.94794411       0.33166750
H       -2.29544929      -0.88883324       0.38606953
H       -1.82360327       0.65220858       1.17181123
H       -2.16337161       1.54040243      -0.98596038
12
Frame=7 idx=000166 GeodesicLength=0.3094478962755786 rxn_smarts="[C:1]([O:2][C:3](=[O:4])[C:5]([O:6][H:12])([H:10])[H:11])([H:7])([H:8])[H:9]>>[C:1]([O+:2]=[C-:3][O:4][C:5]([O:6][H:12])([H:10])[H:11])([H:7])([H:8])[H:9]"
C        2.24105777      -0.35392605       0.02901137
O        1.07528347      -1.09125223       0.43249640
C       -0.10360366      -0.65222845       0.03037517
O       -0.13930927       0.53592667      -0.39361323
C       -1.87016876       0.11008983       0.24426933
O       -2.57651578       0.68930664      -0.75117549
H        2.27163560      -0.21355539      -1.05126730
H        2.25025576       0.62390604       0.50995107
H        3.08944507      -0.95046383       0.35320346
H       -2.27892285      -0.88066107       0.41880125
H       -1.79504982       0.66077168       1.17852616
H       -2.16410754       1.52208615      -1.00057819
12
Frame=8 idx=000166 GeodesicLength=0.3544796096156326 rxn_smarts="[C:1]([O:2][C:3](=[O:4])[C:5]([O:6][H:12])([H:10])[H:11])([H:7])([H:8])[H:9]>>[C:1]([O+:2]=[C-:3][O:4][C:5]([O:6][H:12])([H:10])[H:11])([H:7])([H:8])[H:9]"
C        2.23225415      -0.35353796       0.03707672
O        1.05698909      -1.09334438       0.40679979
C       -0.11010515      -0.65587362      -0.02775438
O       -0.14129388       0.54363521      -0.41743428
C       -1.84863519       0.11341181       0.25283054
O       -2.58501931       0.68481515      -0.73041563
H        2.28636117      -0.19878543      -1.04030054
H        2.23153208       0.61787435       0.53085225
H        3.07290751      -0.95556287       0.37100059
H       -2.25894375      -0.87368161       0.44896620
H       -1.77068733       0.66916199       1.18488249
H       -2.16535937       1.50188736      -1.01650376
12
Frame=9 idx=000166 GeodesicLength=0.39965605072742144 rxn_smarts="[C:1]([O:2][C:3](=[O:4])[C:5]([O:6][H:12])([H:10])[H:11])([H:7])([H:8])[H:9]>>[C:1]([O+:2]=[C-:3][O:4][C:5]([O:6][H:12])([H:10])[H:11])([H:7])([H:8])[H:9]"
C        2.22305323      -0.35376691       0.04444074
O        1.03880040      -1.09469965       0.38150258
C       -0.11612671      -0.65572931      -0.08110259
O       -0.14285474       0.55365509      -0.43778399
C       -1.82686154       0.11683433       0.26085403
O       -2.59184360       0.67936232      -0.71089222
H        2.29894324      -0.18422446      -1.02937297
H        2.21405732       0.61078393       0.55133042
H        3.05571585      -0.96243149       0.38615281
H       -2.23637688      -0.86740415       0.47712305
H       -1.74928182       0.67756703       1.19098790
H       -2.16722476       1.48005327      -1.03323976
12
Frame=10 idx=000166 GeodesicLength=0.44512573978314296 rxn_smarts="[C:1]([O:2][C:3](=[O:4])[C:5]([O:6][H:12])([H:10])[H:11])([H:7])([H:8])[H:9]>>[C:1]([O+:2]=[C-:3][O:4][C:5]([O:6][H:12])([H:10])[H:11])([H:7])([H:8])[H:9]"
C        2.21337806      -0.35443225       0.05140115
O        1.02068625      -1.09572886       0.35587997
C       -0.12186822      -0.65282013      -0.13114034
O       -0.14410567       0.56508111      -0.45627642
C       -1.80468338       0.12054580       0.26853748
O       -2.59740391       0.67327547      -0.69192400
H        2.31011340      -0.16955715      -1.01818541
H        2.19685750       0.60270941       0.57187336
H        3.03783473      -0.97048629       0.39955507
H       -2.21159978      -0.86140836       0.50399016
H       -1.72948995       0.68627926       1.19692169
H       -2.16971902       1.45654200      -1.05063271
12
Frame=11 idx=000166 GeodesicLength=0.4909683869780899 rxn_smarts="[C:1]([O:2][C:3](=[O:4])[C:5]([O:6][H:12])([H:10])[H:11])([H:7])([H:8])[H:9]>>[C:1]([O+:2]=[C-:3][O:4][C:5]([O:6][H:12])([H:10])[H:11])([H:7])([H:8])[H:9]"
C        2.20323984      -0.35542857       0.05810577
O        1.00271726      -1.09660743       0.32978356
C       -0.12746670      -0.64779475      -0.17848392
O       -0.14516892       0.57734164      -0.47376402
C       -1.78204599       0.12461399       0.27588675
O       -2.60190994       0.66681666      -0.67330369
H        2.32019537      -0.15480164      -1.00659281
H        2.17947720       0.59379021       0.59253731
H        3.01940117      -0.97932804       0.41170784
H       -2.18490919      -0.85544920       0.52978493
H       -1.71060502       0.69529547       1.20262886
H       -2.17292508       1.43155167      -1.06829059
12
Frame=12 idx=000166 GeodesicLength=0.5370159079880283 rxn_smarts="[C:1]([O:2][C:3](=[O:4])[C:5]([O:6][H:12])([H:10])[H:11])([H:7])([H:8])[H:9]>>[C:1]([O+:2]=[C-:3][O:4][C:5]([O:6][H:12])([H:10])[H:11])([H:7])([H:8])[H:9]"
C        2.19281683      -0.35672925       0.06442697
O        0.98505112      -1.09701213       0.30382766
C       -0.13289101      -0.64079251      -0.22289672
O       -0.14598663       0.59050283      -0.48972153
C       -1.75923651       0.12899517       0.28289314
O       -2.60528421       0.66014524      -0.65519863
H        2.32913005      -0.14037397      -0.99485719
H        2.16232046       0.58425404       0.61280872
H        3.00061308      -0.98886034       0.42245929
H       -2.15683207      -0.84963319       0.55409110
H       -1.69324675       0.70432732       1.20828845
H       -2.17645434       1.40517677      -1.08612127
12
Frame=13 idx=000166 GeodesicLength=0.5834240527651301 rxn_smarts="[C:1]([O:2][C:3](=[O:4])[C:5]([O:6][H:12])([H:10])[H:11])([H:7])([H:8])[H:9]>>[C:1]([O+:2]=[C-:3][O:4][C:5]([O:6][H:12])([H:10])[H:11])([H:7])([H:8])[H:9]"
C        2.18205107      -0.35824401       0.07051462
O        0.96768691      -1.09717466       0.27772625
C       -0.13826440      -0.63234384      -0.26493785
O       -0.14667213       0.60410144      -0.50496341
C       -1.73612759       0.13374372       0.28956088
O       -2.60768652       0.65342357      -0.63742528
H        2.33714823      -0.12610307      -0.98280680
H        2.14491787       0.57414480       0.63291637
H        2.98150605      -0.99879490       0.43221184
H       -2.12749471      -0.84374515       0.57721953
H       -1.67666920       0.71344712       1.21381727
H       -2.18039557       1.37754498      -1.10383343
12
Frame=14 idx=000166 GeodesicLength=0.6300813467300604 rxn_smarts="[C:1]([O:2][C:3](=[O:4])[C:5]([O:6][H:12])([H:10])[H:11])([H:7])([H:8])[H:9]>>[C:1]([O+:2]=[C-:3][O:4][C:5]([O:6][H:12])([H:10])[H:11])([H:7])([H:8])[H:9]"
C        2.17109620      -0.35995295       0.07624531
O        0.95072165      -1.09675307       0.25213486
C       -0.14351407      -0.62249536      -0.30433984
O       -0.14717968       0.61823744      -0.51895367
C       -1.71297510       0.13878011       0.29587601
O       -2.60901283       0.64677224      -0.62020404
H        2.34413084      -0.11243502      -0.97074058
H        2.12772907       0.56371575       0.65232271
H        2.96222285      -1.00906434       0.44084401
H       -2.09736422      -0.83792555       0.59875605
H       -1.66145583       0.72230347       1.21937758
H       -2.18439889       1.34881728      -1.12131841
12
Frame=15 idx=000166 GeodesicLength=0.6770354394974571 rxn_smarts="[C:1]([O:2][C:3](=[O:4])[C:5]([O:6][H:12])([H:10])[H:11])([H:7])([H:8])[H:9]>>[C:1]([O+:2]=[C-:3][O:4][C:5]([O:6][H:12])([H:10])[H:11])([H:7])([H:8])[H:9]"
C        2.15993705      -0.36178588       0.08170921
O        0.93415284      -1.09591134       0.22692888
C       -0.14872067      -0.61166662      -0.34146039
O       -0.14758975       0.63256118      -0.53225005
C       -1.68973055       0.14410667       0.30182104
O       -2.60937593       0.64029426      -0.60346970
H        2.35025504      -0.09928004      -0.95858242
H        2.11048001       0.55305004       0.67113948
H        2.94282730      -1.01944262       0.44863804
H       -2.06660599      -0.83206105       0.61890060
H       -1.64714477       0.73091463       1.22489063
H       -2.18848458       1.31922077      -1.13826532
12
Frame=16 idx=000166 GeodesicLength=0.7240927194200433 rxn_smarts="[C:1]([O:2][C:3](=[O:4])[C:5]([O:6][H:12])([H:10])[H:11])([H:7])([H:8])[H:9]>>[C:1]([O+:2]=[C-:3][O:4][C:5]([O:6][H:12])([H:10])[H:11])([H:7])([H:8])[H:9]"
C        2.14876925      -0.36372671       0.08681204
O        0.91805141      -1.09444354       0.20265613
C       -0.15382907      -0.59993142      -0.37609306
O       -0.14788939       0.64713955      -0.54445045
C       -1.66665710       0.14964150       0.30739057
O       -2.60880139       0.63408726      -0.58743976
H        2.35550347      -0.08699663      -0.94661324
H        2.09364675       0.54241208       0.68894752
H        2.92353209      -1.02988892       0.45553187
H       -2.03569675      -0.82629829       0.63737893
H       -1.63421589       0.73900102       1.23046427
H       -2.19241336       1.28900410      -1.15458481
