11
Frame=0 idx=005940 GeodesicLength=0.0 rxn_smarts="[N:1]([C@@:2]1([H:9])[C:3]([H:10])([H:11])[O:4][C:5]1=[O:6])([H:7])[H:8]>>[N:1]([O:4][C:3]([C:2](=[C:5]=[O:6])[H:9])([H:10])[H:11])([H:7])[H:8]"
N        1.38448203       0.00916128       0.79274781
C       -0.23896862      -0.34451051      -1.01860001
C       -0.91286638      -0.83836123       0.18865633
O       -0.65370920       0.27704544       0.98797293
C       -0.10789560       0.97446685      -0.60986002
O        0.07482044       2.11534226      -0.76505455
H        1.25686635       0.55840677       1.63960999
H        1.91520392       0.61410061       0.16360212
H       -0.13184472      -0.71126420      -2.02950204
H       -2.00480553      -0.86624163       0.03628488
H       -0.58128273      -1.78814565       0.61414259
11
Frame=1 idx=005940 GeodesicLength=0.08194735457852573 rxn_smarts="[N:1]([C@@:2]1([H:9])[C:3]([H:10])([H:11])[O:4][C:5]1=[O:6])([H:7])[H:8]>>[N:1]([O:4][C:3]([C:2](=[C:5]=[O:6])[H:9])([H:10])[H:11])([H:7])[H:8]"
N        1.38121553      -0.00584730       0.77125012
C       -0.22205684      -0.33841757      -1.00635308
C       -0.91755873      -0.83076422       0.19245558
O       -0.65319674       0.28457992       0.99447142
C       -0.13913080       0.99278091      -0.61930670
O        0.03480959       2.13318168      -0.78902360
H        1.27910067       0.50830917       1.64274414
H        1.91890973       0.61466656       0.16441963
H       -0.08319033      -0.72028954      -2.00712035
H       -2.00753403      -0.85813980       0.03373894
H       -0.59136805      -1.78005981       0.62272390
11
Frame=2 idx=005940 GeodesicLength=0.16365400071711472 rxn_smarts="[N:1]([C@@:2]1([H:9])[C:3]([H:10])([H:11])[O:4][C:5]1=[O:6])([H:7])[H:8]>>[N:1]([O:4][C:3]([C:2](=[C:5]=[O:6])[H:9])([H:10])[H:11])([H:7])[H:8]"
N        1.37782617      -0.02021520       0.75147037
C       -0.20534589      -0.33151582      -0.99419044
C       -0.92154155      -0.82300327       0.19610922
O       -0.65233088       0.29275071       1.00035997
C       -0.16975464       1.01000473      -0.62965312
O       -0.00614710       2.14978450      -0.81482214
H        1.30049802       0.45752015       1.64546272
H        1.92358415       0.61385101       0.16714524
H       -0.03698637      -0.72699504      -1.98446561
H       -2.00958716      -0.85053203       0.03160396
H       -0.60021474      -1.77164975       0.63097982
11
Frame=3 idx=005940 GeodesicLength=0.2451574902358773 rxn_smarts="[N:1]([C@@:2]1([H:9])[C:3]([H:10])([H:11])[O:4][C:5]1=[O:6])([H:7])[H:8]>>[N:1]([O:4][C:3]([C:2](=[C:5]=[O:6])[H:9])([H:10])[H:11])([H:7])[H:8]"
N        1.37440762      -0.03400324       0.73338543
C       -0.18875135      -0.32379235      -0.98211132
C       -0.92485507      -0.81506670       0.19964994
O       -0.65109780       0.30157112       1.00574421
C       -0.19985145       1.02626628      -0.64086571
O       -0.04817916       2.16523597      -0.84239205
H        1.32109552       0.40600693       1.64782342
H        1.92930889       0.61166814       0.17169134
H        0.00689525      -0.73155712      -1.96174725
H       -2.01102217      -0.84336865       0.02988152
H       -0.60795028      -1.76296037       0.63894046
11
Frame=4 idx=005940 GeodesicLength=0.3262884452018738 rxn_smarts="[N:1]([C@@:2]1([H:9])[C:3]([H:10])([H:11])[O:4][C:5]1=[O:6])([H:7])[H:8]>>[N:1]([O:4][C:3]([C:2](=[C:5]=[O:6])[H:9])([H:10])[H:11])([H:7])[H:8]"
N        1.37100353      -0.04732707       0.71705007
C       -0.17219448      -0.31516557      -0.97000081
C       -0.92743836      -0.80685851       0.20305571
O       -0.64948027       0.31100546       1.01058135
C       -0.22955368       1.04157748      -0.65284835
O       -0.09151619       2.17937906      -0.87158787
H        1.34081767       0.35393247       1.64969560
H        1.93610111       0.60778551       0.17793983
H        0.04854354      -0.73396476      -1.93894014
H       -2.01175577      -0.83649996       0.02847637
H       -0.61452710      -1.75386412       0.64657823
11
Frame=5 idx=005940 GeodesicLength=0.4074920003875909 rxn_smarts="[N:1]([C@@:2]1([H:9])[C:3]([H:10])([H:11])[O:4][C:5]1=[O:6])([H:7])[H:8]>>[N:1]([O:4][C:3]([C:2](=[C:5]=[O:6])[H:9])([H:10])[H:11])([H:7])[H:8]"
N        1.36774554      -0.06025808       0.70230573
C       -0.15557681      -0.30564997      -0.95796884
C       -0.92948802      -0.79849341       0.20644266
O       -0.64755305       0.32113698       1.01517595
C       -0.25885807       1.05623319      -0.66558982
O       -0.13626153       2.19266688      -0.90242932
H        1.35973655       0.30118414       1.65119712
H        1.94418228       0.60242565       0.18568646
H        0.08846017      -0.73455043      -1.91638148
H       -2.01206934      -0.82999061       0.02757262
H       -0.62031771      -1.74470434       0.65398892
11
Frame=6 idx=005940 GeodesicLength=0.4880137962910353 rxn_smarts="[N:1]([C@@:2]1([H:9])[C:3]([H:10])([H:11])[O:4][C:5]1=[O:6])([H:7])[H:8]>>[N:1]([O:4][C:3]([C:2](=[C:5]=[O:6])[H:9])([H:10])[H:11])([H:7])[H:8]"
N        1.36451204      -0.07280311       0.68923091
C       -0.13901729      -0.29499953      -0.94575365
C       -0.93069999      -0.78954573       0.20963534
O       -0.64496831       0.33186405       1.01914721
C       -0.28807287       1.06985970      -0.67905956
O       -0.18288963       2.20407551      -0.93489597
H        1.37794306       0.24741558       1.65224104
H        1.95320557       0.59526181       0.19524298
H        0.12636304      -0.73305659      -1.89354933
H       -2.01146073      -0.82338449       0.02677240
H       -0.62491489      -1.73468720       0.66098864
11
Frame=7 idx=005940 GeodesicLength=0.568444668662729 rxn_smarts="[N:1]([C@@:2]1([H:9])[C:3]([H:10])([H:11])[O:4][C:5]1=[O:6])([H:7])[H:8]>>[N:1]([O:4][C:3]([C:2](=[C:5]=[O:6])[H:9])([H:10])[H:11])([H:7])[H:8]"
N        1.36145929      -0.08512547       0.67783777
C       -0.12227962      -0.28328527      -0.93349841
C       -0.93136608      -0.78038173       0.21279214
O       -0.64210879       0.34324938       1.02293745
C       -0.31704857       1.08292670      -0.69313277
O       -0.23117506       2.21447908      -0.96871146
H        1.39520076       0.19354953       1.65277467
H        1.96371267       0.58596200       0.20595779
H        0.16277924      -0.72973863      -1.87100964
H       -2.01040429      -0.81703998       0.02636677
H       -0.62876955      -1.72459562       0.66768570
11
Frame=8 idx=005940 GeodesicLength=0.6486484119310785 rxn_smarts="[N:1]([C@@:2]1([H:9])[C:3]([H:10])([H:11])[O:4][C:5]1=[O:6])([H:7])[H:8]>>[N:1]([O:4][C:3]([C:2](=[C:5]=[O:6])[H:9])([H:10])[H:11])([H:7])[H:8]"
N        1.35859230      -0.09722306       0.66804389
C       -0.10538355      -0.27035167      -0.92111020
C       -0.93141256      -0.77079673       0.21587039
O       -0.63881026       0.35531228       1.02647045
C       -0.34593889       1.09534711      -0.70780552
O       -0.28149904       2.22344949      -1.00400188
H        1.41161720       0.13911317       1.65285724
H        1.97562943       0.57455026       0.21798222
H        0.19780830      -0.72456043      -1.84857567
H       -2.00877013      -0.81071210       0.02624282
H       -0.63183280      -1.71412830       0.67402626
11
Frame=9 idx=005940 GeodesicLength=0.728996603191424 rxn_smarts="[N:1]([C@@:2]1([H:9])[C:3]([H:10])([H:11])[O:4][C:5]1=[O:6])([H:7])[H:8]>>[N:1]([O:4][C:3]([C:2](=[C:5]=[O:6])[H:9])([H:10])[H:11])([H:7])[H:8]"
N        1.35596378      -0.10907955       0.65971787
C       -0.08822250      -0.25612593      -0.90862294
C       -0.93094262      -0.76083584       0.21896937
O       -0.63514868       0.36818055       1.02993763
C       -0.37475499       1.10735271      -0.72307421
O       -0.33401400       2.23118747      -1.04094425
H        1.42717910       0.08377445       1.65254264
H        1.98913531       0.56116859       0.23122342
H        0.23181766      -0.71766657      -1.82638973
H       -2.00670997      -0.80444421       0.02655305
H       -0.63430308      -1.70351167       0.68008715
11
Frame=10 idx=005940 GeodesicLength=0.808533092647404 rxn_smarts="[N:1]([C@@:2]1([H:9])[C:3]([H:10])([H:11])[O:4][C:5]1=[O:6])([H:7])[H:8]>>[N:1]([O:4][C:3]([C:2](=[C:5]=[O:6])[H:9])([H:10])[H:11])([H:7])[H:8]"
N        1.35348408      -0.12089944       0.65310157
C       -0.07090796      -0.24032255      -0.89572769
C       -0.92962802      -0.75009308       0.22179940
O       -0.63079205       0.38161197       1.03290851
C       -0.40364260       1.11845163      -0.73877266
O       -0.38924631       2.23649384      -1.07909918
H        1.44178783       0.02820393       1.65159344
H        2.00396490       0.54475098       0.24570809
H        0.26448012      -0.70853589      -1.80383421
H       -2.00371327      -0.79772434       0.02677409
H       -0.63578672      -1.69193706       0.68554863
11
Frame=11 idx=005940 GeodesicLength=0.8882163815305292 rxn_smarts="[N:1]([C@@:2]1([H:9])[C:3]([H:10])([H:11])[O:4][C:5]1=[O:6])([H:7])[H:8]>>[N:1]([O:4][C:3]([C:2](=[C:5]=[O:6])[H:9])([H:10])[H:11])([H:7])[H:8]"
N        1.35126926      -0.13251957       0.64795847
C       -0.05320053      -0.22294234      -0.88262614
C       -0.92779216      -0.73887929       0.22465391
O       -0.62611507       0.39591558       1.03592138
C       -0.43257205       1.12924057      -0.75498747
O       -0.44699606       2.24021792      -1.11884996
H        1.45540654      -0.02813430       1.65024549
H        2.02056258       0.52582629       0.26112349
H        0.29645435      -0.69755403      -1.78148376
H       -2.00028878      -0.79096529       0.02738376
H       -0.63672808      -1.68020552       0.69066082
11
Frame=12 idx=005940 GeodesicLength=0.9676298053505618 rxn_smarts="[N:1]([C@@:2]1([H:9])[C:3]([H:10])([H:11])[O:4][C:5]1=[O:6])([H:7])[H:8]>>[N:1]([O:4][C:3]([C:2](=[C:5]=[O:6])[H:9])([H:10])[H:11])([H:7])[H:8]"
N        1.34927502      -0.14407592       0.64438917
C       -0.03512338      -0.20374518      -0.86914285
C       -0.92528601      -0.72694618       0.22736930
O       -0.62091010       0.41100839       1.03882097
C       -0.46151086       1.13951756      -0.77156964
O       -0.50781210       2.24159168      -1.15999006
H        1.46798190      -0.08485259       1.64839139
H        2.03887317       0.50365074       0.27742651
H        0.32774005      -0.68440104      -1.75898858
H       -1.99619404      -0.78384418       0.02808545
H       -0.63703365      -1.66790329       0.69520834
11
Frame=13 idx=005940 GeodesicLength=1.046900095413224 rxn_smarts="[N:1]([C@@:2]1([H:9])[C:3]([H:10])([H:11])[O:4][C:5]1=[O:6])([H:7])[H:8]>>[N:1]([O:4][C:3]([C:2](=[C:5]=[O:6])[H:9])([H:10])[H:11])([H:7])[H:8]"
N        1.34755367      -0.15540929       0.64230255
C       -0.01660361      -0.18254763      -0.85522399
C       -0.92210739      -0.71423074       0.23000479
O       -0.61521056       0.42703152       1.04171403
C       -0.49053293       1.14939305      -0.78852413
O       -0.57169987       2.24032974      -1.20272637
H        1.47942484      -0.14252791       1.64600714
H        2.05886782       0.47838313       0.29464050
H        0.35845385      -0.66902792      -1.73635343
H       -1.99145479      -0.77633691       0.02897462
H       -0.63669104      -1.65505705       0.69918430
11
Frame=14 idx=005940 GeodesicLength=1.1266973153019644 rxn_smarts="[N:1]([C@@:2]1([H:9])[C:3]([H:10])([H:11])[O:4][C:5]1=[O:6])([H:7])[H:8]>>[N:1]([O:4][C:3]([C:2](=[C:5]=[O:6])[H:9])([H:10])[H:11])([H:7])[H:8]"
N        1.34604692      -0.16661774       0.64173678
C        0.00260949      -0.15912976      -0.84088154
C       -0.91832367      -0.70084211       0.23267059
O       -0.60930535       0.44409352       1.04485696
C       -0.51945200       1.15927740      -0.80585392
O       -0.63910299       2.23668158      -1.24708410
H        1.48951742      -0.20073601       1.64314948
H        2.08083224       0.44924693       0.31218788
H        0.38922618      -0.65135491      -1.71368859
H       -1.98616566      -0.76853582       0.03015943
H       -0.63588258      -1.64208308       0.70274704
11
Frame=15 idx=005940 GeodesicLength=1.2054047662869083 rxn_smarts="[N:1]([C@@:2]1([H:9])[C:3]([H:10])([H:11])[O:4][C:5]1=[O:6])([H:7])[H:8]>>[N:1]([O:4][C:3]([C:2](=[C:5]=[O:6])[H:9])([H:10])[H:11])([H:7])[H:8]"
N        1.34465637      -0.17726789       0.64279267
C        0.02207767      -0.13305331      -0.82558186
C       -0.91353334      -0.68602680       0.23494635
O       -0.60244466       0.46195968       1.04771332
C       -0.54857525       1.16826848      -0.82320968
O       -0.70996707       2.22803182      -1.29291605
H        1.49848336      -0.26028674       1.63939016
H        2.10397842       0.41612438       0.33077982
H        0.41905955      -0.63056213      -1.68998189
H       -1.97968463      -0.75970054       0.03094689
H       -0.63405042      -1.62748694       0.70512027
11
Frame=16 idx=005940 GeodesicLength=1.2843408868720396 rxn_smarts="[N:1]([C@@:2]1([H:9])[C:3]([H:10])([H:11])[O:4][C:5]1=[O:6])([H:7])[H:8]>>[N:1]([O:4][C:3]([C:2](=[C:5]=[O:6])[H:9])([H:10])[H:11])([H:7])[H:8]"
N        1.34353582      -0.18758605       0.64531547
C        0.04231232      -0.10428996      -0.80961712
C       -0.90807432      -0.67035858       0.23722534
O       -0.59540283       0.48096984       1.05101042
C       -0.57751349       1.17731403      -0.84078314
O       -0.78416333       2.21575092      -1.34017242
H        1.50579115      -0.32037702       1.63488840
H        2.12870650       0.37873194       0.34939318
H        0.44909211      -0.60707655      -1.66603685
H       -1.97258689      -0.75043605       0.03193459
H       -0.63169704      -1.61264250       0.70684215
