17
Frame=0 idx=008419 GeodesicLength=0.0 rxn_smarts="[O:1]([C@@:2]1([H:9])[C:3]([H:10])([H:11])[C:4]([H:12])([H:13])[C:5]([H:14])([H:15])[C:6]([H:16])=[C:7]1[H:17])[H:8]>>[H:9][H:14].[O:1]([C:2]1=[C:7]([H:17])[C:6]([H:16])=[C:5]([H:15])[C:4]([H:12])([H:13])[C:3]1([H:10])[H:11])[H:8]"
O        2.38591924      -0.79536734       0.00054309
C        1.13403386      -0.25432111       0.06327379
C        0.00613798      -1.21687423       0.36953696
C       -1.36905447      -0.53478208       0.21024293
C       -1.22767455       0.89276922      -0.29159320
C       -0.21167970       1.68308760       0.22955810
C        1.02371693       1.08234921       0.43091611
H        2.31769597      -1.73535043      -0.17820532
H        0.46994409      -0.01147151      -1.39771930
H        0.13902832      -1.56942705       1.39586313
H        0.09254884      -2.09221322      -0.28225206
H       -1.87926318      -0.51054265       1.17612869
H       -2.00695170      -1.10774555      -0.46460068
H       -0.35263152       0.38042225      -1.46349335
H       -2.14613175       1.36479589      -0.62622131
H       -0.29803184       2.76310390       0.22993675
H        1.92239345       1.66156709       0.59808575
17
Frame=1 idx=008419 GeodesicLength=0.08691411181131542 rxn_smarts="[O:1]([C@@:2]1([H:9])[C:3]([H:10])([H:11])[C:4]([H:12])([H:13])[C:5]([H:14])([H:15])[C:6]([H:16])=[C:7]1[H:17])[H:8]>>[H:9][H:14].[O:1]([C:2]1=[C:7]([H:17])[C:6]([H:16])=[C:5]([H:15])[C:4]([H:12])([H:13])[C:3]1([H:10])[H:11])[H:8]"
O        2.39146476      -0.78945572       0.00820103
C        1.13423720      -0.25589116       0.04925202
C        0.00507848      -1.21936412       0.35009973
C       -1.36904260      -0.53134486       0.21986309
C       -1.23047613       0.89166417      -0.29702157
C       -0.21495171       1.68174436       0.23236751
C        1.02076874       1.07881457       0.43279093
H        2.33787205      -1.74233118      -0.08469493
H        0.47956447      -0.00752427      -1.42849865
H        0.14389496      -1.60659858       1.36276369
H        0.07844579      -2.07668921      -0.32717613
H       -1.85201577      -0.50061588       1.19977888
H       -2.02707936      -1.10512489      -0.43457504
H       -0.36359798       0.38998481      -1.48611772
H       -2.15501727       1.36681631      -0.60997850
H       -0.29640367       2.76216741       0.21981964
H        1.91725804       1.66374825       0.59312602
17
Frame=2 idx=008419 GeodesicLength=0.17368251759358266 rxn_smarts="[O:1]([C@@:2]1([H:9])[C:3]([H:10])([H:11])[C:4]([H:12])([H:13])[C:5]([H:14])([H:15])[C:6]([H:16])=[C:7]1[H:17])[H:8]>>[H:9][H:14].[O:1]([C:2]1=[C:7]([H:17])[C:6]([H:16])=[C:5]([H:15])[C:4]([H:12])([H:13])[C:3]1([H:10])[H:11])[H:8]"
O        2.39597824      -0.78562212       0.01566677
C        1.13447244      -0.25787266       0.03489138
C        0.00388062      -1.22204715       0.33051822
C       -1.36865956      -0.52824790       0.22952117
C       -1.23311784       0.89024836      -0.30209553
C       -0.21780135       1.67997146       0.23525066
C        1.01827860       1.07474985       0.43429871
H        2.35543020      -1.74332583       0.01103244
H        0.48949503      -0.00370489      -1.45979061
H        0.14793917      -1.64354490       1.32838658
H        0.06409684      -2.06066149      -0.37145272
H       -1.82392793      -0.49142320       1.22270262
H       -2.04619480      -1.10261645      -0.40409510
H       -0.37504537       0.39988895      -1.50886738
H       -2.16323690       1.36845117      -0.59342312
H       -0.29440146       2.76063810       0.21047180
H        1.91281406       1.66511869       0.58698412
17
Frame=3 idx=008419 GeodesicLength=0.26037054278043376 rxn_smarts="[O:1]([C@@:2]1([H:9])[C:3]([H:10])([H:11])[C:4]([H:12])([H:13])[C:5]([H:14])([H:15])[C:6]([H:16])=[C:7]1[H:17])[H:8]>>[H:9][H:14].[O:1]([C:2]1=[C:7]([H:17])[C:6]([H:16])=[C:5]([H:15])[C:4]([H:12])([H:13])[C:3]1([H:10])[H:11])[H:8]"
O        2.39956771      -0.78396962       0.02344060
C        1.13481821      -0.26026459       0.02026588
C        0.00258538      -1.22491580       0.31087266
C       -1.36787396      -0.52549768       0.23925996
C       -1.23556521       0.88849613      -0.30686845
C       -0.22020502       1.67778236       0.23814742
C        1.01628565       1.07019990       0.43542346
H        2.36998150      -1.73809404       0.10800875
H        0.49989858      -0.00009051      -1.49155677
H        0.15116454      -1.68025362       1.29282216
H        0.04935381      -2.04417268      -0.41499200
H       -1.79501395      -0.48293928       1.24492393
H       -2.06425862      -1.10026435      -0.37312512
H       -0.38691917       0.41004566      -1.53171940
H       -2.17076346       1.36964859      -0.57670213
H       -0.29211644       2.75855805       0.20196405
H        1.90906044       1.66573146       0.57983500
17
Frame=4 idx=008419 GeodesicLength=0.34702124582668825 rxn_smarts="[O:1]([C@@:2]1([H:9])[C:3]([H:10])([H:11])[C:4]([H:12])([H:13])[C:5]([H:14])([H:15])[C:6]([H:16])=[C:7]1[H:17])[H:8]>>[H:9][H:14].[O:1]([C:2]1=[C:7]([H:17])[C:6]([H:16])=[C:5]([H:15])[C:4]([H:12])([H:13])[C:3]1([H:10])[H:11])[H:8]"
O        2.40216873      -0.78438753       0.03209084
C        1.13520798      -0.26310828       0.00550178
C        0.00113403      -1.22801801       0.29123285
C       -1.36671091      -0.52307612       0.24914633
C       -1.23782454       0.88641460      -0.31131702
C       -0.22217459       1.67520544       0.24105583
C        1.01473100       1.06514277       0.43626519
H        2.38185911      -1.72652320       0.20515639
H        0.51082036       0.00320746      -1.52371290
H        0.15357110      -1.71681758       1.25611001
H        0.03409456      -2.02724072      -0.45776006
H       -1.76533464      -0.47516338       1.26649429
H       -2.08127921      -1.09804168      -0.34164171
H       -0.39921488       0.42048581      -1.55460447
H       -2.17759566       1.37043057      -0.55986054
H       -0.28937416       2.75597622       0.19382390
H        1.90592173       1.66551363       0.57201928
17
Frame=5 idx=008419 GeodesicLength=0.43355081911452714 rxn_smarts="[O:1]([C@@:2]1([H:9])[C:3]([H:10])([H:11])[C:4]([H:12])([H:13])[C:5]([H:14])([H:15])[C:6]([H:16])=[C:7]1[H:17])[H:8]>>[H:9][H:14].[O:1]([C:2]1=[C:7]([H:17])[C:6]([H:16])=[C:5]([H:15])[C:4]([H:12])([H:13])[C:3]1([H:10])[H:11])[H:8]"
O        2.40390898      -0.78692321       0.04222901
C        1.13583270      -0.26630497      -0.00940821
C       -0.00031151      -1.23121909       0.27155548
C       -1.36499316      -0.52097322       0.25923799
C       -1.23980693       0.88390431      -0.31553584
C       -0.22369345       1.67219322       0.24387095
C        1.01365646       1.05968564       0.43669038
H        2.38985602      -1.70888775       0.30195950
H        0.52251562       0.00622481      -1.55627819
H        0.15526649      -1.75315848       1.21814932
H        0.01825188      -2.00965308      -0.49987973
H       -1.73461497      -0.46802056       1.28749776
H       -2.09712723      -1.09598434      -0.30947231
H       -0.41187499       0.43102258      -1.57754105
H       -2.18367262       1.37060124      -0.54301140
H       -0.28652136       2.75282643       0.18649216
H        1.90332807       1.66466648       0.56344420
17
Frame=6 idx=008419 GeodesicLength=0.5201168186304759 rxn_smarts="[O:1]([C@@:2]1([H:9])[C:3]([H:10])([H:11])[C:4]([H:12])([H:13])[C:5]([H:14])([H:15])[C:6]([H:16])=[C:7]1[H:17])[H:8]>>[H:9][H:14].[O:1]([C:2]1=[C:7]([H:17])[C:6]([H:16])=[C:5]([H:15])[C:4]([H:12])([H:13])[C:3]1([H:10])[H:11])[H:8]"
O        2.40464795      -0.79137219       0.05389531
C        1.13657717      -0.26991592      -0.02431099
C       -0.00187497      -1.23462758       0.25191589
C       -1.36283363      -0.51918361       0.26958745
C       -1.24159383       0.88102471      -0.31945990
C       -0.22481060       1.66885566       0.24662176
C        1.01297455       1.05381957       0.43686663
H        2.39482600      -1.68530888       0.39773688
H        0.53498262       0.00883869      -1.58914809
H        0.15633676      -1.78941393       1.17894161
H        0.00173832      -1.99148227      -0.54129556
H       -1.70301870      -0.46155413       1.30796423
H       -2.11189778      -1.09407527      -0.27664387
H       -0.42495173       0.44178775      -1.60045106
H       -2.18909259       1.37027037      -0.52615261
H       -0.28324234       2.74925853       0.17920873
H        1.90123279       1.66307850       0.55472359
17
Frame=7 idx=008419 GeodesicLength=0.6067671147919296 rxn_smarts="[O:1]([C@@:2]1([H:9])[C:3]([H:10])([H:11])[C:4]([H:12])([H:13])[C:5]([H:14])([H:15])[C:6]([H:16])=[C:7]1[H:17])[H:8]>>[H:9][H:14].[O:1]([C:2]1=[C:7]([H:17])[C:6]([H:16])=[C:5]([H:15])[C:4]([H:12])([H:13])[C:3]1([H:10])[H:11])[H:8]"
O        2.40441828      -0.79768982       0.06761375
C        1.13756451      -0.27388723      -0.03917779
C       -0.00347900      -1.23817921       0.23231159
C       -1.36016044      -0.51770993       0.28022664
C       -1.24317254       0.87774844      -0.32312319
C       -0.22554718       1.66520542       0.24926950
C        1.01270699       1.04764337       0.43670659
H        2.39619574      -1.65628404       0.49196043
H        0.54841081       0.01104696      -1.62231878
H        0.15688925      -1.82549092       1.13845878
H       -0.01540557      -1.97262709      -0.58200218
H       -1.67047018      -0.45576920       1.32792107
H       -2.12550309      -1.09235325      -0.24311205
H       -0.43843321       0.45275691      -1.62332841
H       -2.19388625       1.36937866      -0.50931245
H       -0.27975148       2.74529229       0.17221300
H        1.89962335       1.66091863       0.54569349
17
Frame=8 idx=008419 GeodesicLength=0.6935203056113487 rxn_smarts="[O:1]([C@@:2]1([H:9])[C:3]([H:10])([H:11])[C:4]([H:12])([H:13])[C:5]([H:14])([H:15])[C:6]([H:16])=[C:7]1[H:17])[H:8]>>[H:9][H:14].[O:1]([C:2]1=[C:7]([H:17])[C:6]([H:16])=[C:5]([H:15])[C:4]([H:12])([H:13])[C:3]1([H:10])[H:11])[H:8]"
O        2.40311165      -0.80571221       0.08357099
C        1.13879778      -0.27819618      -0.05389821
C       -0.00513146      -1.24184004       0.21282921
C       -1.35696986      -0.51654093       0.29117191
C       -1.24455740       0.87407853      -0.32651578
C       -0.22594956       1.66128414       0.25182332
C        1.01280545       1.04122022       0.43623794
H        2.39399598      -1.62233591       0.58389941
H        0.56291012       0.01275165      -1.65572326
H        0.15706323      -1.86123521       1.09679278
H       -0.03312779      -1.95306173      -0.62186041
H       -1.63705196      -0.45067093       1.34735028
H       -2.13787010      -1.09083529      -0.20894053
H       -0.45233027       0.46397334      -1.64612989
H       -2.19808055       1.36792120      -0.49254343
H       -0.27605875       2.74097047       0.16536251
H        1.89844349       1.65822890       0.53657316
17
Frame=9 idx=008419 GeodesicLength=0.7804690484521436 rxn_smarts="[O:1]([C@@:2]1([H:9])[C:3]([H:10])([H:11])[C:4]([H:12])([H:13])[C:5]([H:14])([H:15])[C:6]([H:16])=[C:7]1[H:17])[H:8]>>[H:9][H:14].[O:1]([C:2]1=[C:7]([H:17])[C:6]([H:16])=[C:5]([H:15])[C:4]([H:12])([H:13])[C:3]1([H:10])[H:11])[H:8]"
O        2.40068498      -0.81540362       0.10230912
C        1.14045019      -0.28277883      -0.06854232
C       -0.00670640      -1.24552088       0.19330898
C       -1.35310506      -0.51568916       0.30245215
C       -1.24571556       0.86995682      -0.32963358
C       -0.22600598       1.65706516       0.25425566
C        1.01333154       1.03465965       0.43526797
H        2.38730337      -1.58396998       0.67366325
H        0.57866061       0.01401636      -1.68940846
H        0.15692368      -1.89655443       1.05372642
H       -0.05133490      -1.93259975      -0.66106128
H       -1.60247557      -0.44627680       1.36629804
H       -2.14888724      -1.08956158      -0.17399422
H       -0.46671813       0.47537709      -1.66884667
H       -2.20169961       1.36577820      -0.47568565
H       -0.27240310       2.73627236       0.15899722
H        1.89769717       1.65522939       0.52689340
17
Frame=10 idx=008419 GeodesicLength=0.867591017508826 rxn_smarts="[O:1]([C@@:2]1([H:9])[C:3]([H:10])([H:11])[C:4]([H:12])([H:13])[C:5]([H:14])([H:15])[C:6]([H:16])=[C:7]1[H:17])[H:8]>>[H:9][H:14].[O:1]([C:2]1=[C:7]([H:17])[C:6]([H:16])=[C:5]([H:15])[C:4]([H:12])([H:13])[C:3]1([H:10])[H:11])[H:8]"
O        2.39705222      -0.82625961       0.12379840
C        1.14245612      -0.28755729      -0.08268145
C       -0.00826964      -1.24916912       0.17413047
C       -1.34868606      -0.51511251       0.31407352
C       -1.24671549       0.86542578      -0.33252948
C       -0.22587879       1.65270214       0.25656219
C        1.01410688       1.02810853       0.43409636
H        2.37680437      -1.54268189       0.75922478
H        0.59591262       0.01463548      -1.72310394
H        0.15663245      -1.93109372       1.00980524
H       -0.06986334      -1.91132732      -0.69907738
H       -1.56714940      -0.44249732       1.38469485
H       -2.15851079      -1.08857512      -0.13847089
H       -0.48149877       0.48702114      -1.69140509
H       -2.20482002       1.36298309      -0.45905797
H       -0.26877093       2.73135025       0.15257793
H        1.89719856       1.65204749       0.51736245
17
Frame=11 idx=008419 GeodesicLength=0.9549193553848583 rxn_smarts="[O:1]([C@@:2]1([H:9])[C:3]([H:10])([H:11])[C:4]([H:12])([H:13])[C:5]([H:14])([H:15])[C:6]([H:16])=[C:7]1[H:17])[H:8]>>[H:9][H:14].[O:1]([C:2]1=[C:7]([H:17])[C:6]([H:16])=[C:5]([H:15])[C:4]([H:12])([H:13])[C:3]1([H:10])[H:11])[H:8]"
O        2.39219917      -0.83792277       0.14818188
C        1.14489529      -0.29244273      -0.09618402
C       -0.00976153      -1.25269308       0.15533406
C       -1.34367825      -0.51479008       0.32604415
C       -1.24758311       0.86048207      -0.33521728
C       -0.22564020       1.64825165       0.25872465
C        1.01509327       1.02171287       0.43272572
H        2.36235024      -1.49972859       0.84010417
H        0.61489360       0.01456947      -1.75673072
H        0.15623279      -1.96463769       0.96515714
H       -0.08853310      -1.88917857      -0.73582613
H       -1.53108095      -0.43928620       1.40254255
H       -2.16667395      -1.08791305      -0.10238581
H       -0.49672325       0.49890147      -1.71378139
H       -2.20751788       1.35949274      -0.44265114
H       -0.26533760       2.72625960       0.14612840
H        1.89686547       1.64892290       0.50783377
17
Frame=12 idx=008419 GeodesicLength=1.0424598748897616 rxn_smarts="[O:1]([C@@:2]1([H:9])[C:3]([H:10])([H:11])[C:4]([H:12])([H:13])[C:5]([H:14])([H:15])[C:6]([H:16])=[C:7]1[H:17])[H:8]>>[H:9][H:14].[O:1]([C:2]1=[C:7]([H:17])[C:6]([H:16])=[C:5]([H:15])[C:4]([H:12])([H:13])[C:3]1([H:10])[H:11])[H:8]"
O        2.38606357      -0.85011405       0.17513218
C        1.14776004      -0.29740321      -0.10897458
C       -0.01118593      -1.25604574       0.13699751
C       -1.33811405      -0.51470113       0.33831221
C       -1.24835455       0.85516191      -0.33769057
C       -0.22533980       1.64375561       0.26076470
C        1.01625288       1.01554260       0.43117076
H        2.34427491      -1.45595405       0.91614618
H        0.63573775       0.01368079      -1.79025062
H        0.15577290      -1.99692549       0.92004534
H       -0.10721195      -1.86622285      -0.77114009
H       -1.49443789      -0.43661044       1.41977377
H       -2.17335093      -1.08759086      -0.06590946
H       -0.51250136       0.51109303      -1.73596393
H       -2.20985263       1.35534921      -0.42646108
H       -0.26216947       2.72104993       0.13969885
H        1.89665651       1.64593474       0.49834884
17
Frame=13 idx=008419 GeodesicLength=1.1302570130657528 rxn_smarts="[O:1]([C@@:2]1([H:9])[C:3]([H:10])([H:11])[C:4]([H:12])([H:13])[C:5]([H:14])([H:15])[C:6]([H:16])=[C:7]1[H:17])[H:8]>>[H:9][H:14].[O:1]([C:2]1=[C:7]([H:17])[C:6]([H:16])=[C:5]([H:15])[C:4]([H:12])([H:13])[C:3]1([H:10])[H:11])[H:8]"
O        2.37861210      -0.86256771       0.20464737
C        1.15111809      -0.30239368      -0.12102032
C       -0.01248496      -1.25917215       0.11905156
C       -1.33194314      -0.51483326       0.35088901
C       -1.24905799       0.84947466      -0.33990539
C       -0.22501134       1.63924863       0.26267899
C        1.01757962       1.00969264       0.42937366
H        2.32247597      -1.41218465       0.98756686
H        0.65865489       0.01192935      -1.82364020
H        0.15521681      -2.02789847       0.87444025
H       -0.12575941      -1.84237747      -0.80510665
H       -1.45715876      -0.43445536       1.43641259
H       -2.17850699      -1.08761188      -0.02902473
H       -0.52900222       0.52360580      -1.75792259
H       -2.21189442       1.35053711      -0.41034103
H       -0.25936816       2.71575471       0.13328637
H        1.89652990       1.64325174       0.48861424
17
Frame=14 idx=008419 GeodesicLength=1.2182664225901056 rxn_smarts="[O:1]([C@@:2]1([H:9])[C:3]([H:10])([H:11])[C:4]([H:12])([H:13])[C:5]([H:14])([H:15])[C:6]([H:16])=[C:7]1[H:17])[H:8]>>[H:9][H:14].[O:1]([C:2]1=[C:7]([H:17])[C:6]([H:16])=[C:5]([H:15])[C:4]([H:12])([H:13])[C:3]1([H:10])[H:11])[H:8]"
O        2.36979653      -0.87509147       0.23605939
C        1.15487677      -0.30741970      -0.13225479
C       -0.01372821      -1.26206434       0.10161438
C       -1.32527687      -0.51515877       0.36367555
C       -1.24974171       0.84348693      -0.34187223
C       -0.22469131       1.63476208       0.26449689
C        1.01901909       1.00416107       0.42742006
H        2.29773418      -1.36884564       1.05431655
H        0.68378387       0.00906885      -1.85687096
H        0.15459531      -2.05731298       0.82873013
H       -0.14410554      -1.81781512      -0.83750988
H       -1.41953525      -0.43276633       1.45235550
H       -2.18220214      -1.08797750       0.00800888
H       -0.54638101       0.53656989      -1.77966361
H       -2.21369228       1.34516562      -0.39433222
H       -0.25691223       2.71041761       0.12692214
H        1.89646080       1.64081979       0.47890420
17
Frame=15 idx=008419 GeodesicLength=1.3065073731799912 rxn_smarts="[O:1]([C@@:2]1([H:9])[C:3]([H:10])([H:11])[C:4]([H:12])([H:13])[C:5]([H:14])([H:15])[C:6]([H:16])=[C:7]1[H:17])[H:8]>>[H:9][H:14].[O:1]([C:2]1=[C:7]([H:17])[C:6]([H:16])=[C:5]([H:15])[C:4]([H:12])([H:13])[C:3]1([H:10])[H:11])[H:8]"
O        2.35959464      -0.88751869       0.26917396
C        1.15904022      -0.31247110      -0.14266651
C       -0.01491053      -1.26470180       0.08462846
C       -1.31811991      -0.51566426       0.37665618
C       -1.25044418       0.83723081      -0.34355069
C       -0.22439409       1.63032026       0.26621813
C        1.02056273       0.99898332       0.42528606
H        2.27023818      -1.32632871       1.11673463
H        0.71135476       0.00495872      -1.88993277
H        0.15386676      -2.08516774       0.78291801
H       -0.16217647      -1.79251169      -0.86843295
H       -1.38157551      -0.43152391       1.46760952
H       -2.18446953      -1.08867975       0.04516047
H       -0.56487143       0.55004251      -1.80116734
H       -2.21530579       1.33927146      -0.37830753
H       -0.25482553       2.70506497       0.12058856
H        1.89643570       1.63869559       0.46908380
17
Frame=16 idx=008419 GeodesicLength=1.3949801177501673 rxn_smarts="[O:1]([C@@:2]1([H:9])[C:3]([H:10])([H:11])[C:4]([H:12])([H:13])[C:5]([H:14])([H:15])[C:6]([H:16])=[C:7]1[H:17])[H:8]>>[H:9][H:14].[O:1]([C:2]1=[C:7]([H:17])[C:6]([H:16])=[C:5]([H:15])[C:4]([H:12])([H:13])[C:3]1([H:10])[H:11])[H:8]"
O        2.34797656      -0.89973027       0.30372106
C        1.16358368      -0.31755291      -0.15225482
C       -0.01604948      -1.26707305       0.06805659
C       -1.31050023      -0.51633664       0.38979561
C       -1.25120532       0.83075026      -0.34489899
C       -0.22412598       1.62593998       0.26785356
C        1.02220027       0.99416848       0.42295935
H        2.24028835      -1.28482957       1.17514903
H        0.74161577      -0.00061673      -1.92281558
H        0.15300352      -2.11145184       0.73704082
H       -0.17991994      -1.76647329      -0.89792772
H       -1.34334480      -0.43071179       1.48215878
H       -2.18535123      -1.08971100       0.08234295
H       -0.58473730       0.56411073      -1.82241044
H       -2.21678240       1.33291575      -0.36214726
H       -0.25310191       2.69971728       0.11428954
H        1.89645045       1.63688461       0.45908752
