11
Frame=0 idx=001334 GeodesicLength=0.0 rxn_smarts="[C:1]([C:2](=[O:3])[O:4]/[C:5](=[N:6]/[H:11])[H:10])([H:7])([H:8])[H:9]>>[C:1]([C:2](=[O:3])[N:6]([C:5](=[O:4])[H:10])[H:11])([H:7])([H:8])[H:9]"
C       -1.37616902       0.32892976      -0.42889477
C       -0.29244980      -0.69905799      -0.40631224
O       -0.21505260      -1.72089939      -0.97622598
O        0.23262873      -0.75981778       1.29368842
C        1.26050032      -0.07042003       1.00068558
N        1.29895187       0.25879038      -0.24073297
H       -2.30285399      -0.15983409      -0.12723644
H       -1.16285437       1.16093951       0.23411377
H       -1.48163355       0.68426850      -1.45403568
H        1.99256929       0.18919856       1.76695706
H        2.04636309       0.78790254      -0.66200673
11
Frame=1 idx=001334 GeodesicLength=0.060996981475603555 rxn_smarts="[C:1]([C:2](=[O:3])[O:4]/[C:5](=[N:6]/[H:11])[H:10])([H:7])([H:8])[H:9]>>[C:1]([C:2](=[O:3])[N:6]([C:5](=[O:4])[H:10])[H:11])([H:7])([H:8])[H:9]"
C       -1.39744759       0.32291558      -0.43869847
C       -0.28721749      -0.67666873      -0.41363865
O       -0.19266595      -1.69640102      -0.98892737
O        0.21273952      -0.71611828       1.30285134
C        1.25747083      -0.05005497       1.01369671
N        1.30713597       0.29559736      -0.22416041
H       -2.30488068      -0.17466229      -0.09510662
H       -1.19123567       1.17911057       0.19573036
H       -1.54058331       0.64354308      -1.47069671
H        2.03943836       0.10820648       1.75820700
H        2.09724601       0.76453221      -0.63925718
11
Frame=2 idx=001334 GeodesicLength=0.1203916459930925 rxn_smarts="[C:1]([C:2](=[O:3])[O:4]/[C:5](=[N:6]/[H:11])[H:10])([H:7])([H:8])[H:9]>>[C:1]([C:2](=[O:3])[N:6]([C:5](=[O:4])[H:10])[H:11])([H:7])([H:8])[H:9]"
C       -1.41702097       0.31686313      -0.44785395
C       -0.28117480      -0.65384287      -0.42004976
O       -0.16944329      -1.67114564      -1.00072359
O        0.19418129      -0.67129132       1.31217443
C        1.25630665      -0.03035427       1.02715169
N        1.31647931       0.33263811      -0.20677432
H       -2.30437152      -0.18713772      -0.06302689
H       -1.21860633       1.19653353       0.15687520
H       -1.59627301       0.60078834      -1.48495262
H        2.07780474       0.02516523       1.74382340
H        2.14211793       0.74178346      -0.61664359
11
Frame=3 idx=001334 GeodesicLength=0.17836869851548764 rxn_smarts="[C:1]([C:2](=[O:3])[O:4]/[C:5](=[N:6]/[H:11])[H:10])([H:7])([H:8])[H:9]>>[C:1]([C:2](=[O:3])[N:6]([C:5](=[O:4])[H:10])[H:11])([H:7])([H:8])[H:9]"
C       -1.43449722       0.31093176      -0.45590190
C       -0.27475863      -0.63151290      -0.42630261
O       -0.14732629      -1.64602698      -1.01277063
O        0.17749015      -0.62746726       1.32070201
C        1.25774693      -0.01440427       1.03961327
N        1.32776820       0.36707578      -0.18983420
H       -2.30137481      -0.19651467      -0.03055490
H       -1.24351809       1.21281016       0.11840711
H       -1.64841554       0.55709934      -1.49607781
H        2.10546905      -0.05331904       1.72686158
H        2.18141626       0.72132809      -0.59414191
11
Frame=4 idx=001334 GeodesicLength=0.2356952901787882 rxn_smarts="[C:1]([C:2](=[O:3])[O:4]/[C:5](=[N:6]/[H:11])[H:10])([H:7])([H:8])[H:9]>>[C:1]([C:2](=[O:3])[N:6]([C:5](=[O:4])[H:10])[H:11])([H:7])([H:8])[H:9]"
C       -1.45053012       0.30491318      -0.46326366
C       -0.26798163      -0.60922819      -0.43210321
O       -0.12543707      -1.62066123      -1.02455854
O        0.16207844      -0.58333514       1.32901460
C        1.26080260      -0.00050675       1.05186309
N        1.34034051       0.40041987      -0.17255671
H       -2.29643889      -0.20340886       0.00185994
H       -1.26728765       1.22806181       0.07963288
H       -1.69764547       0.51188757      -1.50462561
H        2.12563164      -0.13086146       1.70654116
H        2.21646766       0.70271920      -0.57180394
11
Frame=5 idx=001334 GeodesicLength=0.2927168824178489 rxn_smarts="[C:1]([C:2](=[O:3])[O:4]/[C:5](=[N:6]/[H:11])[H:10])([H:7])([H:8])[H:9]>>[C:1]([C:2](=[O:3])[N:6]([C:5](=[O:4])[H:10])[H:11])([H:7])([H:8])[H:9]"
C       -1.46533131       0.29875448      -0.46994463
C       -0.26088620      -0.58689871      -0.43764988
O       -0.10376628      -1.59492079      -1.03637043
O        0.14790714      -0.53892285       1.33697604
C        1.26516717       0.01144864       1.06386468
N        1.35418981       0.43267737      -0.15492867
H       -2.28971764      -0.20793580       0.03436787
H       -1.29014220       1.24225654       0.04042580
H       -1.74443776       0.46506030      -1.51052039
H        2.13874131      -0.20725079       1.68332184
H        2.24827596       0.68573161      -0.54954224
11
Frame=6 idx=001334 GeodesicLength=0.3496321351273891 rxn_smarts="[C:1]([C:2](=[O:3])[O:4]/[C:5](=[N:6]/[H:11])[H:10])([H:7])([H:8])[H:9]>>[C:1]([C:2](=[O:3])[N:6]([C:5](=[O:4])[H:10])[H:11])([H:7])([H:8])[H:9]"
C       -1.47908160       0.29240726      -0.47590741
C       -0.25353260      -0.56446130      -0.44311654
O       -0.08233793      -1.56867219      -1.04851500
O        0.13498238      -0.49434480       1.34445877
C        1.27056084       0.02157070       1.07557355
N        1.36932807       0.46378153      -0.13697284
H       -2.28140083      -0.21027119       0.06691320
H       -1.31235289       1.25526479       0.00089055
H       -1.78900698       0.41676009      -1.51362575
H        2.14518254      -0.28194437       1.65765813
H        2.27765900       0.66990948      -0.52735667
11
Frame=7 idx=001334 GeodesicLength=0.4066051866893614 rxn_smarts="[C:1]([C:2](=[O:3])[O:4]/[C:5](=[N:6]/[H:11])[H:10])([H:7])([H:8])[H:9]>>[C:1]([C:2](=[O:3])[N:6]([C:5](=[O:4])[H:10])[H:11])([H:7])([H:8])[H:9]"
C       -1.49193769       0.28584066      -0.48112387
C       -0.24596414      -0.54181472      -0.44870552
O       -0.06114849      -1.54170804      -1.06136962
O        0.12329806      -0.44976550       1.35131798
C        1.27671569       0.02995731       1.08695742
N        1.38579910       0.49365280      -0.11869684
H       -2.27160272      -0.21054052       0.09952455
H       -1.33414623       1.26700377      -0.03893668
H       -1.83162056       0.36702111      -1.51380280
H        2.14532150      -0.35440712       1.63003582
H        2.30528547       0.65476024      -0.50520045
11
Frame=8 idx=001334 GeodesicLength=0.46389556450450814 rxn_smarts="[C:1]([C:2](=[O:3])[O:4]/[C:5](=[N:6]/[H:11])[H:10])([H:7])([H:8])[H:9]>>[C:1]([C:2](=[O:3])[N:6]([C:5](=[O:4])[H:10])[H:11])([H:7])([H:8])[H:9]"
C       -1.50400687       0.27900994      -0.48566642
C       -0.23815791      -0.51879648      -0.45444555
O       -0.04000136      -1.51383499      -1.07495827
O        0.11275087      -0.40495983       1.35761619
C        1.28340650       0.03684909       1.09818734
N        1.40355841       0.52248691      -0.09988479
H       -2.26035986      -0.20876665       0.13222671
H       -1.35577631       1.27746725      -0.07932342
H       -1.87249091       0.31556439      -1.51099993
H        2.13955763      -0.42516342       1.60016386
H        2.33151981       0.64014378      -0.48291572
11
Frame=9 idx=001334 GeodesicLength=0.5214352872139266 rxn_smarts="[C:1]([C:2](=[O:3])[O:4]/[C:5](=[N:6]/[H:11])[H:10])([H:7])([H:8])[H:9]>>[C:1]([C:2](=[O:3])[N:6]([C:5](=[O:4])[H:10])[H:11])([H:7])([H:8])[H:9]"
C       -1.51538448       0.27190786      -0.48946523
C       -0.23022040      -0.49541457      -0.46053871
O       -0.01910624      -1.48496310      -1.08965752
O        0.10340135      -0.36030257       1.36317780
C        1.29042513       0.04223731       1.10912200
N        1.42268072       0.54992688      -0.08071997
H       -2.24785450      -0.20513122       0.16480261
H       -1.37745313       1.28644620      -0.11986759
H       -1.91150229       0.26281116      -1.50507415
H        2.12821822      -0.49307010       1.56877339
H        2.35679562       0.62555215      -0.46055264
11
Frame=10 idx=001334 GeodesicLength=0.5791853083416578 rxn_smarts="[C:1]([C:2](=[O:3])[O:4]/[C:5](=[N:6]/[H:11])[H:10])([H:7])([H:8])[H:9]>>[C:1]([C:2](=[O:3])[N:6]([C:5](=[O:4])[H:10])[H:11])([H:7])([H:8])[H:9]"
C       -1.52616159       0.26452312      -0.49250805
C       -0.22222341      -0.47160938      -0.46710943
O        0.00145207      -1.45495157      -1.10569888
O        0.09523140      -0.31595693       1.36793250
C        1.29757606       0.04619761       1.11971634
N        1.44317917       0.57581371      -0.06126465
H       -2.23424261      -0.19982679       0.19705378
H       -1.39943113       1.29380969      -0.16031482
H       -1.94855992       0.20902355      -1.49599335
H        2.11179720      -0.55754370       1.53633674
H        2.38138278       0.61052069      -0.43815019
11
Frame=11 idx=001334 GeodesicLength=0.6370857654676813 rxn_smarts="[C:1]([C:2](=[O:3])[O:4]/[C:5](=[N:6]/[H:11])[H:10])([H:7])([H:8])[H:9]>>[C:1]([C:2](=[O:3])[N:6]([C:5](=[O:4])[H:10])[H:11])([H:7])([H:8])[H:9]"
C       -1.53641932       0.25684464      -0.49480176
C       -0.21423341      -0.44730338      -0.47424596
O        0.02159693      -1.42366781      -1.12322314
O        0.08820114      -0.27198557       1.37184870
C        1.30469253       0.04882539       1.12993613
N        1.46505681       0.60001786      -0.04157573
H       -2.21968031      -0.19306634       0.22878133
H       -1.42197653       1.29945428      -0.20042559
H       -1.98352786       0.15443597      -1.48380156
H        2.09082783      -0.61822098       1.50325437
H        2.40546218       0.59466594      -0.41574679
11
Frame=12 idx=001334 GeodesicLength=0.6951517446539107 rxn_smarts="[C:1]([C:2](=[O:3])[O:4]/[C:5](=[N:6]/[H:11])[H:10])([H:7])([H:8])[H:9]>>[C:1]([C:2](=[O:3])[N:6]([C:5](=[O:4])[H:10])[H:11])([H:7])([H:8])[H:9]"
C       -1.54622855       0.24885424      -0.49637311
C       -0.20627878      -0.42233686      -0.48201717
O        0.04133674      -1.39089662      -1.14232396
O        0.08224337      -0.22829311       1.37492622
C        1.31164149       0.05021024       1.13978551
N        1.48833260       0.62249793      -0.02163508
H       -2.20425888      -0.18501239       0.25988824
H       -1.44536459       1.30332810      -0.24012441
H       -2.01634060       0.09906348      -1.46853722
H        2.06575587      -0.67508386       1.46974069
H        2.42916133       0.57766884      -0.39332971
11
Frame=13 idx=001334 GeodesicLength=0.7533767551840196 rxn_smarts="[C:1]([C:2](=[O:3])[O:4]/[C:5](=[N:6]/[H:11])[H:10])([H:7])([H:8])[H:9]>>[C:1]([C:2](=[O:3])[N:6]([C:5](=[O:4])[H:10])[H:11])([H:7])([H:8])[H:9]"
C       -1.55564594       0.24052975      -0.49724232
C       -0.19838616      -0.39652610      -0.49048434
O        0.06066999      -1.35640426      -1.16307044
O        0.07730135      -0.18473678       1.37716455
C        1.31830409       0.05043600       1.14925703
N        1.51304109       0.64319185      -0.00143639
H       -2.18806343      -0.17584622       0.29027795
H       -1.46988255       1.30536869      -0.27931043
H       -2.04686958       0.04291993      -1.45025194
H        2.03696670      -0.72814288       1.43599941
H        2.45256444       0.55921003      -0.37090307
11
Frame=14 idx=001334 GeodesicLength=0.8116636252773861 rxn_smarts="[C:1]([C:2](=[O:3])[O:4]/[C:5](=[N:6]/[H:11])[H:10])([H:7])([H:8])[H:9]>>[C:1]([C:2](=[O:3])[N:6]([C:5](=[O:4])[H:10])[H:11])([H:7])([H:8])[H:9]"
C       -1.56470508       0.23184883      -0.49741923
C       -0.19059967      -0.36971397      -0.49968758
O        0.07953513      -1.32002268      -1.18546039
O        0.07333993      -0.14117180       1.37856477
C        1.32456287       0.04961189       1.15832032
N        1.53920234       0.66199144       0.01897332
H       -2.17121124      -0.16583339       0.31979473
H       -1.49580814       1.30548592      -0.31773965
H       -2.07484419      -0.01382651      -1.42909050
H        2.00484074      -0.77733426       1.40228192
H        2.47568729       0.53896452      -0.34853772
11
Frame=15 idx=001334 GeodesicLength=0.8700072428530025 rxn_smarts="[C:1]([C:2](=[O:3])[O:4]/[C:5](=[N:6]/[H:11])[H:10])([H:7])([H:8])[H:9]>>[C:1]([C:2](=[O:3])[N:6]([C:5](=[O:4])[H:10])[H:11])([H:7])([H:8])[H:9]"
C       -1.57342322       0.22277769      -0.49691891
C       -0.18292922      -0.34164477      -0.50967758
O        0.09794563      -1.28146972      -1.20950460
O        0.07032095      -0.09733434       1.37912581
C        1.33031137       0.04782037       1.16697159
N        1.56687213       0.67882534       0.03961568
H       -2.15373193      -0.15515463       0.34840816
H       -1.52342340       1.30360891      -0.35533973
H       -2.10006619      -0.07125333      -1.40512274
H        1.96958813      -0.82281613       1.36867790
H        2.49853575       0.51664061      -0.32623559
11
Frame=16 idx=001334 GeodesicLength=0.928405065892797 rxn_smarts="[C:1]([C:2](=[O:3])[O:4]/[C:5](=[N:6]/[H:11])[H:10])([H:7])([H:8])[H:9]>>[C:1]([C:2](=[O:3])[N:6]([C:5](=[O:4])[H:10])[H:11])([H:7])([H:8])[H:9]"
C       -1.58179385       0.21327357      -0.49574679
C       -0.17538155      -0.31201758      -0.52051055
O        0.11591526      -1.24042375      -1.23520713
O        0.06822552      -0.05291329       1.37883458
C        1.33543562       0.04513860       1.17520118
N        1.59611982       0.69359179       0.06051367
H       -2.13562139      -0.14398659       0.37611296
H       -1.55301515       1.29963680      -0.39203856
H       -2.12227501      -0.12947548      -1.37839911
H        1.93130711      -0.86475459       1.33523763
H        2.52108361       0.49193053      -0.30399788
