11
Frame=0 idx=003532 GeodesicLength=0.0 rxn_smarts="[O:1]([C@@:2]1([H:7])[C:3]([H:8])([H:9])[C@:4]1([O:5][H:11])[H:10])[H:6]>>[O:1]([C:2]1([H:7])[C:3]([H:9])=[C:4]1[H:10])[H:6].[O:5]([H:8])[H:11]"
O        0.70445129       1.42683811       0.44866531
C        0.59590688       0.39288711      -0.52776800
C        0.52943180      -1.02167032      -0.09771438
C       -0.67990932      -0.35850268      -0.52951901
O       -1.40801315      -0.10253919       0.83232052
H        1.38671273       1.14996184       1.06636843
H        0.99125713       0.71632415      -1.48711891
H       -0.58510731      -0.70203353       1.17762411
H        1.01063988      -1.82603370      -0.63570800
H       -1.41938025      -0.48407109      -1.30604989
H       -1.12598967       0.80883931       1.05889977
11
Frame=1 idx=003532 GeodesicLength=0.09161364837048319 rxn_smarts="[O:1]([C@@:2]1([H:7])[C:3]([H:8])([H:9])[C@:4]1([O:5][H:11])[H:10])[H:6]>>[O:1]([C:2]1([H:7])[C:3]([H:9])=[C:4]1[H:10])[H:6].[O:5]([H:8])[H:11]"
O        0.69985505       1.42410813       0.45099331
C        0.59814921       0.39386370      -0.52876251
C        0.52505651      -1.02249972      -0.10263577
C       -0.67837336      -0.35576199      -0.53779019
O       -1.42121738      -0.10074869       0.84171356
H        1.40197458       1.16477894       1.05349227
H        1.00169835       0.71817528      -1.48436574
H       -0.58761551      -0.71730564       1.18801545
H        1.01035187      -1.82943995      -0.63295518
H       -1.41796279      -0.48336145      -1.31350575
H       -1.13191652       0.80819139       1.06580056
11
Frame=2 idx=003532 GeodesicLength=0.18315979534769608 rxn_smarts="[O:1]([C@@:2]1([H:7])[C:3]([H:8])([H:9])[C@:4]1([O:5][H:11])[H:10])[H:6]>>[O:1]([C:2]1([H:7])[C:3]([H:9])=[C:4]1[H:10])[H:6].[O:5]([H:8])[H:11]"
O        0.69540806       1.42110622       0.45351488
C        0.60051034       0.39478416      -0.52973525
C        0.52057822      -1.02336310      -0.10761600
C       -0.67675495      -0.35292386      -0.54631025
O       -1.43458950      -0.09894529       0.85136193
H        1.41695698       1.18026816       1.04013384
H        1.01238966       0.71998227      -1.48144773
H       -0.58994992      -0.73305280       1.19852277
H        1.00989290      -1.83294646      -0.63007705
H       -1.41662071      -0.48238762      -1.32107310
H       -1.13782110       0.80747833       1.07272597
11
Frame=3 idx=003532 GeodesicLength=0.2746591593671165 rxn_smarts="[O:1]([C@@:2]1([H:7])[C:3]([H:8])([H:9])[C@:4]1([O:5][H:11])[H:10])[H:6]>>[O:1]([C:2]1([H:7])[C:3]([H:9])=[C:4]1[H:10])[H:6].[O:5]([H:8])[H:11]"
O        0.69112166       1.41782289       0.45622197
C        0.60300110       0.39564145      -0.53068373
C        0.51598773      -1.02426593      -0.11266264
C       -0.67504655      -0.34997841      -0.55509311
O       -1.44812608      -0.09712126       0.86128121
H        1.43160222       1.19645550       1.02629712
H        1.02334468       0.72173094      -1.47835439
H       -0.59207771      -0.74929144       1.20915623
H        1.00924229      -1.83656058      -0.62707729
H       -1.41535504      -0.48113625      -1.32875770
H       -1.14369431       0.80670308       1.07967233
11
Frame=4 idx=003532 GeodesicLength=0.36612837525542097 rxn_smarts="[O:1]([C@@:2]1([H:7])[C:3]([H:8])([H:9])[C@:4]1([O:5][H:11])[H:10])[H:6]>>[O:1]([C:2]1([H:7])[C:3]([H:9])=[C:4]1[H:10])[H:6].[O:5]([H:8])[H:11]"
O        0.68701001       1.41425052       0.45910911
C        0.60563270       0.39642792      -0.53160690
C        0.51127679      -1.02521268      -0.11778352
C       -0.67323911      -0.34691537      -0.56415194
O       -1.46182406      -0.09526589       0.87148808
H        1.44584552       1.21336525       1.01198903
H        1.03457855       0.72340438      -1.47508184
H       -0.59396780      -0.76604031       1.21992572
H        1.00838124      -1.84029014      -0.62396140
H       -1.41416710      -0.47959384      -1.33656206
H       -1.14952674       0.80587017       1.08663571
11
Frame=5 idx=003532 GeodesicLength=0.4575773747358803 rxn_smarts="[O:1]([C@@:2]1([H:7])[C:3]([H:8])([H:9])[C@:4]1([O:5][H:11])[H:10])[H:6]>>[O:1]([C:2]1([H:7])[C:3]([H:9])=[C:4]1[H:10])[H:6].[O:5]([H:8])[H:11]"
O        0.68308436       1.41038124       0.46217223
C        0.60841753       0.39713471      -0.53250387
C        0.50643319      -1.02620712      -0.12298587
C       -0.67132538      -0.34372318      -0.57350144
O       -1.47567930      -0.09337042       0.88199889
H        1.45962633       1.23102614       0.99721644
H        1.04610814       0.72498302      -1.47162350
H       -0.59558206      -0.78331919       1.23083858
H        1.00728670      -1.84414286      -0.62073173
H       -1.41305843      -0.47774496      -1.34449038
H       -1.15531107       0.80498263       1.09361064
11
Frame=6 idx=003532 GeodesicLength=0.5490303863686399 rxn_smarts="[O:1]([C@@:2]1([H:7])[C:3]([H:8])([H:9])[C@:4]1([O:5][H:11])[H:10])[H:6]>>[O:1]([C:2]1([H:7])[C:3]([H:9])=[C:4]1[H:10])[H:6].[O:5]([H:8])[H:11]"
O        0.67935911       1.40620132       0.46540122
C        0.61136943       0.39775173      -0.53336959
C        0.50144590      -1.02725809      -0.12827946
C       -0.66929381      -0.34039132      -0.58315849
O       -1.48968869      -0.09142375       0.89283153
H        1.47286746       1.24947334       0.98198129
H        1.05795255       0.72644879      -1.46796292
H       -0.59687799      -0.80114567       1.24191051
H        1.00593045      -1.84813003      -0.61739628
H       -1.41202951      -0.47557034      -1.35255072
H       -1.16103491       0.80404401       1.10059290
11
Frame=7 idx=003532 GeodesicLength=0.640491780667098 rxn_smarts="[O:1]([C@@:2]1([H:7])[C:3]([H:8])([H:9])[C@:4]1([O:5][H:11])[H:10])[H:6]>>[O:1]([C:2]1([H:7])[C:3]([H:9])=[C:4]1[H:10])[H:6].[O:5]([H:8])[H:11]"
O        0.67585172       1.40170476       0.46879173
C        0.61450050       0.39826548      -0.53420438
C        0.49630212      -1.02836756      -0.13367304
C       -0.66713357      -0.33690614      -0.59313650
O       -1.50384689      -0.08941152       0.90400644
H        1.48549140       1.26874463       0.96629528
H        1.07013068       0.72776964      -1.46409627
H       -0.59781736      -0.81955070       1.25314467
H        1.00428539      -1.85225827      -0.61396186
H       -1.41107647      -0.47304986      -1.36074209
H       -1.16668753       0.80305953       1.10757602
11
Frame=8 idx=003532 GeodesicLength=0.7319461150063932 rxn_smarts="[O:1]([C@@:2]1([H:7])[C:3]([H:8])([H:9])[C@:4]1([O:5][H:11])[H:10])[H:6]>>[O:1]([C:2]1([H:7])[C:3]([H:9])=[C:4]1[H:10])[H:6].[O:5]([H:8])[H:11]"
O        0.67257524       1.39688427       0.47234984
C        0.61782558       0.39865724      -0.53501112
C        0.49098203      -1.02953886      -0.13917304
C       -0.66483816      -0.33325036      -0.60345429
O       -1.51814166      -0.08732674       0.91554855
H        1.49742296       1.28890481       0.95017094
H        1.08267223       0.72890271      -1.46002683
H       -0.59835607      -0.83857259       1.26453445
H        1.00231495      -1.85653825      -0.61042847
H       -1.41019726      -0.47015183      -1.36906443
H       -1.17225984       0.80202959       1.11455440
11
Frame=9 idx=003532 GeodesicLength=0.8235601635303919 rxn_smarts="[O:1]([C@@:2]1([H:7])[C:3]([H:8])([H:9])[C@:4]1([O:5][H:11])[H:10])[H:6]>>[O:1]([C:2]1([H:7])[C:3]([H:9])=[C:4]1[H:10])[H:6].[O:5]([H:8])[H:11]"
O        0.66951891       1.39171889       0.47608877
C        0.62138177       0.39893338      -0.53575250
C        0.48548566      -1.03079687      -0.14478500
C       -0.66236583      -0.32942207      -0.61413911
O       -1.53260782      -0.08514800       0.92748322
H        1.50856769       1.30990868       0.93348028
H        1.09561864       0.72988984      -1.45568944
H       -0.59842660      -0.85819461       1.27616723
H        1.00000027      -1.86100008      -0.60681418
H       -1.40940275      -0.46684765      -1.37755428
H       -1.17776994       0.80095850       1.12151501
11
Frame=10 idx=003532 GeodesicLength=0.9151753985808503 rxn_smarts="[O:1]([C@@:2]1([H:7])[C:3]([H:8])([H:9])[C@:4]1([O:5][H:11])[H:10])[H:6]>>[O:1]([C:2]1([H:7])[C:3]([H:9])=[C:4]1[H:10])[H:6].[O:5]([H:8])[H:11]"
O        0.66671892       1.38620251       0.47999207
C        0.62516889       0.39905911      -0.53645405
C        0.47978071      -1.03213213      -0.15052017
C       -0.65973099      -0.32539432      -0.62520119
O       -1.54720356      -0.08286785       0.93982961
H        1.51883768       1.33189021       0.91633624
H        1.10899233       0.73063260      -1.45111936
H       -0.59799233      -0.87848454       1.28798065
H        0.99729127      -1.86564579      -0.60311421
H       -1.40868187      -0.46310733      -1.38619001
H       -1.18318106       0.79984754       1.12846041
11
Frame=11 idx=003532 GeodesicLength=1.0067870921920135 rxn_smarts="[O:1]([C@@:2]1([H:7])[C:3]([H:8])([H:9])[C@:4]1([O:5][H:11])[H:10])[H:6]>>[O:1]([C:2]1([H:7])[C:3]([H:9])=[C:4]1[H:10])[H:6].[O:5]([H:8])[H:11]"
O        0.66418359       1.38032390       0.48404172
C        0.62920713       0.39902469      -0.53710518
C        0.47385344      -1.03355363      -0.15638963
C       -0.65691233      -0.32115438      -0.63666286
O       -1.56192322      -0.08047417       0.95261131
H        1.52813027       1.35486748       0.89872612
H        1.12282788       0.73111189      -1.44628737
H       -0.59699642      -0.89945342       1.30000318
H        0.99414952      -1.87049014      -0.59933672
H       -1.40803584      -0.45890148      -1.39498284
H       -1.18848401       0.79869926       1.13538228
11
Frame=12 idx=003532 GeodesicLength=1.0983911736080088 rxn_smarts="[O:1]([C@@:2]1([H:7])[C:3]([H:8])([H:9])[C@:4]1([O:5][H:11])[H:10])[H:6]>>[O:1]([C:2]1([H:7])[C:3]([H:9])=[C:4]1[H:10])[H:6].[O:5]([H:8])[H:11]"
O        0.66193131       1.37407991       0.48821960
C        0.63351770       0.39881426      -0.53770319
C        0.46769259      -1.03506690      -0.16240673
C       -0.65388772      -0.31668688      -0.64854108
O       -1.57675961      -0.07794357       0.96585440
H        1.53631820       1.37886629       0.88065974
H        1.13715685       0.73128889      -1.44117799
H       -0.59538393      -0.92112695       1.31225672
H        0.99053935      -1.87555034      -0.59549977
H       -1.40746044      -0.45419970      -1.40393762
H       -1.19366429       0.79752500       1.14227592
11
Frame=13 idx=003532 GeodesicLength=1.1899772860394762 rxn_smarts="[O:1]([C@@:2]1([H:7])[C:3]([H:8])([H:9])[C@:4]1([O:5][H:11])[H:10])[H:6]>>[O:1]([C:2]1([H:7])[C:3]([H:9])=[C:4]1[H:10])[H:6].[O:5]([H:8])[H:11]"
O        0.65996386       1.36746635       0.49251964
C        0.63811942       0.39840935      -0.53824162
C        0.46127107      -1.03667346      -0.16857801
C       -0.65064038      -0.31197188      -0.66086240
O       -1.59170600      -0.07526349       0.97958675
H        1.54329964       1.40392722       0.86212873
H        1.15202813       0.73111737      -1.43577267
H       -0.59308005      -0.94353806       1.32475081
H        0.98641156      -1.88083720      -0.59160180
H       -1.40695192      -0.44895859      -1.41306012
H       -1.19871532       0.79632239       1.14913071
11
Frame=14 idx=003532 GeodesicLength=1.2815331066643079 rxn_smarts="[O:1]([C@@:2]1([H:7])[C:3]([H:8])([H:9])[C@:4]1([O:5][H:11])[H:10])[H:6]>>[O:1]([C:2]1([H:7])[C:3]([H:9])=[C:4]1[H:10])[H:6].[O:5]([H:8])[H:11]"
O        0.65830789       1.36047325       0.49693610
C        0.64303903       0.39778628      -0.53871606
C        0.45457257      -1.03838056      -0.17491686
C       -0.64714151      -0.30699071      -0.67364577
O       -1.60675121      -0.07240530       0.99383887
H        1.54890833       1.43009592       0.84312383
H        1.16748738       0.73054439      -1.43005042
H       -0.59002071      -0.96672242       1.33750333
H        0.98171710      -1.88637023      -0.58766239
H       -1.40650094      -0.44313136      -1.42235173
H       -1.20361793       0.79510073       1.15594111
11
Frame=15 idx=003532 GeodesicLength=1.3730355908263079 rxn_smarts="[O:1]([C@@:2]1([H:7])[C:3]([H:8])([H:9])[C@:4]1([O:5][H:11])[H:10])[H:6]>>[O:1]([C:2]1([H:7])[C:3]([H:9])=[C:4]1[H:10])[H:6].[O:5]([H:8])[H:11]"
O        0.65697853       1.35308224       0.50147137
C        0.64830492       0.39691896      -0.53911324
C        0.44757014      -1.04019679      -0.18143326
C       -0.64336597      -0.30172114      -0.68691739
O       -1.62188544      -0.06935152       1.00864191
H        1.55299746       1.45744220       0.82360995
H        1.18359567       0.72951482      -1.42397524
H       -0.58612953      -0.99071755       1.35052791
H        0.97639507      -1.89217363      -0.58369282
H       -1.40609925      -0.43665809      -1.43181851
H       -1.20836162       0.79386049       1.16269933
11
Frame=16 idx=003532 GeodesicLength=1.4644538837207217 rxn_smarts="[O:1]([C@@:2]1([H:7])[C:3]([H:8])([H:9])[C@:4]1([O:5][H:11])[H:10])[H:6]>>[O:1]([C:2]1([H:7])[C:3]([H:9])=[C:4]1[H:10])[H:6].[O:5]([H:8])[H:11]"
O        0.65600081       1.34525675       0.50616160
C        0.65395480       0.39577728      -0.53941975
C        0.44023331      -1.04213469      -0.18813277
C       -0.63928797      -0.29613827      -0.70070116
O       -1.63710011      -0.06608149       1.02403000
H        1.55539842       1.48606682       0.80351688
H        1.20043085       0.72797247      -1.41751905
H       -0.58133443      -1.01557276       1.36383015
H        0.97037919      -1.89827955      -0.57969784
H       -1.40573967      -0.42946449      -1.44146879
H       -1.21293521       0.79259794       1.16940073
