16
Frame=0 idx=009624 GeodesicLength=0.0 rxn_smarts="[C:1]([C@@:2]1([H:11])[N:3]([H:12])[C@:4]1([C@@:5]1([H:14])[C:6]([H:15])([H:16])[O:7]1)[H:13])([H:8])([H:9])[H:10]>>[C:1]([C@@:2]1([H:11])[N:3]([H:12])[C@:4]1([C-:5]=[O+:7][C:6]([H:14])([H:15])[H:16])[H:13])([H:8])([H:9])[H:10]"
C       -2.05731942      -0.46428390       0.08575426
C       -1.18967083       0.60770405       0.68944175
N        0.00756243       0.27670502       1.45034299
C        0.15403978       0.97829694       0.16811633
C        0.62774206       0.35174095      -1.10398210
C        2.16730842      -0.50937812      -0.68340456
O        0.89057614      -1.02952946      -0.91968437
H       -2.69762440      -0.04596632      -0.69268456
H       -2.70387697      -0.88974931       0.85647288
H       -1.47286705      -1.27218500      -0.35334979
H       -1.75007110       1.42839536       1.12852025
H        0.21642418      -0.70745227       1.29752736
H        0.43583123       2.02288357       0.25411050
H        2.01466940       0.59638170      -1.18475836
H        2.91573168      -0.92248657      -1.35613082
H        2.44154448      -0.42107657       0.36370822
16
Frame=1 idx=009624 GeodesicLength=0.06141071960740809 rxn_smarts="[C:1]([C@@:2]1([H:11])[N:3]([H:12])[C@:4]1([C@@:5]1([H:14])[C:6]([H:15])([H:16])[O:7]1)[H:13])([H:8])([H:9])[H:10]>>[C:1]([C@@:2]1([H:11])[N:3]([H:12])[C@:4]1([C-:5]=[O+:7][C:6]([H:14])([H:15])[H:16])[H:13])([H:8])([H:9])[H:10]"
C       -2.05961262      -0.46446895       0.08314022
C       -1.19701306       0.60907020       0.69116477
N       -0.00382143       0.28086504       1.45929166
C        0.14944760       0.98120526       0.17748779
C        0.63482119       0.35136363      -1.08718928
C        2.17890963      -0.51038682      -0.69132225
O        0.89428180      -1.02616933      -0.90207536
H       -2.69467216      -0.04787191      -0.70054556
H       -2.71090724      -0.88995775       0.84981137
H       -1.47134608      -1.27243783      -0.35073740
H       -1.76133568       1.42919924       1.12630544
H        0.20860706      -0.70292509       1.30956849
H        0.42901032       2.02633267       0.26435387
H        2.02116785       0.60166805      -1.20742335
H        2.91106635      -0.93707780      -1.37333188
H        2.47139647      -0.42840859       0.35150147
16
Frame=2 idx=009624 GeodesicLength=0.12283217876970655 rxn_smarts="[C:1]([C@@:2]1([H:11])[N:3]([H:12])[C@:4]1([C@@:5]1([H:14])[C:6]([H:15])([H:16])[O:7]1)[H:13])([H:8])([H:9])[H:10]>>[C:1]([C@@:2]1([H:11])[N:3]([H:12])[C@:4]1([C-:5]=[O+:7][C:6]([H:14])([H:15])[H:16])[H:13])([H:8])([H:9])[H:10]"
C       -2.06173794      -0.46465761       0.08029573
C       -1.20448595       0.61048599       0.69291218
N       -0.01565058       0.28513647       1.46867538
C        0.14484570       0.98420781       0.18737472
C        0.64229933       0.35114081      -1.06959779
C        2.19061236      -0.51142549      -0.69950305
O        0.89840251      -1.02266288      -0.88355532
H       -2.69126526      -0.04982413      -0.70881795
H       -2.71798514      -0.89020778       0.84266667
H       -1.46950088      -1.27265526      -0.34811974
H       -1.77289350       1.43003685       1.12386135
H        0.20045873      -0.69825627       1.32215888
H        0.42219976       2.02985804       0.27519226
H        2.02685482       0.60654569      -1.23124782
H        2.90570216      -0.95194161      -1.39072195
H        2.50214390      -0.43578062       0.33842644
16
Frame=3 idx=009624 GeodesicLength=0.1842619276236701 rxn_smarts="[C:1]([C@@:2]1([H:11])[N:3]([H:12])[C@:4]1([C@@:5]1([H:14])[C:6]([H:15])([H:16])[O:7]1)[H:13])([H:8])([H:9])[H:10]>>[C:1]([C@@:2]1([H:11])[N:3]([H:12])[C@:4]1([C-:5]=[O+:7][C:6]([H:14])([H:15])[H:16])[H:13])([H:8])([H:9])[H:10]"
C       -2.06366748      -0.46484890       0.07719767
C       -1.21208769       0.61195453       0.69468016
N       -0.02795192       0.28952510       1.47851811
C        0.14023940       0.98731506       0.19781468
C        0.65021835       0.35109432      -1.05114396
C        2.20241313      -0.51249379      -0.70796274
O        0.90298066      -1.01898882      -0.86405692
H       -2.68735658      -0.05182037      -0.71752870
H       -2.72509160      -0.89050760       0.83499307
H       -1.46729304      -1.27282826      -0.34550721
H       -1.78475302       1.43090692       1.12116694
H        0.19195464      -0.69343817       1.33533038
H        0.41539684       2.03347086       0.28667446
H        2.03159852       0.61094662      -1.25629761
H        2.89958279      -0.96709864      -1.40828589
H        2.53381699      -0.44318887       0.32440756
16
Frame=4 idx=009624 GeodesicLength=0.24569475245919406 rxn_smarts="[C:1]([C@@:2]1([H:11])[N:3]([H:12])[C@:4]1([C@@:5]1([H:14])[C:6]([H:15])([H:16])[O:7]1)[H:13])([H:8])([H:9])[H:10]>>[C:1]([C@@:2]1([H:11])[N:3]([H:12])[C@:4]1([C-:5]=[O+:7][C:6]([H:14])([H:15])[H:16])[H:13])([H:8])([H:9])[H:10]"
C       -2.06536537      -0.46504233       0.07381901
C       -1.21981505       0.61348001       0.69646324
N       -0.04075649       0.29403965       1.48884698
C        0.13563535       0.99054107       0.20885099
C        0.65862797       0.35125201      -1.03175447
C        2.21430498      -0.51359210      -0.71671918
O        0.90806863      -1.01511848      -0.84350141
H       -2.68288763      -0.05385997      -0.72671098
H       -2.73220139      -0.89086978       0.82673640
H       -1.46467477      -1.27294646      -0.34291250
H       -1.79692260       1.43180798       1.11819548
H        0.18306874      -0.68845923       1.34912011
H        0.40859757       2.03718688       0.29885727
H        2.03523956       0.61479234      -1.28263635
H        2.89263381      -0.98257584      -1.42600479
H        2.56644667      -0.45063574       0.30935018
16
Frame=5 idx=009624 GeodesicLength=0.3071965114803551 rxn_smarts="[C:1]([C@@:2]1([H:11])[N:3]([H:12])[C@:4]1([C@@:5]1([H:14])[C:6]([H:15])([H:16])[O:7]1)[H:13])([H:8])([H:9])[H:10]>>[C:1]([C@@:2]1([H:11])[N:3]([H:12])[C@:4]1([C-:5]=[O+:7][C:6]([H:14])([H:15])[H:16])[H:13])([H:8])([H:9])[H:10]"
C       -2.06679915      -0.46523779       0.07013286
C       -1.22766538       0.61506677       0.69825664
N       -0.05409271       0.29868881       1.49968509
C        0.13104033       0.99389923       0.22052246
C        0.66757455       0.35163488      -1.01135777
C        2.22627641      -0.51473234      -0.72578584
O        0.91370346      -1.01103242      -0.82181774
H       -2.67781097      -0.05594360      -0.73639709
H       -2.73929415      -0.89130111       0.81785243
H       -1.46159852      -1.27300161      -0.34034363
H       -1.80941446       1.43273902       1.11492496
H        0.17377632      -0.68330898       1.36356101
H        0.40179789       2.04102065       0.31178736
H        2.03765054       0.61802247      -1.31032115
H        2.88480747      -0.99838490      -1.44387932
H        2.60004837      -0.45812908       0.29317974
16
Frame=6 idx=009624 GeodesicLength=0.36875348687720544 rxn_smarts="[C:1]([C@@:2]1([H:11])[N:3]([H:12])[C@:4]1([C@@:5]1([H:14])[C:6]([H:15])([H:16])[O:7]1)[H:13])([H:8])([H:9])[H:10]>>[C:1]([C@@:2]1([H:11])[N:3]([H:12])[C@:4]1([C-:5]=[O+:7][C:6]([H:14])([H:15])[H:16])[H:13])([H:8])([H:9])[H:10]"
C       -2.06791701      -0.46543457       0.06610278
C       -1.23563086       0.61671911       0.70005224
N       -0.06799653       0.30348374       1.51106452
C        0.12646298       0.99740895       0.23288254
C        0.67712890       0.35228592      -0.98986007
C        2.23831898      -0.51591135      -0.73518460
O        0.91995624      -1.00668803      -0.79890864
H       -2.67204365      -0.05806762      -0.74662863
H       -2.74632863      -0.89182142       0.80826626
H       -1.45799901      -1.27297840      -0.33782194
H       -1.82223515       1.43369574       1.11131939
H        0.16404834      -0.67797260       1.37869625
H        0.39498949       2.04499416       0.32553705
H        2.03859563       0.62052801      -1.33942071
H        2.87599194      -1.01456579      -1.46187032
H        2.63465834      -0.46567584       0.27577387
16
Frame=7 idx=009624 GeodesicLength=0.4303772393800378 rxn_smarts="[C:1]([C@@:2]1([H:11])[N:3]([H:12])[C@:4]1([C@@:5]1([H:14])[C:6]([H:15])([H:16])[O:7]1)[H:13])([H:8])([H:9])[H:10]>>[C:1]([C@@:2]1([H:11])[N:3]([H:12])[C@:4]1([C-:5]=[O+:7][C:6]([H:14])([H:15])[H:16])[H:13])([H:8])([H:9])[H:10]"
C       -2.06866082      -0.46562976       0.06168877
C       -1.24370254       0.61844195       0.70184186
N       -0.08250465       0.30843596       1.52301939
C        0.12191306       1.00109184       0.24598882
C        0.68736624       0.35324824      -0.96716043
C        2.25041815      -0.51713118      -0.74493926
O        0.92689305      -1.00204694      -0.77467193
H       -2.66549903      -0.06022610      -0.75745318
H       -2.75325910      -0.89244683       0.79789952
H       -1.45379876      -1.27285901      -0.33536847
H       -1.83539576       1.43467325       1.10734242
H        0.15385681      -0.67243518       1.39457147
H        0.38816319       2.04913122       0.34017980
H        2.03781867       0.62218771      -1.37000427
H        2.86609400      -1.03114607      -1.47994936
H        2.67029751      -0.47328909       0.25701486
16
Frame=8 idx=009624 GeodesicLength=0.4920309087468201 rxn_smarts="[C:1]([C@@:2]1([H:11])[N:3]([H:12])[C@:4]1([C@@:5]1([H:14])[C:6]([H:15])([H:16])[O:7]1)[H:13])([H:8])([H:9])[H:10]>>[C:1]([C@@:2]1([H:11])[N:3]([H:12])[C@:4]1([C-:5]=[O+:7][C:6]([H:14])([H:15])[H:16])[H:13])([H:8])([H:9])[H:10]"
C       -2.06895321      -0.46581878       0.05684078
C       -1.25186872       0.62024053       0.70361266
N       -0.09766372       0.31355560       1.53558762
C        0.11739836       1.00497123       0.25990776
C        0.69837027       0.35457314      -0.94314494
C        2.26255066      -0.51839452      -0.75508778
O        0.93459864      -0.99705690      -0.74898650
H       -2.65806210      -0.06240810      -0.76892389
H       -2.76001968      -0.89319718       0.78665817
H       -1.44890125      -1.27261901      -0.33300255
H       -1.84890237       1.43566442       1.10294426
H        0.14316585      -0.66668211       1.41123838
H        0.38130222       2.05345635       0.35580043
H        2.03502009       0.62284936      -1.40210380
H        2.85498803      -1.04817108      -1.49807996
H        2.70697692      -0.48096295       0.23673935
16
Frame=9 idx=009624 GeodesicLength=0.5533150830809928 rxn_smarts="[C:1]([C@@:2]1([H:11])[N:3]([H:12])[C@:4]1([C@@:5]1([H:14])[C:6]([H:15])([H:16])[O:7]1)[H:13])([H:8])([H:9])[H:10]>>[C:1]([C@@:2]1([H:11])[N:3]([H:12])[C@:4]1([C-:5]=[O+:7][C:6]([H:14])([H:15])[H:16])[H:13])([H:8])([H:9])[H:10]"
C       -2.06865754      -0.46602450       0.05149527
C       -1.26010111       0.62214114       0.70532539
N       -0.11357798       0.31890366       1.54880533
C        0.11294118       1.00908856       0.27474416
C        0.71021096       0.35629353      -0.91762119
C        2.27457051      -0.51973719      -0.76576983
O        0.94317306      -0.99165208      -0.72160207
H       -2.64952666      -0.06467448      -0.78113312
H       -2.76649464      -0.89411814       0.77440755
H       -1.44313298      -1.27226545      -0.33071560
H       -1.86274986       1.43669270       1.09799847
H        0.13188689      -0.66064407       1.42878148
H        0.37440255       2.05802315       0.37248902
H        2.03000206       0.62234752      -1.43537385
H        2.84238866      -1.06569748      -1.51633687
H        2.74466490      -0.48867690       0.21450585
16
Frame=10 idx=009624 GeodesicLength=0.6144536936864412 rxn_smarts="[C:1]([C@@:2]1([H:11])[N:3]([H:12])[C@:4]1([C@@:5]1([H:14])[C:6]([H:15])([H:16])[O:7]1)[H:13])([H:8])([H:9])[H:10]>>[C:1]([C@@:2]1([H:11])[N:3]([H:12])[C@:4]1([C-:5]=[O+:7][C:6]([H:14])([H:15])[H:16])[H:13])([H:8])([H:9])[H:10]"
C       -2.06768277      -0.46622838       0.04557453
C       -1.26838042       0.62413610       0.70698069
N       -0.13025613       0.32447145       1.56272655
C        0.10855749       1.01348544       0.29057295
C        0.72304760       0.35853183      -0.89046005
C        2.28649483      -0.52115393      -0.77696787
O        0.95273536      -0.98574469      -0.69242414
H       -2.63975950      -0.06697338      -0.79416733
H       -2.77261711      -0.89522973       0.76100623
H       -1.43637328      -1.27174975      -0.32857110
H       -1.87695694       1.43771965       1.09248946
H        0.12003432      -0.65432304       1.44725232
H        0.36743966       2.06286967       0.39038447
H        2.02213179       0.62045095      -1.47011207
H        2.82817069      -1.08379855      -1.53457585
H        2.78341440      -0.49646363       0.19029122
16
Frame=11 idx=009624 GeodesicLength=0.6754620720439257 rxn_smarts="[C:1]([C@@:2]1([H:11])[N:3]([H:12])[C@:4]1([C@@:5]1([H:14])[C:6]([H:15])([H:16])[O:7]1)[H:13])([H:8])([H:9])[H:10]>>[C:1]([C@@:2]1([H:11])[N:3]([H:12])[C@:4]1([C-:5]=[O+:7][C:6]([H:14])([H:15])[H:16])[H:13])([H:8])([H:9])[H:10]"
C       -2.06589062      -0.46643262       0.03899472
C       -1.27667399       0.62623514       0.70854855
N       -0.14775850       0.33029095       1.57739162
C        0.10427021       1.01820147       0.30748878
C        0.73701692       0.36136838      -0.86147410
C        2.29825621      -0.52266302      -0.78873587
O        0.96338937      -0.97926320      -0.66126354
H       -2.62855421      -0.06931417      -0.80813339
H       -2.77828025      -0.89655722       0.74629922
H       -1.42844825      -1.27105622      -0.32659661
H       -1.89152638       1.43874210       1.08632577
H        0.10756868      -0.64767867       1.46672146
H        0.36039940       2.06804342       0.40960876
H        2.01090411       0.61695532      -1.50624726
H        2.81208801      -1.10252190      -1.55278409
H        2.82323931      -0.50434976       0.16385600
16
Frame=12 idx=009624 GeodesicLength=0.7363569566582242 rxn_smarts="[C:1]([C@@:2]1([H:11])[N:3]([H:12])[C@:4]1([C@@:5]1([H:14])[C:6]([H:15])([H:16])[O:7]1)[H:13])([H:8])([H:9])[H:10]>>[C:1]([C@@:2]1([H:11])[N:3]([H:12])[C@:4]1([C-:5]=[O+:7][C:6]([H:14])([H:15])[H:16])[H:13])([H:8])([H:9])[H:10]"
C       -2.06309472      -0.46663868       0.03164458
C       -1.28493925       0.62844806       0.70999188
N       -0.16616843       0.33639922       1.59286422
C        0.10010780       1.02328664       0.32561803
C        0.75229255       0.36490016      -0.83042105
C        2.30974073      -0.52429970      -0.80115430
O        0.97529240      -0.97211378      -0.62785484
H       -2.61562018      -0.07170126      -0.82317248
H       -2.78333641      -0.89813498       0.73006599
H       -1.41912537      -1.27015849      -0.32481777
H       -1.90645782       1.43974982       1.07937832
H        0.09443810      -0.64066350       1.48729029
H        0.35325523       2.07360041       0.43031861
H        1.99568709       0.61161686      -1.54366256
H        2.79378975      -1.12195723      -1.57094411
H        2.86413854      -0.51233353       0.13485520
16
Frame=13 idx=009624 GeodesicLength=0.7968881164880235 rxn_smarts="[C:1]([C@@:2]1([H:11])[N:3]([H:12])[C@:4]1([C@@:5]1([H:14])[C:6]([H:15])([H:16])[O:7]1)[H:13])([H:8])([H:9])[H:10]>>[C:1]([C@@:2]1([H:11])[N:3]([H:12])[C@:4]1([C-:5]=[O+:7][C:6]([H:14])([H:15])[H:16])[H:13])([H:8])([H:9])[H:10]"
C       -2.05906107      -0.46685447       0.02337763
C       -1.29311480       0.63079046       0.71126347
N       -0.18557691       0.34285140       1.60921416
C        0.09611652       1.02882229       0.34511178
C        0.76908576       0.36927084      -0.79700932
C        2.32079838      -0.52608237      -0.81435611
O        0.98863396      -0.96415918      -0.59186566
H       -2.60060511      -0.07414905      -0.83948074
H       -2.78759985      -0.90002759       0.71203242
H       -1.40810102      -1.26901912      -0.32329411
H       -1.92174831       1.44072516       1.07149810
H        0.08058666      -0.63320620       1.50907960
H        0.34599966       2.07963309       0.45270002
H        1.97562630       0.60402261      -1.58206595
H        2.77285152      -1.14221133      -1.58905290
H        2.90610831      -0.52040653       0.10284761
16
Frame=14 idx=009624 GeodesicLength=0.8574040292254951 rxn_smarts="[C:1]([C@@:2]1([H:11])[N:3]([H:12])[C@:4]1([C@@:5]1([H:14])[C:6]([H:15])([H:16])[O:7]1)[H:13])([H:8])([H:9])[H:10]>>[C:1]([C@@:2]1([H:11])[N:3]([H:12])[C@:4]1([C-:5]=[O+:7][C:6]([H:14])([H:15])[H:16])[H:13])([H:8])([H:9])[H:10]"
C       -2.05351202      -0.46708208       0.01404924
C       -1.30113540       0.63327341       0.71229406
N       -0.20609713       0.34969648       1.62649335
C        0.09232777       1.03486558       0.36612080
C        0.78761812       0.37459052      -0.76090761
C        2.33122567      -0.52808844      -0.82844237
O        1.00362097      -0.95528483      -0.55294251
H       -2.58309199      -0.07667121      -0.85723467
H       -2.79083440      -0.90227293       0.69191062
H       -1.39504369      -1.26760974      -0.32204029
H       -1.93738851       1.44165493       1.06248092
H        0.06594609      -0.62524287       1.53220660
H        0.33857103       2.08620524       0.47693728
H        1.94993822       0.59398344      -1.62121209
H        2.74875213      -1.16339912      -1.60706200
H        2.94910313      -0.52861839       0.06734866
16
Frame=15 idx=009624 GeodesicLength=0.917938585926409 rxn_smarts="[C:1]([C@@:2]1([H:11])[N:3]([H:12])[C@:4]1([C@@:5]1([H:14])[C:6]([H:15])([H:16])[O:7]1)[H:13])([H:8])([H:9])[H:10]>>[C:1]([C@@:2]1([H:11])[N:3]([H:12])[C@:4]1([C-:5]=[O+:7][C:6]([H:14])([H:15])[H:16])[H:13])([H:8])([H:9])[H:10]"
C       -2.04608695      -0.46733477       0.00344213
C       -1.30890390       0.63591128       0.71300124
N       -0.22785722       0.35700473       1.64479172
C        0.08881303       1.04152439       0.38884717
C        0.80819974       0.38104850      -0.72168299
C        2.34074663      -0.53037139      -0.84358250
O        1.02056088      -0.94529524      -0.51058894
H       -2.56253882      -0.07929043      -0.87672646
H       -2.79276164      -0.90496324       0.66929193
H       -1.37951298      -1.26588631      -0.32112566
H       -1.95335841       1.44250693       1.05208995
H        0.05044094      -0.61668091       1.55683455
H        0.33094835       2.09343797       0.50328059
H        1.91744507       0.58105247      -1.66063459
H        2.72080021      -1.18569083      -1.62489225
H        2.99306510      -0.53697316       0.02765412
16
Frame=16 idx=009624 GeodesicLength=0.9789482408453709 rxn_smarts="[C:1]([C@@:2]1([H:11])[N:3]([H:12])[C@:4]1([C@@:5]1([H:14])[C:6]([H:15])([H:16])[O:7]1)[H:13])([H:8])([H:9])[H:10]>>[C:1]([C@@:2]1([H:11])[N:3]([H:12])[C@:4]1([C-:5]=[O+:7][C:6]([H:14])([H:15])[H:16])[H:13])([H:8])([H:9])[H:10]"
C       -2.03635921      -0.46764278      -0.00867833
C       -1.31630206       0.63872084       0.71326348
N       -0.25098968       0.36488030       1.66416205
C        0.08565178       1.04890617       0.41347980
C        0.83119815       0.38883794      -0.67884927
C        2.34897581      -0.53305044      -0.85993104
O        1.03982245      -0.93397532      -0.46426420
H       -2.53834157      -0.08207545      -0.89825679
H       -2.79300877      -0.90820248       0.64375075
H       -1.36096850      -1.26380748      -0.32061274
H       -1.96964819       1.44324614       1.04000903
H        0.03401636      -0.60738533       1.58312010
H        0.32306804       2.10145234       0.53195552
H        1.87694462       0.56498302      -1.69966240
H        2.68811731      -1.20924711      -1.64243422
H        3.03782347      -0.54564036      -0.01705175
