13
Frame=0 idx=009837 GeodesicLength=0.0 rxn_smarts="[C:1]1([H:8])([H:9])[O:2][C@@:3]2([H:10])[C@@:4]3([H:11])[O:5][C@:6]1([H:12])[C@@:7]23[H:13]>>[C-:1]1([H:9])[O+:2]=[C:3]([H:10])[C@:4]2([H:11])[O:5][C@@:6]1([H:12])[C:7]2([H:8])[H:13]"
C        0.59531946       0.56998845       1.17463708
O        0.42029458      -0.79590407       1.33792606
C       -0.02938406      -1.42771540       0.30651047
C       -0.72337167      -0.64443727      -0.74740649
O       -1.53250939       0.35466260      -0.09229961
C       -0.30453665       1.11024937       0.05351051
C        0.40215808       0.31027460      -1.04086318
H        1.40518206       0.38513694       0.05475337
H        0.68422201       1.03870088       2.15117705
H        0.14019255      -2.49749558       0.31011791
H       -1.24104479      -1.23538414      -1.50065661
H       -0.43508700       2.19227130       0.04119795
H        0.61856486       0.63965231      -2.04860452
13
Frame=1 idx=009837 GeodesicLength=0.05457835619502424 rxn_smarts="[C:1]1([H:8])([H:9])[O:2][C@@:3]2([H:10])[C@@:4]3([H:11])[O:5][C@:6]1([H:12])[C@@:7]23[H:13]>>[C-:1]1([H:9])[O+:2]=[C:3]([H:10])[C@:4]2([H:11])[O:5][C@@:6]1([H:12])[C:7]2([H:8])[H:13]"
C        0.59415165       0.57030973       1.17914154
O        0.41168428      -0.79386354       1.34212951
C       -0.02181030      -1.42283246       0.29719312
C       -0.73505325      -0.64504174      -0.74736074
O       -1.53282002       0.35834181      -0.08635703
C       -0.30086658       1.10761253       0.05514594
C        0.40246189       0.29756491      -1.03584566
H        1.42099890       0.39094948       0.05570279
H        0.66974447       1.04222360       2.15497800
H        0.15790347      -2.49066963       0.29370526
H       -1.25788692      -1.23351907      -1.49848886
H       -0.42528567       2.19003410       0.03346595
H        0.61677809       0.62889029      -2.04340981
13
Frame=2 idx=009837 GeodesicLength=0.10915861832655716 rxn_smarts="[C:1]1([H:8])([H:9])[O:2][C@@:3]2([H:10])[C@@:4]3([H:11])[O:5][C@:6]1([H:12])[C@@:7]23[H:13]>>[C-:1]1([H:9])[O+:2]=[C:3]([H:10])[C@:4]2([H:11])[O:5][C@@:6]1([H:12])[C:7]2([H:8])[H:13]"
C        0.59304486       0.57053854       1.18358513
O        0.40335448      -0.79194734       1.34608903
C       -0.01454137      -1.41787033       0.28809906
C       -0.74636574      -0.64569094      -0.74730347
O       -1.53306978       0.36182074      -0.08070549
C       -0.29730656       1.10490509       0.05686998
C        0.40271462       0.28509771      -1.03083771
H        1.43680818       0.39699646       0.05635607
H        0.65557103       1.04560298       2.15853666
H        0.17473664      -2.48371950       0.27783953
H       -1.27413480      -1.23177208      -1.49636720
H       -0.41575692       2.18759767       0.02603050
H        0.61494536       0.61844101      -2.03819210
13
Frame=3 idx=009837 GeodesicLength=0.16373711729346574 rxn_smarts="[C:1]1([H:8])([H:9])[O:2][C@@:3]2([H:10])[C@@:4]3([H:11])[O:5][C@:6]1([H:12])[C@@:7]23[H:13]>>[C-:1]1([H:9])[O+:2]=[C:3]([H:10])[C@:4]2([H:11])[O:5][C@@:6]1([H:12])[C:7]2([H:8])[H:13]"
C        0.59199195       0.57067952       1.18797176
O        0.39528089      -0.79014519       1.34983471
C       -0.00756926      -1.41284633       0.27922623
C       -0.75732023      -0.64638349      -0.74723909
O       -1.53326169       0.36510543      -0.07532866
C       -0.29385178       1.10213285       0.05867869
C        0.40292156       0.27287124      -1.02584338
H        1.45260671       0.40326440       0.05671294
H        0.64169903       1.04885218       2.16186106
H        0.19073514      -2.47667583       0.26249955
H       -1.28981550      -1.23013067      -1.49429798
H       -0.40649025       2.18497594       0.01887947
H        0.61307343       0.60829996      -2.03295531
13
Frame=4 idx=009837 GeodesicLength=0.21832490984572514 rxn_smarts="[C:1]1([H:8])([H:9])[O:2][C@@:3]2([H:10])[C@@:4]3([H:11])[O:5][C@:6]1([H:12])[C@@:7]23[H:13]>>[C-:1]1([H:9])[O+:2]=[C:3]([H:10])[C@:4]2([H:11])[O:5][C@@:6]1([H:12])[C:7]2([H:8])[H:13]"
C        0.59098240       0.57073686       1.19231145
O        0.38741682      -0.78844541       1.35340512
C       -0.00091274      -1.40777833       0.27058290
C       -0.76794681      -0.64711432      -0.74716370
O       -1.53340408       0.36822269      -0.07021018
C       -0.29049098       1.09930555       0.06056621
C        0.40308490       0.26086746      -1.02086147
H        1.46839168       0.40972227       0.05678232
H        0.62810111       1.05198864       2.16496665
H        0.20604182      -2.46954521       0.24760355
H       -1.30499214      -1.22857750      -1.49226989
H       -0.39744642       2.18218885       0.01198928
H        0.61117442       0.59842845      -2.02770224
13
Frame=5 idx=009837 GeodesicLength=0.27292993484410805 rxn_smarts="[C:1]1([H:8])([H:9])[O:2][C@@:3]2([H:10])[C@@:4]3([H:11])[O:5][C@:6]1([H:12])[C@@:7]23[H:13]>>[C-:1]1([H:9])[O+:2]=[C:3]([H:10])[C@:4]2([H:11])[O:5][C@@:6]1([H:12])[C:7]2([H:8])[H:13]"
C        0.59000435       0.57071050       1.19661353
O        0.37971742      -0.78683954       1.35683383
C        0.00541607      -1.40267875       0.26217589
C       -0.77827297      -0.64787750      -0.74707360
O       -1.53350231       0.37119721      -0.06533365
C       -0.28721331       1.09642981       0.06252711
C        0.40320570       0.24907026      -1.01589121
H        1.48416037       0.41634248       0.05657101
H        0.61474931       1.05502019       2.16786723
H        0.22078785      -2.46231925       0.23308122
H       -1.31972266      -1.22709567      -1.49026988
H       -0.38858811       2.17925081       0.00533559
H        0.60925828       0.58878943      -2.02243705
13
Frame=6 idx=009837 GeodesicLength=0.3275434608819614 rxn_smarts="[C:1]1([H:8])([H:9])[O:2][C@@:3]2([H:10])[C@@:4]3([H:11])[O:5][C@:6]1([H:12])[C@@:7]23[H:13]>>[C-:1]1([H:9])[O+:2]=[C:3]([H:10])[C@:4]2([H:11])[O:5][C@@:6]1([H:12])[C:7]2([H:8])[H:13]"
C        0.58906262       0.57060811       1.20087649
O        0.37220218      -0.78532134       1.36012637
C        0.01146584      -1.39756208       0.25398210
C       -0.78828733      -0.64867732      -0.74698278
O       -1.53355295       0.37400943      -0.06068413
C       -0.28402023       1.09350594       0.06456173
C        0.40329393       0.23749173      -1.01094162
H        1.49992117       0.42314480       0.05606759
H        0.60164966       1.05795400       2.17057012
H        0.23487706      -2.45505431       0.21898983
H       -1.33399274      -1.22568216      -1.48832254
H       -0.37993778       2.17616599      -0.00107857
H        0.60731856       0.57941720      -2.01716459
13
Frame=7 idx=009837 GeodesicLength=0.38217509035218633 rxn_smarts="[C:1]1([H:8])([H:9])[O:2][C@@:3]2([H:10])[C@@:4]3([H:11])[O:5][C@:6]1([H:12])[C@@:7]23[H:13]>>[C-:1]1([H:9])[O+:2]=[C:3]([H:10])[C@:4]2([H:11])[O:5][C@@:6]1([H:12])[C:7]2([H:8])[H:13]"
C        0.58814563       0.57043044       1.20510920
O        0.36482990      -0.78388396       1.36331080
C        0.01722626      -1.39244041       0.24600548
C       -0.79801779      -0.64950895      -0.74688800
O       -1.53356333       0.37668191      -0.05624730
C       -0.28090325       1.09054107       0.06666522
C        0.40334940       0.22611634      -1.00601069
H        1.51567463       0.43010765       0.05527860
H        0.58878184       1.06079912       2.17308725
H        0.24842726      -2.44774614       0.20526772
H       -1.34785353      -1.22432304      -1.48641894
H       -0.37146343       2.17294902      -0.00727284
H        0.60536642       0.57027695      -2.01188649
13
Frame=8 idx=009837 GeodesicLength=0.4368299211925427 rxn_smarts="[C:1]1([H:8])([H:9])[O:2][C@@:3]2([H:10])[C@@:4]3([H:11])[O:5][C@:6]1([H:12])[C@@:7]23[H:13]>>[C-:1]1([H:9])[O+:2]=[C:3]([H:10])[C@:4]2([H:11])[O:5][C@@:6]1([H:12])[C:7]2([H:8])[H:13]"
C        0.58724427       0.57017854       1.20932036
O        0.35756902      -0.78252047       1.36641080
C        0.02269671      -1.38732695       0.23824492
C       -0.80748507      -0.65036626      -0.74678810
O       -1.53353627       0.37923009      -0.05201065
C       -0.27785411       1.08753937       0.06883370
C        0.40337340       0.21493055      -1.00109745
H        1.53141945       0.43721598       0.05420753
H        0.57612510       1.06356557       2.17543121
H        0.26152618      -2.44039493       0.19186753
H       -1.36134787      -1.22300261      -1.48454998
H       -0.36313914       2.16960919      -0.01326475
H        0.60340833       0.56134194      -2.00660511
13
Frame=9 idx=009837 GeodesicLength=0.49150972272918697 rxn_smarts="[C:1]1([H:8])([H:9])[O:2][C@@:3]2([H:10])[C@@:4]3([H:11])[O:5][C@:6]1([H:12])[C@@:7]23[H:13]>>[C-:1]1([H:9])[O+:2]=[C:3]([H:10])[C@:4]2([H:11])[O:5][C@@:6]1([H:12])[C:7]2([H:8])[H:13]"
C        0.58634971       0.56984875       1.21351556
O        0.35039100      -0.78123002       1.36944123
C        0.02786739      -1.38222553       0.23070489
C       -0.81670789      -0.65125004      -0.74667877
O       -1.53347564       0.38167438      -0.04796735
C       -0.27486510       1.08450308       0.07106525
C        0.40336756       0.20392238      -0.99619903
H        1.54715997       0.44445679       0.05285888
H        0.56365790       1.06625267       2.17760906
H        0.27425733      -2.43297537       0.17874334
H       -1.37451358      -1.22171856      -1.48270245
H       -0.35493671       2.16615260      -0.01907031
H        0.60144807       0.55258888      -2.00132030
13
Frame=10 idx=009837 GeodesicLength=0.5462153869290598 rxn_smarts="[C:1]1([H:8])([H:9])[O:2][C@@:3]2([H:10])[C@@:4]3([H:11])[O:5][C@:6]1([H:12])[C@@:7]23[H:13]>>[C-:1]1([H:9])[O+:2]=[C:3]([H:10])[C@:4]2([H:11])[O:5][C@@:6]1([H:12])[C:7]2([H:8])[H:13]"
C        0.58545782       0.56944577       1.21769996
O        0.34328766      -0.78000623       1.37241558
C        0.03276242      -1.37714944       0.22337246
C       -0.82569253      -0.65215691      -0.74656711
O       -1.53338245       0.38401164      -0.04410657
C       -0.27193516       1.08143474       0.07335773
C        0.40333411       0.19309004      -0.99131902
H        1.56289952       0.45183392       0.05122827
H        0.55137990       1.06887157       2.17963095
H        0.28661760      -2.42551870       0.16590024
H       -1.38736154      -1.22046210      -1.48088481
H       -0.34685500       2.16258627      -0.02469271
H        0.59948766       0.54401941      -1.99603497
13
Frame=11 idx=009837 GeodesicLength=0.6009463526556464 rxn_smarts="[C:1]1([H:8])([H:9])[O:2][C@@:3]2([H:10])[C@@:4]3([H:11])[O:5][C@:6]1([H:12])[C@@:7]23[H:13]>>[C-:1]1([H:9])[O+:2]=[C:3]([H:10])[C@:4]2([H:11])[O:5][C@@:6]1([H:12])[C:7]2([H:8])[H:13]"
C        0.58456411       0.56897065       1.22187649
O        0.33624927      -0.77884592       1.37534240
C        0.03739852      -1.37210487       0.21623931
C       -0.83444609      -0.65308764      -0.74645720
O       -1.53325815       0.38624399      -0.04041977
C       -0.26906185       1.07833542       0.07570970
C        0.40327695       0.18243047      -0.98645864
H        1.57864335       0.45935292       0.04931169
H        0.53928790       1.07142497       2.18150382
H        0.29861122      -2.41803582       0.15333861
H       -1.39990479      -1.21923045      -1.47910112
H       -0.33889031       2.15891442      -0.03013530
H        0.59752984       0.53563187      -1.99074999
13
Frame=12 idx=009837 GeodesicLength=0.655702338925694 rxn_smarts="[C:1]1([H:8])([H:9])[O:2][C@@:3]2([H:10])[C@@:4]3([H:11])[O:5][C@:6]1([H:12])[C@@:7]23[H:13]>>[C-:1]1([H:9])[O+:2]=[C:3]([H:10])[C@:4]2([H:11])[O:5][C@@:6]1([H:12])[C:7]2([H:8])[H:13]"
C        0.58366451       0.56842467       1.22604847
O        0.32926697      -0.77774640       1.37822972
C        0.04179142      -1.36709757       0.20929748
C       -0.84297563      -0.65404294      -0.74635288
O       -1.53310448       0.38837317      -0.03689899
C       -0.26624280       1.07520653       0.07811988
C        0.40319987       0.17194026      -0.98161927
H        1.59439689       0.46702004       0.04710440
H        0.52737828       1.07391551       2.18323512
H        0.31024204      -2.41053855       0.14105875
H       -1.41215575      -1.21802126      -1.47735542
H       -0.33103881       2.15514227      -0.03540078
H        0.59557748       0.52742426      -1.98546648
13
Frame=13 idx=009837 GeodesicLength=0.7104763138261371 rxn_smarts="[C:1]1([H:8])([H:9])[O:2][C@@:3]2([H:10])[C@@:4]3([H:11])[O:5][C@:6]1([H:12])[C@@:7]23[H:13]>>[C-:1]1([H:9])[O+:2]=[C:3]([H:10])[C@:4]2([H:11])[O:5][C@@:6]1([H:12])[C:7]2([H:8])[H:13]"
C        0.58275565       0.56780845       1.23021905
O        0.32233501      -0.77670473       1.38108452
C        0.04595376      -1.36213512       0.20253986
C       -0.85128415      -0.65502035      -0.74625547
O       -1.53291831       0.39040065      -0.03353952
C       -0.26347586       1.07204680       0.08058647
C        0.40310410       0.16161649      -0.97680190
H        1.61016297       0.47484516       0.04460182
H        0.51564633       1.07634785       2.18483234
H        0.32150828      -2.40304203       0.12905968
H       -1.42411965      -1.21682793      -1.47564854
H       -0.32329704       2.15126953      -0.04049314
H        0.59362891       0.51939521      -1.98018518
13
Frame=14 idx=009837 GeodesicLength=0.7652710719563212 rxn_smarts="[C:1]1([H:8])([H:9])[O:2][C@@:3]2([H:10])[C@@:4]3([H:11])[O:5][C@:6]1([H:12])[C@@:7]23[H:13]>>[C-:1]1([H:9])[O+:2]=[C:3]([H:10])[C@:4]2([H:11])[O:5][C@@:6]1([H:12])[C:7]2([H:8])[H:13]"
C        0.58183432       0.56712515       1.23438940
O        0.31544879      -0.77571798       1.38391148
C        0.04991201      -1.35721911       0.19595423
C       -0.85937684      -0.65602464      -0.74617438
O       -1.53270530       0.39232072      -0.03033217
C       -0.26076214       1.06885920       0.08310911
C        0.40299667       0.15145903      -0.97200925
H        1.62594909       0.48284011       0.04179404
H        0.50410616       1.07872420       2.18630224
H        0.33237990      -2.39557201       0.11736548
H       -1.43579788      -1.21565454      -1.47399806
H       -0.31567558       2.14730546      -0.04540616
H        0.59169080       0.51155442      -1.97490596
13
Frame=15 idx=009837 GeodesicLength=0.8200780372235681 rxn_smarts="[C:1]1([H:8])([H:9])[O:2][C@@:3]2([H:10])[C@@:4]3([H:11])[O:5][C@:6]1([H:12])[C@@:7]23[H:13]>>[C-:1]1([H:9])[O+:2]=[C:3]([H:10])[C@:4]2([H:11])[O:5][C@@:6]1([H:12])[C:7]2([H:8])[H:13]"
C        0.58089844       0.56637647       1.23856037
O        0.30860764      -0.77478348       1.38671390
C        0.05368438      -1.35235352       0.18953181
C       -0.86725357      -0.65705682      -0.74611437
O       -1.53246458       0.39412916      -0.02727310
C       -0.25810222       1.06564298       0.08568680
C        0.40288129       0.14146791      -0.96724330
H        1.64175934       0.49102002       0.03867223
H        0.49276761       1.08104835       2.18765129
H        0.34282568      -2.38815379       0.10599427
H       -1.44718384      -1.21450004      -1.47241550
H       -0.30818325       2.14325209      -0.05013608
H        0.58976308       0.50391067      -1.96962833
13
Frame=16 idx=009837 GeodesicLength=0.8748903215485756 rxn_smarts="[C:1]1([H:8])([H:9])[O:2][C@@:3]2([H:10])[C@@:4]3([H:11])[O:5][C@:6]1([H:12])[C@@:7]23[H:13]>>[C-:1]1([H:9])[O+:2]=[C:3]([H:10])[C@:4]2([H:11])[O:5][C@@:6]1([H:12])[C:7]2([H:8])[H:13]"
C        0.57994555       0.56556386       1.24273335
O        0.30180797      -0.77389899       1.38949591
C        0.05728605      -1.34754156       0.18326542
C       -0.87491657      -0.65811809      -0.74607959
O       -1.53219659       0.39582386      -0.02435778
C       -0.25549589       1.06239827       0.08831864
C        0.40276171       0.13164159      -0.96250538
H        1.65759755       0.49939798       0.03522738
H        0.48163814       1.08332342       2.18888643
H        0.35282561      -2.38080905       0.09495866
H       -1.45827504      -1.21336362      -1.47091124
H       -0.30082562       2.13911318      -0.05468012
H        0.58784712       0.49646915      -1.96435168
