10
Frame=0 idx=009362 GeodesicLength=0.0 rxn_smarts="[C:1](#[C:2][c:3]1[c:4]([H:9])[o:5][n:6][c:7]1[H:10])[H:8]>>[C+:1]#[C:2][C:3]1=[C:7]([H:10])[N-:6][O:5][C:4]1([H:8])[H:9]"
C        1.98887132       0.15177430       0.36634407
C        1.33063072      -0.43987569       1.30768204
C        0.14234045      -0.28880792       0.53781466
C       -0.19009810       0.96552009      -0.06812058
O       -1.19318297       0.74496299      -0.97691110
N       -1.45921833      -0.59256448      -1.02080200
C       -0.72195096      -1.20617111      -0.15658647
H        1.15700375       1.02936493      -0.39177111
H       -0.26453950       1.91335109       0.45194827
H       -0.78985638      -2.27755422      -0.04959779
10
Frame=1 idx=009362 GeodesicLength=0.10841935165045354 rxn_smarts="[C:1](#[C:2][c:3]1[c:4]([H:9])[o:5][n:6][c:7]1[H:10])[H:8]>>[C+:1]#[C:2][C:3]1=[C:7]([H:10])[N-:6][O:5][C:4]1([H:8])[H:9]"
C        2.01372954       0.14103479       0.38254783
C        1.32226269      -0.43910915       1.30238058
C        0.13366434      -0.28434741       0.53798123
C       -0.19152158       0.96708589      -0.07804544
O       -1.20517677       0.74283631      -0.97534125
N       -1.48033575      -0.59288369      -1.00641882
C       -0.72969700      -1.20472317      -0.15256876
H        1.18822719       1.03699784      -0.39479789
H       -0.27743678       1.91201609       0.44645274
H       -0.77371590      -2.27890750      -0.06219021
10
Frame=2 idx=009362 GeodesicLength=0.2166910679241551 rxn_smarts="[C:1](#[C:2][c:3]1[c:4]([H:9])[o:5][n:6][c:7]1[H:10])[H:8]>>[C+:1]#[C:2][C:3]1=[C:7]([H:10])[N-:6][O:5][C:4]1([H:8])[H:9]"
C        2.03892307       0.13004707       0.39977022
C        1.31412482      -0.43810637       1.29646866
C        0.12484426      -0.27979035       0.53809667
C       -0.19337945       0.96849859      -0.08819306
O       -1.21771475       0.74044185      -0.97360714
N       -1.50196414      -0.59331669      -0.99120889
C       -0.73735611      -1.20341472      -0.14860692
H        1.22033850       1.04461394      -0.39749200
H       -0.29036125       1.91067436       0.44028644
H       -0.75745495      -2.27964768      -0.07551398
10
Frame=3 idx=009362 GeodesicLength=0.3248484196142646 rxn_smarts="[C:1](#[C:2][c:3]1[c:4]([H:9])[o:5][n:6][c:7]1[H:10])[H:8]>>[C+:1]#[C:2][C:3]1=[C:7]([H:10])[N-:6][O:5][C:4]1([H:8])[H:9]"
C        2.06454581       0.11903956       0.41799366
C        1.30641173      -0.43698028       1.28966038
C        0.11601747      -0.27523131       0.53798492
C       -0.19574868       0.96973988      -0.09848601
O       -1.23082877       0.73777903      -0.97166765
N       -1.52368403      -0.59394752      -0.97562748
C       -0.74468134      -1.20231360      -0.14503981
H        1.25336783       1.05248638      -0.39974515
H       -0.30348625       1.90920465       0.43372138
H       -0.74191377      -2.27977678      -0.08879424
10
Frame=4 idx=009362 GeodesicLength=0.432931113495127 rxn_smarts="[C:1](#[C:2][c:3]1[c:4]([H:9])[o:5][n:6][c:7]1[H:10])[H:8]>>[C+:1]#[C:2][C:3]1=[C:7]([H:10])[N-:6][O:5][C:4]1([H:8])[H:9]"
C        2.09055424       0.10789815       0.43732347
C        1.29906288      -0.43567578       1.28198735
C        0.10708552      -0.27060130       0.53774662
C       -0.19865886       0.97083013      -0.10896279
O       -1.24459132       0.73484798      -0.96948021
N       -1.54561757      -0.59478285      -0.95949684
C       -0.75189766      -1.20134898      -0.14161204
H        1.28740937       1.06046641      -0.40164621
H       -0.31669074       1.90772071       0.42660783
H       -0.72665586      -2.27935448      -0.10246717
10
Frame=5 idx=009362 GeodesicLength=0.5409416997940839 rxn_smarts="[C:1](#[C:2][c:3]1[c:4]([H:9])[o:5][n:6][c:7]1[H:10])[H:8]>>[C+:1]#[C:2][C:3]1=[C:7]([H:10])[N-:6][O:5][C:4]1([H:8])[H:9]"
C        2.11708355       0.09687690       0.45766869
C        1.29232270      -0.43433753       1.27308076
C        0.09822424      -0.26602867       0.53715068
C       -0.20220625       0.97176611      -0.11950713
O       -1.25905225       0.73168368      -0.96697588
N       -1.56717870      -0.59591466      -0.94353218
C       -0.75869581      -1.20060697      -0.13876300
H        1.32248532       1.06892000      -0.40304433
H       -0.33021454       1.90605826       0.41934180
H       -0.71276825      -2.27841713      -0.11541940
10
Frame=6 idx=009362 GeodesicLength=0.6489612434641832 rxn_smarts="[C:1](#[C:2][c:3]1[c:4]([H:9])[o:5][n:6][c:7]1[H:10])[H:8]>>[C+:1]#[C:2][C:3]1=[C:7]([H:10])[N-:6][O:5][C:4]1([H:8])[H:9]"
C        2.14402763       0.08577631       0.47927261
C        1.28606097      -0.43283826       1.26304996
C        0.08925837      -0.26138574       0.53637563
C       -0.20641484       0.97258295      -0.13020797
O       -1.27429858       0.72829355      -0.96412338
N       -1.58876556      -0.59732970      -0.92726636
C       -0.76543871      -1.19997800      -0.13606087
H        1.35876890       1.07750324      -0.40412370
H       -0.34384984       1.90441414       0.41162542
H       -0.69934834      -2.27703849      -0.12854134
10
Frame=7 idx=009362 GeodesicLength=0.7570026337601911 rxn_smarts="[C:1](#[C:2][c:3]1[c:4]([H:9])[o:5][n:6][c:7]1[H:10])[H:8]>>[C+:1]#[C:2][C:3]1=[C:7]([H:10])[N-:6][O:5][C:4]1([H:8])[H:9]"
C        2.17142119       0.07467032       0.50218144
C        1.28037416      -0.43121284       1.25170054
C        0.08022032      -0.25670145       0.53536837
C       -0.21136638       0.97329508      -0.14102405
O       -1.29042421       0.72470833      -0.96084266
N       -1.61014932      -0.59907375      -0.91099928
C       -0.77210547      -1.19947896      -0.13354658
H        1.39636595       1.08625532      -0.40489509
H       -0.35766954       1.90277319       0.40358694
H       -0.68666670      -2.27523525      -0.14152962
10
Frame=8 idx=009362 GeodesicLength=0.8650633879746832 rxn_smarts="[C:1](#[C:2][c:3]1[c:4]([H:9])[o:5][n:6][c:7]1[H:10])[H:8]>>[C+:1]#[C:2][C:3]1=[C:7]([H:10])[N-:6][O:5][C:4]1([H:8])[H:9]"
C        2.19923244       0.06358857       0.52668035
C        1.27526229      -0.42943975       1.23894511
C        0.07106474      -0.25194331       0.53413858
C       -0.21710021       0.97393940      -0.15201895
O       -1.30748126       0.72095835      -0.95711834
N       -1.63158465      -0.60116855      -0.89444796
C       -0.77876734      -1.19909055      -0.13115646
H        1.43545195       1.09497106      -0.40544711
H       -0.37163847       1.90121783       0.39511923
H       -0.67443950      -2.27303303      -0.15469446
10
Frame=9 idx=009362 GeodesicLength=0.9738530306993783 rxn_smarts="[C:1](#[C:2][c:3]1[c:4]([H:9])[o:5][n:6][c:7]1[H:10])[H:8]>>[C+:1]#[C:2][C:3]1=[C:7]([H:10])[N-:6][O:5][C:4]1([H:8])[H:9]"
C        2.22742787       0.05294655       0.55314340
C        1.27096408      -0.42757095       1.22404643
C        0.06216967      -0.24724197       0.53207311
C       -0.22387087       0.97443651      -0.16298731
O       -1.32589174       0.71695791      -0.95245749
N       -1.65239638      -0.60366090      -0.87869577
C       -0.78507263      -1.19886292      -0.12956866
H        1.47662157       1.10413836      -0.40581378
H       -0.38588203       1.89950754       0.38675227
H       -0.66406955      -2.27065014      -0.16649220
10
Frame=10 idx=009362 GeodesicLength=1.0827762995680277 rxn_smarts="[C:1](#[C:2][c:3]1[c:4]([H:9])[o:5][n:6][c:7]1[H:10])[H:8]>>[C+:1]#[C:2][C:3]1=[C:7]([H:10])[N-:6][O:5][C:4]1([H:8])[H:9]"
C        2.25591143       0.04254461       0.58187106
C        1.26739971      -0.42553474       1.20723928
C        0.05317951      -0.24243778       0.52965484
C       -0.23156389       0.97489401      -0.17418656
O       -1.34545877       0.71281300      -0.94716592
N       -1.67343876      -0.60654985      -0.86256416
C       -0.79145370      -1.19871498      -0.12810652
H        1.51981013       1.11305592      -0.40615471
H       -0.40028268       1.89792607       0.37796586
H       -0.65410297      -2.26799626      -0.17855317
10
Frame=11 idx=009362 GeodesicLength=1.1917552204550708 rxn_smarts="[C:1](#[C:2][c:3]1[c:4]([H:9])[o:5][n:6][c:7]1[H:10])[H:8]>>[C+:1]#[C:2][C:3]1=[C:7]([H:10])[N-:6][O:5][C:4]1([H:8])[H:9]"
C        2.28465220       0.03252918       0.61309650
C        1.26467305      -0.42335025       1.18820096
C        0.04415715      -0.23755779       0.52677952
C       -0.24025491       0.97531173      -0.18560485
O       -1.36628051       0.70852362      -0.94113141
N       -1.69459955      -0.60984346      -0.84623569
C       -0.79788638      -1.19865261      -0.12683444
H        1.56523234       1.12170220      -0.40652925
H       -0.41492223       1.89642437       0.36888984
H       -0.64477117      -2.26508700      -0.19063119
10
Frame=12 idx=009362 GeodesicLength=1.3008081184065527 rxn_smarts="[C:1](#[C:2][c:3]1[c:4]([H:9])[o:5][n:6][c:7]1[H:10])[H:8]>>[C+:1]#[C:2][C:3]1=[C:7]([H:10])[N-:6][O:5][C:4]1([H:8])[H:9]"
C        2.31352007       0.02320412       0.64733225
C        1.26293669      -0.42105788       1.16649551
C        0.03516996      -0.23261802       0.52331205
C       -0.24998497       0.97566860      -0.19728423
O       -1.38843283       0.70405606      -0.93425405
N       -1.71598725      -0.61357251      -0.82957838
C       -0.80439385      -1.19867640      -0.12585103
H        1.61325259       1.13007544      -0.40704313
H       -0.42979186       1.89496343       0.35957667
H       -0.63628856      -2.26204285      -0.20270567
10
Frame=13 idx=009362 GeodesicLength=1.4094944552051325 rxn_smarts="[C:1](#[C:2][c:3]1[c:4]([H:9])[o:5][n:6][c:7]1[H:10])[H:8]>>[C+:1]#[C:2][C:3]1=[C:7]([H:10])[N-:6][O:5][C:4]1([H:8])[H:9]"
C        2.34233367       0.01454580       0.68476202
C        1.26224373      -0.41861053       1.14181682
C        0.02623446      -0.22761523       0.51922789
C       -0.26084006       0.97602136      -0.20920954
O       -1.41197614       0.69946534      -0.92643601
N       -1.73759207      -0.61772686      -0.81263803
C       -0.81097202      -1.19877215      -0.12505569
H        1.66399766       1.13785588      -0.40774608
H       -0.44499759       1.89356963       0.35005702
H       -0.62843163      -2.25873325      -0.21477841
10
Frame=14 idx=009362 GeodesicLength=1.5179458673553698 rxn_smarts="[C:1](#[C:2][c:3]1[c:4]([H:9])[o:5][n:6][c:7]1[H:10])[H:8]>>[C+:1]#[C:2][C:3]1=[C:7]([H:10])[N-:6][O:5][C:4]1([H:8])[H:9]"
C        2.37066996       0.00711825       0.72636034
C        1.26289798      -0.41610381       1.11329836
C        0.01748544      -0.22257867       0.51427512
C       -0.27288291       0.97634029      -0.22148666
O       -1.43702107       0.69469427      -0.91749637
N       -1.75958612      -0.62232888      -0.79497853
C       -0.81768071      -1.19895107      -0.12452778
H        1.71810092       1.14495649      -0.40878026
H       -0.46050201       1.89220190       0.34033239
H       -0.62148148      -2.25534876      -0.22699661
10
Frame=15 idx=009362 GeodesicLength=1.6259173224266545 rxn_smarts="[C:1](#[C:2][c:3]1[c:4]([H:9])[o:5][n:6][c:7]1[H:10])[H:8]>>[C+:1]#[C:2][C:3]1=[C:7]([H:10])[N-:6][O:5][C:4]1([H:8])[H:9]"
C        2.39793153       0.00099903       0.77275817
C        1.26521432      -0.41352282       1.08003860
C        0.00906206      -0.21752107       0.50829137
C       -0.28625072       0.97664536      -0.23419177
O       -1.46368409       0.68974355      -0.90731458
N       -1.78205701      -0.62733099      -0.77635154
C       -0.82450944      -1.19917665      -0.12410955
H        1.77600360       1.15109711      -0.41007636
H       -0.47644524       1.89081886       0.33036120
H       -0.61526502      -2.25175239      -0.23940554
10
Frame=16 idx=009362 GeodesicLength=1.7337165148265339 rxn_smarts="[C:1](#[C:2][c:3]1[c:4]([H:9])[o:5][n:6][c:7]1[H:10])[H:8]>>[C+:1]#[C:2][C:3]1=[C:7]([H:10])[N-:6][O:5][C:4]1([H:8])[H:9]"
C        2.42327004      -0.00342128       0.82513470
C        1.26983522      -0.41089785       1.04056195
C        0.00126533      -0.21249429       0.50094407
C       -0.30105764       0.97685603      -0.24757376
O       -1.49219834       0.68445605      -0.89576105
N       -1.80540258      -0.63276077      -0.75611415
C       -0.83158146      -1.19949268      -0.12369957
H        1.83877432       1.15649319      -0.41137575
H       -0.49282751       1.88930692       0.32003741
H       -0.61007738      -2.24804532      -0.25215385
