13
Frame=0 idx=009473 GeodesicLength=0.0 rxn_smarts="[O:1]([C@@:2]1([H:9])[C:3]([H:10])([H:11])[C@:4]1([O:5][C:6](=[O:7])[H:13])[H:12])[H:8]>>[O:1]([C@@:2]1([H:9])[C:3]([H:10])([H:11])[O:7][C:6]([H:13])=[O+:5][C-:4]1[H:12])[H:8]"
O       -1.24615762       0.91346894       1.45392662
C       -0.88572459      -0.12579423       0.57496527
C       -1.09620051       0.20723634      -0.79764628
C        0.46418270      -0.76229638       0.80686544
O        1.58584197      -0.65544486       0.00846433
C        1.72813037       0.28352654      -0.88763251
O        0.90291345       1.15466057      -1.07881991
H       -0.51178118       1.00536678       2.06845647
H       -1.51486715      -1.01962658       0.75255873
H       -1.23650344      -0.59518937      -1.51161342
H       -1.29483842       1.21722741      -1.11411412
H        0.45962455      -1.77563022       1.19104480
H        2.64537989       0.15249500      -1.46645547
13
Frame=1 idx=009473 GeodesicLength=0.06904265046752084 rxn_smarts="[O:1]([C@@:2]1([H:9])[C:3]([H:10])([H:11])[C@:4]1([O:5][C:6](=[O:7])[H:13])[H:12])[H:8]>>[O:1]([C@@:2]1([H:9])[C:3]([H:10])([H:11])[O:7][C:6]([H:13])=[O+:5][C-:4]1[H:12])[H:8]"
O       -1.22388741       0.93814839       1.44254204
C       -0.89373872      -0.12734533       0.58522403
C       -1.07635617       0.18494811      -0.79911179
C        0.44876958      -0.78188500       0.78116806
O        1.57409571      -0.66860513      -0.01230843
C        1.73658726       0.30529470      -0.86513518
O        0.90931737       1.18122096      -1.03753364
H       -0.48299480       1.02499104       2.04993984
H       -1.54305766      -1.00141826       0.78123246
H       -1.23122597      -0.62305880      -1.50382127
H       -1.30578358       1.18561732      -1.12521531
H        0.44470770      -1.79569393       1.16326551
H        2.64356668       0.17778595      -1.46024632
13
Frame=2 idx=009473 GeodesicLength=0.13803359198306325 rxn_smarts="[O:1]([C@@:2]1([H:9])[C:3]([H:10])([H:11])[C@:4]1([O:5][C:6](=[O:7])[H:13])[H:12])[H:8]>>[O:1]([C@@:2]1([H:9])[C:3]([H:10])([H:11])[O:7][C:6]([H:13])=[O+:5][C-:4]1[H:12])[H:8]"
O       -1.20226418       0.96101054       1.43115964
C       -0.90086130      -0.12827760       0.59514713
C       -1.05778132       0.16359772      -0.79989277
C        0.43365750      -0.80002289       0.75528311
O        1.56226239      -0.68086184      -0.03387872
C        1.74362866       0.32340654      -0.84507481
O        0.91481112       1.20407210      -0.99925529
H       -0.45525237       1.04333933       2.03160435
H       -1.56872799      -0.98272812       0.80875902
H       -1.22963026      -0.64937605      -1.49507713
H       -1.31566579       1.15458429      -1.13520853
H        0.43039638      -1.81405616       1.13593110
H        2.64542716       0.20531215      -1.44949710
13
Frame=3 idx=009473 GeodesicLength=0.20683072251104917 rxn_smarts="[O:1]([C@@:2]1([H:9])[C:3]([H:10])([H:11])[C@:4]1([O:5][C:6](=[O:7])[H:13])[H:12])[H:8]>>[O:1]([C@@:2]1([H:9])[C:3]([H:10])([H:11])[O:7][C:6]([H:13])=[O+:5][C-:4]1[H:12])[H:8]"
O       -1.18243408       0.98168251       1.41985749
C       -0.90710211      -0.12884514       0.60464587
C       -1.03965706       0.14341310      -0.80023253
C        0.41910274      -0.81637253       0.72999399
O        1.55114286      -0.69117259      -0.05461161
C        1.75006382       0.33933536      -0.82619436
O        0.92021661       1.22486493      -0.96212883
H       -0.43010225       1.06023302       2.01408693
H       -1.59181154      -0.96427042       0.83439699
H       -1.22935228      -0.67372882      -1.48610363
H       -1.32415126       1.12452008      -1.14409710
H        0.41716426      -1.83048618       1.10962061
H        2.64692028       0.23082667      -1.43923381
13
Frame=4 idx=009473 GeodesicLength=0.2755333534237077 rxn_smarts="[O:1]([C@@:2]1([H:9])[C:3]([H:10])([H:11])[C@:4]1([O:5][C:6](=[O:7])[H:13])[H:12])[H:8]>>[O:1]([C@@:2]1([H:9])[C:3]([H:10])([H:11])[O:7][C:6]([H:13])=[O+:5][C-:4]1[H:12])[H:8]"
O       -1.16398911       1.00059858       1.40858952
C       -0.91251937      -0.12913414       0.61375957
C       -1.02222198       0.12417135      -0.80019014
C        0.40502897      -0.83127254       0.70516354
O        1.54040755      -0.70024645      -0.07505979
C        1.75585964       0.35322152      -0.80857075
O        0.92540798       1.24362766      -0.92631882
H       -0.40692942       1.07607506       1.99712616
H       -1.61266941      -0.94597153       0.85862934
H       -1.23043243      -0.69642251      -1.47687085
H       -1.33166755       1.09529894      -1.15195570
H        0.40478742      -1.84533524       1.08417102
H        2.64893772       0.25538930      -1.42847309
13
Frame=5 idx=009473 GeodesicLength=0.34415313587415797 rxn_smarts="[O:1]([C@@:2]1([H:9])[C:3]([H:10])([H:11])[C@:4]1([O:5][C:6](=[O:7])[H:13])[H:12])[H:8]>>[O:1]([C@@:2]1([H:9])[C:3]([H:10])([H:11])[O:7][C:6]([H:13])=[O+:5][C-:4]1[H:12])[H:8]"
O       -1.14690519       1.01793785       1.39738703
C       -0.91716137      -0.12922867       0.62252138
C       -1.00543612       0.10581353      -0.79984196
C        0.39144330      -0.84484403       0.68087095
O        1.53005706      -0.70819022      -0.09516109
C        1.76109190       0.36534758      -0.79215909
O        0.93047541       1.26067289      -0.89155442
H       -0.38565323       1.09105991       1.98072586
H       -1.63151857      -0.92790506       0.88158552
H       -1.23239873      -0.71755916      -1.46750318
H       -1.33843579       1.06690119      -1.15886036
H        0.39321305      -1.85877996       1.05950190
H        2.65122826       0.27877414      -1.41751255
13
Frame=6 idx=009473 GeodesicLength=0.41274280786102 rxn_smarts="[O:1]([C@@:2]1([H:9])[C:3]([H:10])([H:11])[C@:4]1([O:5][C:6](=[O:7])[H:13])[H:12])[H:8]>>[O:1]([C@@:2]1([H:9])[C:3]([H:10])([H:11])[O:7][C:6]([H:13])=[O+:5][C-:4]1[H:12])[H:8]"
O       -1.13091367       1.03398087       1.38621674
C       -0.92106447      -0.12917489       0.63097822
C       -0.98943374       0.08820626      -0.79923595
C        0.37831027      -0.85729107       0.65703643
O        1.51991596      -0.71534425      -0.11524302
C        1.76574979       0.37583109      -0.77705220
O        0.93536013       1.27605970      -0.85795792
H       -0.36587492       1.10543222       1.96472162
H       -1.64856999      -0.91001155       0.90358734
H       -1.23525422      -0.73736087      -1.45797373
H       -1.34479471       1.03922782      -1.16487804
H        0.38230721      -1.87107776       1.03540222
H        2.65426235       0.30152243      -1.40560171
13
Frame=7 idx=009473 GeodesicLength=0.4813551342551513 rxn_smarts="[O:1]([C@@:2]1([H:9])[C:3]([H:10])([H:11])[C@:4]1([O:5][C:6](=[O:7])[H:13])[H:12])[H:8]>>[O:1]([C@@:2]1([H:9])[C:3]([H:10])([H:11])[O:7][C:6]([H:13])=[O+:5][C-:4]1[H:12])[H:8]"
O       -1.11593613       1.04889011       1.37505666
C       -0.92426734      -0.12902154       0.63916057
C       -0.97417461       0.07127341      -0.79841509
C        0.36560450      -0.86871222       0.63369701
O        1.50992716      -0.72177800      -0.13529767
C        1.76990586       0.38496452      -0.76299925
O        0.94007625       1.28999245      -0.82536580
H       -0.34749582       1.11933506       1.94907271
H       -1.66396882      -0.89229824       0.92476375
H       -1.23873877      -0.75597112      -1.44832782
H       -1.35090680       1.01220716      -1.17004752
H        0.37196569      -1.88239456       1.01170470
H        2.65800884       0.32351298      -1.39300224
13
Frame=8 idx=009473 GeodesicLength=0.5499964925133184 rxn_smarts="[O:1]([C@@:2]1([H:9])[C:3]([H:10])([H:11])[C@:4]1([O:5][C:6](=[O:7])[H:13])[H:12])[H:8]>>[O:1]([C@@:2]1([H:9])[C:3]([H:10])([H:11])[O:7][C:6]([H:13])=[O+:5][C-:4]1[H:12])[H:8]"
O       -1.10183869       1.06283879       1.36389364
C       -0.92680514      -0.12879333       0.64711701
C       -0.95970861       0.05494627      -0.79742257
C        0.35331736      -0.87922235       0.61083580
O        1.50002899      -0.72761913      -0.15546242
C        1.77359042       0.39287516      -0.75003094
O        0.94462501       1.30257860      -0.79380637
H       -0.33030552       1.13291730       1.93370508
H       -1.67785154      -0.87473663       0.94531418
H       -1.24279041      -0.77354844      -1.43855761
H       -1.35701422       0.98576375      -1.17443536
H        0.36209860      -1.89291880       0.98821633
H        2.66265376       0.34491881      -1.37936676
13
Frame=9 idx=009473 GeodesicLength=0.6187160359749098 rxn_smarts="[O:1]([C@@:2]1([H:9])[C:3]([H:10])([H:11])[C@:4]1([O:5][C:6](=[O:7])[H:13])[H:12])[H:8]>>[O:1]([C@@:2]1([H:9])[C:3]([H:10])([H:11])[O:7][C:6]([H:13])=[O+:5][C-:4]1[H:12])[H:8]"
O       -1.08846231       1.07597954       1.35269134
C       -0.92869922      -0.12851120       0.65489246
C       -0.94610010       0.03914032      -0.79628476
C        0.34142655      -0.88892664       0.58838931
O        1.49011072      -0.73298080      -0.17596133
C        1.77681243       0.39971158      -0.73813637
O        0.94895042       1.31390375      -0.76339614
H       -0.31408211       1.14630916       1.91849254
H       -1.69030341      -0.85727831       0.96546350
H       -1.24743965      -0.79024720      -1.42861371
H       -1.36336530       0.95980070      -1.17806179
H        0.35261711      -1.90281255       0.96471834
H        2.66853488       0.36591166      -1.36419339
13
Frame=10 idx=009473 GeodesicLength=0.6876025339988164 rxn_smarts="[O:1]([C@@:2]1([H:9])[C:3]([H:10])([H:11])[C@:4]1([O:5][C:6](=[O:7])[H:13])[H:12])[H:8]>>[O:1]([C@@:2]1([H:9])[C:3]([H:10])([H:11])[O:7][C:6]([H:13])=[O+:5][C-:4]1[H:12])[H:8]"
O       -1.07536081       1.08851157       1.34138651
C       -0.92990433      -0.12815632       0.66252643
C       -0.93366616       0.02371292      -0.79502295
C        0.32987169      -0.89794353       0.56608952
O        1.47987805      -0.73807790      -0.19739381
C        1.77928711       0.40538949      -0.72779783
O        0.95280196       1.32386406      -0.73469289
H       -0.29817950       1.15968403       1.90312265
H       -1.70128738      -0.83978770       0.98556658
H       -1.25317592      -0.80633260      -1.41831800
H       -1.37048524       0.93410817      -1.18088546
H        0.34342226      -1.91221343       0.94083863
H        2.67679825       0.38724123      -1.34541936
13
Frame=11 idx=009473 GeodesicLength=0.7565232319926072 rxn_smarts="[O:1]([C@@:2]1([H:9])[C:3]([H:10])([H:11])[C@:4]1([O:5][C:6](=[O:7])[H:13])[H:12])[H:8]>>[O:1]([C@@:2]1([H:9])[C:3]([H:10])([H:11])[O:7][C:6]([H:13])=[O+:5][C-:4]1[H:12])[H:8]"
O       -1.06324756       1.10030123       1.33004916
C       -0.93054299      -0.12780559       0.66999145
C       -0.92167765       0.00887178      -0.79370554
C        0.31876643      -0.90614175       0.54446410
O        1.46986184      -0.74246973      -0.21858819
C        1.78162620       0.41040121      -0.71805932
O        0.95679654       1.33303479      -0.70633125
H       -0.28369850       1.17287041       1.88819689
H       -1.71101317      -0.82254491       1.00508925
H       -1.25865456      -0.82156586      -1.40808065
H       -1.37761729       0.90894545      -1.18305516
H        0.33459226      -1.92104094       0.91700872
H        2.68480845       0.40714390      -1.32697945
13
Frame=12 idx=009473 GeodesicLength=0.8255052754392544 rxn_smarts="[O:1]([C@@:2]1([H:9])[C:3]([H:10])([H:11])[C@:4]1([O:5][C:6](=[O:7])[H:13])[H:12])[H:8]>>[O:1]([C@@:2]1([H:9])[C:3]([H:10])([H:11])[O:7][C:6]([H:13])=[O+:5][C-:4]1[H:12])[H:8]"
O       -1.05181463       1.11148954       1.31864511
C       -0.93060940      -0.12745087       0.67731398
C       -0.91037556      -0.00547272      -0.79234585
C        0.30805755      -0.91362031       0.52328344
O        1.45984337      -0.74634855      -0.24001647
C        1.78359457       0.41464533      -0.70938435
O        0.96075241       1.34131858      -0.67873137
H       -0.27021482       1.18595732       1.87353384
H       -1.71948140      -0.80546829       1.02428654
H       -1.26426929      -0.83611878      -1.39778977
H       -1.38513779       0.88418886      -1.18452863
H        0.32610716      -1.92934027       0.89310164
H        2.69354783       0.42622015      -1.30736809
13
Frame=13 idx=009473 GeodesicLength=0.8944930816765768 rxn_smarts="[O:1]([C@@:2]1([H:9])[C:3]([H:10])([H:11])[C@:4]1([O:5][C:6](=[O:7])[H:13])[H:12])[H:8]>>[O:1]([C@@:2]1([H:9])[C:3]([H:10])([H:11])[O:7][C:6]([H:13])=[O+:5][C-:4]1[H:12])[H:8]"
O       -1.04109105       1.12210725       1.30718444
C       -0.93014730      -0.12710915       0.68450251
C       -0.89968495      -0.01929977      -0.79097636
C        0.29774631      -0.92040246       0.50256910
O        1.44986463      -0.74968910      -0.26159448
C        1.78524475       0.41822224      -0.70178768
O        0.96476135       1.34882955      -0.65172866
H       -0.25778785       1.19893478       1.85920916
H       -1.72678016      -0.78860234       1.04313645
H       -1.26985927      -0.85001426      -1.38751158
H       -1.39304187       0.85984827      -1.18534159
H        0.31798963      -1.93711013       0.86920609
H        2.70278577       0.44428512      -1.28686739
13
Frame=14 idx=009473 GeodesicLength=0.963475405508008 rxn_smarts="[O:1]([C@@:2]1([H:9])[C:3]([H:10])([H:11])[C@:4]1([O:5][C:6](=[O:7])[H:13])[H:12])[H:8]>>[O:1]([C@@:2]1([H:9])[C:3]([H:10])([H:11])[O:7][C:6]([H:13])=[O+:5][C-:4]1[H:12])[H:8]"
O       -1.03109551       1.13219118       1.29566731
C       -0.92919328      -0.12679126       0.69155637
C       -0.88951672      -0.03260383      -0.78962283
C        0.28782256      -0.92651331       0.48233192
O        1.43994721      -0.75248663      -0.28324096
C        1.78662573       0.42121330      -0.69522264
O        0.96890459       1.35563786      -0.62513564
H       -0.24648368       1.21180162       1.84529164
H       -1.73298197      -0.77196888       1.06161075
H       -1.27528665      -0.86328258      -1.37730063
H       -1.40127063       0.83592078      -1.18552363
H        0.31024708      -1.94434217       0.84539751
H        2.71228126       0.46122389      -1.26580917
13
Frame=15 idx=009473 GeodesicLength=1.032428430439042 rxn_smarts="[O:1]([C@@:2]1([H:9])[C:3]([H:10])([H:11])[C@:4]1([O:5][C:6](=[O:7])[H:13])[H:12])[H:8]>>[O:1]([C@@:2]1([H:9])[C:3]([H:10])([H:11])[O:7][C:6]([H:13])=[O+:5][C-:4]1[H:12])[H:8]"
O       -1.02182656       1.14177342       1.28409853
C       -0.92778537      -0.12650466       0.69847796
C       -0.87980890      -0.04538040      -0.78830984
C        0.27827360      -0.93198097       0.46256988
O        1.43010707      -0.75474027      -0.30489957
C        1.78776835       0.42369570      -0.68968238
O        0.97324625       1.36179707      -0.59881132
H       -0.23632729       1.22455566       1.83183307
H       -1.73816414      -0.75558525       1.07969422
H       -1.28045882      -0.87595524      -1.36720457
H       -1.40979849       0.81239641      -1.18510732
H        0.30289023      -1.95103096       0.82174858
H        2.72188408       0.47695950      -1.24440723
13
Frame=16 idx=009473 GeodesicLength=1.1013316790471745 rxn_smarts="[O:1]([C@@:2]1([H:9])[C:3]([H:10])([H:11])[C@:4]1([O:5][C:6](=[O:7])[H:13])[H:12])[H:8]>>[O:1]([C@@:2]1([H:9])[C:3]([H:10])([H:11])[O:7][C:6]([H:13])=[O+:5][C-:4]1[H:12])[H:8]"
O       -1.01326090       1.15088797       1.27248000
C       -0.92595888      -0.12625347       0.70527013
C       -0.87052358      -0.05763332      -0.78705852
C        0.26908176      -0.93683826       0.44326558
O        1.42034606      -0.75645919      -0.32654550
C        1.78868617       0.42573905      -0.68518112
O        0.97783063       1.36734112      -0.57265652
H       -0.22730850       1.23719954       1.81886119
H       -1.74239849      -0.73945866       1.09738815
H       -1.28532832      -0.88807129      -1.35725667
H       -1.41861900       0.78925660      -1.18412116
H        0.29592801      -1.95717773       0.79831730
H        2.73152503       0.49146765      -1.22276287
