16
Frame=0 idx=007665 GeodesicLength=0.0 rxn_smarts="[C:1]([O:2][C:3](/[C:4](=[N:5]\[O:6][H:13])[C:7]([H:14])([H:15])[H:16])([H:11])[H:12])([H:8])([H:9])[H:10]>>[C:1]([O:2][N:5]([C:4](=[C:3]([H:11])[H:12])[C:7]([H:14])([H:15])[H:16])[O:6][H:13])([H:8])([H:9])[H:10]"
C        2.26495052       0.74908923      -0.62180974
O        1.01629289       0.37861437      -0.17599308
C       -0.65978638       0.10509421       1.50449343
C       -1.10796202      -0.36651248       0.30474954
N       -1.13368032       0.44160126      -0.76422711
O       -1.25793574       1.73258282      -0.44539246
C       -1.19609748      -1.82731464      -0.01873882
H        2.74996698      -0.02045843      -1.24273480
H        2.24117726       1.69525611      -1.18988174
H        2.92944784       0.93081559       0.23789600
H       -0.52595427       1.15993022       1.67890514
H       -0.49273239      -0.57667227       2.32856482
H       -1.19860510       2.18691595      -1.29137125
H       -1.43611564      -2.40489448       0.87357913
H       -0.23366316      -2.16686924      -0.40597970
H       -1.95930294      -2.01717822      -0.77205940
16
Frame=1 idx=007665 GeodesicLength=0.06205676933755364 rxn_smarts="[C:1]([O:2][C:3](/[C:4](=[N:5]\[O:6][H:13])[C:7]([H:14])([H:15])[H:16])([H:11])[H:12])([H:8])([H:9])[H:10]>>[C:1]([O:2][N:5]([C:4](=[C:3]([H:11])[H:12])[C:7]([H:14])([H:15])[H:16])[O:6][H:13])([H:8])([H:9])[H:10]"
C        2.25533040       0.75023623      -0.62658836
O        1.02881009       0.34125310      -0.15092519
C       -0.63043015       0.09708502       1.50576347
C       -1.10413473      -0.36579994       0.30889641
N       -1.10930152       0.44908214      -0.75602407
O       -1.23419750       1.74155491      -0.42786739
C       -1.20095629      -1.82255858      -0.02615036
H        2.77321019      -0.03185750      -1.20242501
H        2.17750208       1.65295381      -1.25613160
H        2.91341966       1.01658497       0.21535293
H       -0.50660576       1.15193492       1.69037364
H       -0.49756892      -0.58600362       2.33488539
H       -1.20744326       2.19794409      -1.27414752
H       -1.51479498      -2.39464569       0.84676359
H       -0.22825424      -2.19391321      -0.35316851
H       -1.91458507      -2.00385064      -0.82860742
16
Frame=2 idx=007665 GeodesicLength=0.12285934307374674 rxn_smarts="[C:1]([O:2][C:3](/[C:4](=[N:5]\[O:6][H:13])[C:7]([H:14])([H:15])[H:16])([H:11])[H:12])([H:8])([H:9])[H:10]>>[C:1]([O:2][N:5]([C:4](=[C:3]([H:11])[H:12])[C:7]([H:14])([H:15])[H:16])[O:6][H:13])([H:8])([H:9])[H:10]"
C        2.24458592       0.74702612      -0.63233973
O        1.03921823       0.31323070      -0.12248717
C       -0.60524608       0.09094030       1.50841084
C       -1.09980446      -0.36345304       0.31306993
N       -1.08608277       0.45890306      -0.74683438
O       -1.21655402       1.75211243      -0.40845922
C       -1.19903700      -1.81617736      -0.03501246
H        2.78853239      -0.04848187      -1.16299299
H        2.12105381       1.60019297      -1.32005356
H        2.89646306       1.09133276       0.18556409
H       -0.49407170       1.14578544       1.70404960
H       -0.50522229      -0.59260118       2.34175699
H       -1.22210641       2.21104662      -1.25352275
H       -1.58485092      -2.38223396       0.81282789
H       -0.21900472      -2.21618935      -0.29963811
H       -1.85787306      -1.99143363      -0.88433898
16
Frame=3 idx=007665 GeodesicLength=0.1850169169574818 rxn_smarts="[C:1]([O:2][C:3](/[C:4](=[N:5]\[O:6][H:13])[C:7]([H:14])([H:15])[H:16])([H:11])[H:12])([H:8])([H:9])[H:10]>>[C:1]([O:2][N:5]([C:4](=[C:3]([H:11])[H:12])[C:7]([H:14])([H:15])[H:16])[O:6][H:13])([H:8])([H:9])[H:10]"
C        2.23298548       0.74372163      -0.63798160
O        1.04906744       0.28242102      -0.10015674
C       -0.57720485       0.08404028       1.50995055
C       -1.09504577      -0.36089716       0.31714791
N       -1.06437824       0.46887684      -0.73744898
O       -1.19807726       1.76286573      -0.38837264
C       -1.19832987      -1.80942832      -0.04386963
H        2.81242073      -0.05856977      -1.11658164
H        2.06654515       1.53902245      -1.38282177
H        2.86585889       1.16968956       0.15534421
H       -0.47556528       1.13844220       1.71612713
H       -0.50895490      -0.59896245       2.34698529
H       -1.23846932       2.22394097      -1.23107887
H       -1.65477511      -2.36640588       0.77460601
H       -0.21654118      -2.23998804      -0.24575026
H       -1.79953589      -1.97876905      -0.93609898
16
Frame=4 idx=007665 GeodesicLength=0.2468438068069599 rxn_smarts="[C:1]([O:2][C:3](/[C:4](=[N:5]\[O:6][H:13])[C:7]([H:14])([H:15])[H:16])([H:11])[H:12])([H:8])([H:9])[H:10]>>[C:1]([O:2][N:5]([C:4](=[C:3]([H:11])[H:12])[C:7]([H:14])([H:15])[H:16])[O:6][H:13])([H:8])([H:9])[H:10]"
C        2.22039683       0.73912583      -0.64372543
O        1.05765440       0.25514322      -0.07756998
C       -0.55120086       0.07833522       1.51174247
C       -1.09016642      -0.35777224       0.32117364
N       -1.04359672       0.47914246      -0.72805461
O       -1.18244512       1.77372807      -0.36856831
C       -1.19482276      -1.80226297      -0.05269495
H        2.83163471      -0.06564877      -1.07461506
H        2.01636914       1.47494366      -1.43790388
H        2.83369644       1.23782049       0.12155985
H       -0.45933716       1.13224246       1.72804595
H       -0.51297396      -0.60310399       2.35204798
H       -1.25508260       2.23653028      -1.20791936
H       -1.71926045      -2.34870879       0.73166171
H       -0.21561590      -2.26222393      -0.19136412
H       -1.73524956      -1.96729102      -0.98381590
16
Frame=5 idx=007665 GeodesicLength=0.30883512203928565 rxn_smarts="[C:1]([O:2][C:3](/[C:4](=[N:5]\[O:6][H:13])[C:7]([H:14])([H:15])[H:16])([H:11])[H:12])([H:8])([H:9])[H:10]>>[C:1]([O:2][N:5]([C:4](=[C:3]([H:11])[H:12])[C:7]([H:14])([H:15])[H:16])[O:6][H:13])([H:8])([H:9])[H:10]"
C        2.20670279       0.73301900      -0.65023182
O        1.06494346       0.23177120      -0.05441152
C       -0.52699927       0.07314553       1.51426585
C       -1.08524363      -0.35406081       0.32540485
N       -1.02399813       0.49049503      -0.71782555
O       -1.16994805       1.78521330      -0.34729846
C       -1.18868721      -1.79441273      -0.06216904
H        2.84892172      -0.07212341      -1.03073700
H        1.96994898       1.40275170      -1.49162250
H        2.79783928       1.30238171       0.08191780
H       -0.44513303       1.12635840       1.74095970
H       -0.51695937      -0.60648212       2.35697842
H       -1.27130006       2.24997649      -1.18234814
H       -1.77898441      -2.32942800       0.68252335
H       -0.21643953      -2.28267970      -0.13693787
H       -1.66466354      -1.95592559      -1.02846808
16
Frame=6 idx=007665 GeodesicLength=0.3728132968131211 rxn_smarts="[C:1]([O:2][C:3](/[C:4](=[N:5]\[O:6][H:13])[C:7]([H:14])([H:15])[H:16])([H:11])[H:12])([H:8])([H:9])[H:10]>>[C:1]([O:2][N:5]([C:4](=[C:3]([H:11])[H:12])[C:7]([H:14])([H:15])[H:16])[O:6][H:13])([H:8])([H:9])[H:10]"
C        2.19237930       0.72767841      -0.65600431
O        1.07260774       0.20334802      -0.03644587
C       -0.50016120       0.06730970       1.51532637
C       -1.07996357      -0.35043162       0.32939475
N       -1.00457272       0.50095967      -0.70826033
O       -1.15414747       1.79625387      -0.32717420
C       -1.18495824      -1.78660548      -0.07102068
H        2.87293958      -0.06781215      -0.98423745
H        1.92598650       1.32681486      -1.53995172
H        2.74967953       1.36730220       0.04326962
H       -0.42467513       1.11962825       1.75134939
H       -0.51742633      -0.60924582       2.36055328
H       -1.28833981       2.26180168      -1.15689932
H       -1.83767081      -2.30701527       0.63097068
H       -0.22571345      -2.30489991      -0.08364813
H       -1.59596394      -1.94508642      -1.06722207
16
Frame=7 idx=007665 GeodesicLength=0.43702836779936827 rxn_smarts="[C:1]([O:2][C:3](/[C:4](=[N:5]\[O:6][H:13])[C:7]([H:14])([H:15])[H:16])([H:11])[H:12])([H:8])([H:9])[H:10]>>[C:1]([O:2][N:5]([C:4](=[C:3]([H:11])[H:12])[C:7]([H:14])([H:15])[H:16])[O:6][H:13])([H:8])([H:9])[H:10]"
C        2.17727557       0.71993134      -0.66296633
O        1.07918007       0.17993116      -0.01603053
C       -0.47613361       0.06254467       1.51763357
C       -1.07467070      -0.34597033       0.33367802
N       -0.98578559       0.51287773      -0.69770491
O       -1.14187285       1.80816999      -0.30546084
C       -1.17756000      -1.77787769      -0.08063960
H        2.89204561      -0.06426511      -0.93919248
H        1.88605982       1.24424460      -1.58516512
H        2.70103965       1.42498138      -0.00236021
H       -0.40810590       1.11384922       1.76337900
H       -0.51937268      -0.61087476       2.36462536
H       -1.30701774       2.27443772      -1.12894255
H       -1.89013592      -2.28344694       0.57257577
H       -0.23549607      -2.32437001      -0.03041332
H       -1.51944968      -1.93416298      -1.10301582
16
Frame=8 idx=007665 GeodesicLength=0.5024184258950705 rxn_smarts="[C:1]([O:2][C:3](/[C:4](=[N:5]\[O:6][H:13])[C:7]([H:14])([H:15])[H:16])([H:11])[H:12])([H:8])([H:9])[H:10]>>[C:1]([O:2][N:5]([C:4](=[C:3]([H:11])[H:12])[C:7]([H:14])([H:15])[H:16])[O:6][H:13])([H:8])([H:9])[H:10]"
C        2.16121144       0.70962186      -0.67128097
O        1.08491683       0.16126625       0.00707964
C       -0.45471147       0.05854760       1.52138567
C       -1.06934963      -0.34064651       0.33830908
N       -0.96751781       0.52658576      -0.68582590
O       -1.13267979       1.82117935      -0.28151469
C       -1.16678294      -1.76800767      -0.09134307
H        2.90803736      -0.06088569      -0.89303599
H        1.84890999       1.15180055      -1.62832839
H        2.65042407       1.47802537      -0.05712581
H       -0.39509924       1.10860322       1.77751050
H       -0.52270181      -0.61211112       2.36915725
H       -1.32662136       2.28824497      -1.09800533
H       -1.93615915      -2.25874897       0.50673188
H       -0.24638331      -2.34110840       0.02197205
H       -1.43549319      -1.92236657      -1.13568591
16
Frame=9 idx=007665 GeodesicLength=0.5707653581028344 rxn_smarts="[C:1]([O:2][C:3](/[C:4](=[N:5]\[O:6][H:13])[C:7]([H:14])([H:15])[H:16])([H:11])[H:12])([H:8])([H:9])[H:10]>>[C:1]([O:2][N:5]([C:4](=[C:3]([H:11])[H:12])[C:7]([H:14])([H:15])[H:16])[O:6][H:13])([H:8])([H:9])[H:10]"
C        2.14397944       0.70066421      -0.67919642
O        1.09137077       0.13702604       0.02590936
C       -0.43069414       0.05348588       1.52390060
C       -1.06360062      -0.33564661       0.34283855
N       -0.94875706       0.53906689      -0.67456200
O       -1.11937272       1.83346209      -0.25866224
C       -1.15880759      -1.75839233      -0.10128422
H        2.92956948      -0.04397795      -0.84453100
H        1.81523377       1.05534015      -1.66614085
H        2.58540683       1.53135818      -0.11252416
H       -0.37579927       1.10220265       1.78939309
H       -0.52298983      -0.61321903       2.37272992
H       -1.34366428       2.30049459      -1.06712708
H       -1.98182063      -2.23043506       0.43786866
H       -0.26667042      -2.35984798       0.07356061
H       -1.35338371      -1.91158171      -1.16217284
16
Frame=10 idx=007665 GeodesicLength=0.6404060647197097 rxn_smarts="[C:1]([O:2][C:3](/[C:4](=[N:5]\[O:6][H:13])[C:7]([H:14])([H:15])[H:16])([H:11])[H:12])([H:8])([H:9])[H:10]>>[C:1]([O:2][N:5]([C:4](=[C:3]([H:11])[H:12])[C:7]([H:14])([H:15])[H:16])[O:6][H:13])([H:8])([H:9])[H:10]"
C        2.12594389       0.68677710      -0.68929395
O        1.09665785       0.12263438       0.05145130
C       -0.41188224       0.05045652       1.52925481
C       -1.05788556      -0.32907698       0.34783063
N       -0.93050205       0.55486158      -0.66113281
O       -1.11242162       1.84771720      -0.23229075
C       -1.14418737      -1.74675128      -0.11315547
H        2.94242921      -0.03334460      -0.79926509
H        1.78295215       0.94832858      -1.69963076
H        2.52613834       1.57375901      -0.18118499
H       -0.36537130       1.09753944       1.80550813
H       -0.52718263      -0.61365923       2.37755067
H       -1.36452011       2.31471894      -1.03230479
H       -2.01617867      -2.20221997       0.35953187
H       -0.28403769      -2.37323029       0.12290768
H       -1.25995221      -1.89851039      -1.18577648
16
Frame=11 idx=007665 GeodesicLength=0.7130514615392974 rxn_smarts="[C:1]([O:2][C:3](/[C:4](=[N:5]\[O:6][H:13])[C:7]([H:14])([H:15])[H:16])([H:11])[H:12])([H:8])([H:9])[H:10]>>[C:1]([O:2][N:5]([C:4](=[C:3]([H:11])[H:12])[C:7]([H:14])([H:15])[H:16])[O:6][H:13])([H:8])([H:9])[H:10]"
C        2.10677365       0.67280528      -0.69929666
O        1.10249780       0.10591812       0.07549328
C       -0.39227101       0.04720673       1.53418534
C       -1.05175817      -0.32240237       0.35267250
N       -0.91155990       0.57023760      -0.64800123
O       -1.10327100       1.86171584      -0.20657143
C       -1.13031633      -1.73487054      -0.12477108
H        2.95660631      -0.01296845      -0.75504946
H        1.75357789       0.83784850      -1.72585779
H        2.45722070       1.61169922      -0.25234496
H       -0.35226477       1.09258151       1.82058981
H       -0.53007457      -0.61371087       2.38188618
H       -1.38391677       2.32779053      -0.99733525
H       -2.04660534      -2.17113943       0.27737577
H       -0.30813216      -2.38673771       0.17019790
H       -1.16650632      -1.88597397      -1.20317294
16
Frame=12 idx=007665 GeodesicLength=0.7885761403787115 rxn_smarts="[C:1]([O:2][C:3](/[C:4](=[N:5]\[O:6][H:13])[C:7]([H:14])([H:15])[H:16])([H:11])[H:12])([H:8])([H:9])[H:10]>>[C:1]([O:2][N:5]([C:4](=[C:3]([H:11])[H:12])[C:7]([H:14])([H:15])[H:16])[O:6][H:13])([H:8])([H:9])[H:10]"
C        2.08667678       0.65527019      -0.71052293
O        1.10792073       0.09504665       0.10337150
C       -0.37566199       0.04541951       1.54075169
C       -1.04542487      -0.31458508       0.35760685
N       -0.89265977       0.58774254      -0.63364022
O       -1.09769850       1.87690710      -0.17896663
C       -1.11224119      -1.72139759      -0.13757389
H        2.96545082       0.00595252      -0.71540210
H        1.72468064       0.72094330      -1.74467380
H        2.38988083       1.63913680      -0.33207695
H       -0.34422420       1.08882026       1.83799434
H       -0.53492982      -0.61327039       2.38669659
H       -1.40585593       2.34141560      -0.96011751
H       -2.06686122      -2.13912634       0.18834269
H       -0.33236746      -2.39666315       0.21402402
H       -1.06668486      -1.87161192      -1.21581366
16
Frame=13 idx=007665 GeodesicLength=0.8671189337297569 rxn_smarts="[C:1]([O:2][C:3](/[C:4](=[N:5]\[O:6][H:13])[C:7]([H:14])([H:15])[H:16])([H:11])[H:12])([H:8])([H:9])[H:10]>>[C:1]([O:2][N:5]([C:4](=[C:3]([H:11])[H:12])[C:7]([H:14])([H:15])[H:16])[O:6][H:13])([H:8])([H:9])[H:10]"
C        2.06558106       0.63587110      -0.72191414
O        1.11328413       0.08665199       0.13243477
C       -0.36035011       0.04463317       1.54777350
C       -1.03881488      -0.30618416       0.36233445
N       -0.87364595       0.60592807      -0.61910690
O       -1.09359871       1.89234405      -0.15135967
C       -1.09212301      -1.70709048      -0.15065236
H        2.97068478       0.02653967      -0.68174028
H        1.69615452       0.60344425      -1.75455264
H        2.32167879       1.65668749      -0.41444344
H       -0.33814518       1.08592866       1.85573445
H       -0.54004296      -0.61215979       2.39137684
H       -1.42827310       2.35434045      -0.92279422
H       -2.07859029      -2.10562492       0.09520220
H       -0.35907196      -2.40455846       0.25416387
H       -0.96472714      -1.85675109      -1.22245644
16
Frame=14 idx=007665 GeodesicLength=0.948947563502857 rxn_smarts="[C:1]([O:2][C:3](/[C:4](=[N:5]\[O:6][H:13])[C:7]([H:14])([H:15])[H:16])([H:11])[H:12])([H:8])([H:9])[H:10]>>[C:1]([O:2][N:5]([C:4](=[C:3]([H:11])[H:12])[C:7]([H:14])([H:15])[H:16])[O:6][H:13])([H:8])([H:9])[H:10]"
C        2.04353206       0.61460338      -0.73327216
O        1.11855708       0.08082740       0.16242703
C       -0.34622533       0.04490857       1.55510209
C       -1.03192286      -0.29721655       0.36675053
N       -0.85463038       0.62476390      -0.60452974
O       -1.09117127       1.90795811      -0.12395229
C       -1.06999226      -1.69195612      -0.16396706
H        2.97221638       0.04745417      -0.65462106
H        1.66743572       0.48693557      -1.75562555
H        2.25343563       1.66424657      -0.49784995
H       -0.33406173       1.08396194       1.87363376
H       -0.54521263      -0.61041961       2.39579145
H       -1.45131452       2.36643461      -0.88571995
H       -2.08128162      -2.07077658      -0.00102937
H       -0.38772488      -2.41032049       0.28997775
H       -0.86163939      -1.84140487      -1.22311548
16
Frame=15 idx=007665 GeodesicLength=1.0345616308680459 rxn_smarts="[C:1]([O:2][C:3](/[C:4](=[N:5]\[O:6][H:13])[C:7]([H:14])([H:15])[H:16])([H:11])[H:12])([H:8])([H:9])[H:10]>>[C:1]([O:2][N:5]([C:4](=[C:3]([H:11])[H:12])[C:7]([H:14])([H:15])[H:16])[O:6][H:13])([H:8])([H:9])[H:10]"
C        2.02051316       0.59120381      -0.74454352
O        1.12362310       0.07827761       0.19340609
C       -0.33339773       0.04637861       1.56275276
C       -1.02475087      -0.28763297       0.37079933
N       -0.83585243       0.64446114      -0.58984710
O       -1.09110127       1.92378813      -0.09661714
C       -1.04549979      -1.67587204      -0.17761052
H        2.96974702       0.06654635      -0.63436039
H        1.63758174       0.37219893      -1.74827096
H        2.18656878       1.66177661      -0.58151359
H       -0.33247928       1.08300037       1.89180899
H       -0.55041743      -0.60816392       2.39986896
H       -1.47529586       2.37779154      -0.84901690
H       -2.07419284      -2.03481027      -0.09964168
H       -0.41728229      -2.41368670       0.32086532
H       -0.75776401      -1.82525719      -1.21807965
16
Frame=16 idx=007665 GeodesicLength=1.1243369326084018 rxn_smarts="[C:1]([O:2][C:3](/[C:4](=[N:5]\[O:6][H:13])[C:7]([H:14])([H:15])[H:16])([H:11])[H:12])([H:8])([H:9])[H:10]>>[C:1]([O:2][N:5]([C:4](=[C:3]([H:11])[H:12])[C:7]([H:14])([H:15])[H:16])[O:6][H:13])([H:8])([H:9])[H:10]"
C        1.99652196       0.56597713      -0.75545457
O        1.12847155       0.07859488       0.22474971
C       -0.32153236       0.04896616       1.57044984
C       -1.01729949      -0.27755917       0.37438616
N       -0.81744597       0.66479908      -0.57526684
O       -1.09329763       1.93962128      -0.06968971
C       -1.01897584      -1.65897558      -0.19143551
H        2.96356517       0.08297205      -0.62089266
H        1.60615680       0.26092609      -1.73308839
H        2.12132780       1.65008832      -0.66349524
H       -0.33294042       1.08296530       1.90987146
H       -0.55526687      -0.60544594       2.40344196
H       -1.49991551       2.38824689      -0.81323785
H       -2.05754381      -1.99780293      -0.19929081
H       -0.44744070      -2.41486019       0.34652171
H       -0.65438469      -1.80851337      -1.20756926
