10
Frame=0 idx=004617 GeodesicLength=0.0 rxn_smarts="[N:1]([c:2]1[c:3]([H:9])[n:4][n:5][n:6]1[H:10])([H:7])[H:8]>>[N:1]([c:2]1[c:3]([H:9])[n:4][n:5]([H:10])[n:6]1)([H:7])[H:8]"
N       -1.66956449       0.08580552       0.10430276
C       -0.30849271      -0.01115369      -0.04567644
C        0.69515916       0.89718392       0.28835212
N        1.87747528       0.32449205       0.09993055
N        1.70081848      -0.85159674      -0.43368423
N        0.27384965      -1.10736060      -0.53617636
H       -2.20353797      -0.55215005      -0.46109998
H       -2.04552877       1.01743584       0.12423177
H        0.60750881       1.90475449       0.66452757
H        1.07231257      -1.70741073       0.19529224
10
Frame=1 idx=004617 GeodesicLength=0.05142729920527813 rxn_smarts="[N:1]([c:2]1[c:3]([H:9])[n:4][n:5][n:6]1[H:10])([H:7])[H:8]>>[N:1]([c:2]1[c:3]([H:9])[n:4][n:5]([H:10])[n:6]1)([H:7])[H:8]"
N       -1.67143840       0.08584399       0.10840221
C       -0.30898606      -0.00771290      -0.03825569
C        0.69352428       0.90005390       0.29912464
N        1.87664129       0.32634545       0.11234108
N        1.69648569      -0.84683377      -0.42367377
N        0.27749198      -1.10094904      -0.52856163
H       -2.20246625      -0.54992093      -0.46242128
H       -2.04745992       1.01765687       0.12470654
H        0.60584982       1.92008356       0.63993535
H        1.08035756      -1.74456714       0.16840255
10
Frame=2 idx=004617 GeodesicLength=0.10276253036718375 rxn_smarts="[N:1]([c:2]1[c:3]([H:9])[n:4][n:5][n:6]1[H:10])([H:7])[H:8]>>[N:1]([c:2]1[c:3]([H:9])[n:4][n:5]([H:10])[n:6]1)([H:7])[H:8]"
N       -1.67317565       0.08584919       0.11256532
C       -0.30945067      -0.00350296      -0.03226115
C        0.69181298       0.90415236       0.30762607
N        1.87571719       0.32838248       0.12551138
N        1.69237012      -0.84276004      -0.41106164
N        0.28131774      -1.09487625      -0.51967144
H       -2.20138757      -0.54772729      -0.46348614
H       -2.04968392       1.01764106       0.12618459
H        0.60429139       1.93458280       0.61557185
H        1.08818838      -1.78174135       0.13902116
10
Frame=3 idx=004617 GeodesicLength=0.15402119177163945 rxn_smarts="[N:1]([c:2]1[c:3]([H:9])[n:4][n:5][n:6]1[H:10])([H:7])[H:8]>>[N:1]([c:2]1[c:3]([H:9])[n:4][n:5]([H:10])[n:6]1)([H:7])[H:8]"
N       -1.67516802       0.08634073       0.11626021
C       -0.31010688       0.00054927      -0.02557529
C        0.68994996       0.90934116       0.31336362
N        1.87465212       0.33166570       0.13560014
N        1.68795208      -0.83937433      -0.39720561
N        0.28475252      -1.09045551      -0.50690781
H       -2.20033001      -0.54503423      -0.46518240
H       -2.05184888       1.01823792       0.12653312
H        0.60262178       1.94727856       0.59501942
H        1.09752532      -1.81854928       0.10809459
10
Frame=4 idx=004617 GeodesicLength=0.20513298875718933 rxn_smarts="[N:1]([c:2]1[c:3]([H:9])[n:4][n:5][n:6]1[H:10])([H:7])[H:8]>>[N:1]([c:2]1[c:3]([H:9])[n:4][n:5]([H:10])[n:6]1)([H:7])[H:8]"
N       -1.67708956       0.08695298       0.11975356
C       -0.31078411       0.00523812      -0.02027705
C        0.68806000       0.91565004       0.31638758
N        1.87356335       0.33564591       0.14457794
N        1.68359141      -0.83702390      -0.38058349
N        0.28819073      -1.08705478      -0.49158292
H       -2.19930729      -0.54224588      -0.46689021
H       -2.05422066       1.01882328       0.12731558
H        0.60089455       1.95918879       0.57653503
H        1.10710157      -1.85517456       0.07476400
10
Frame=5 idx=004617 GeodesicLength=0.25612528076152785 rxn_smarts="[N:1]([c:2]1[c:3]([H:9])[n:4][n:5][n:6]1[H:10])([H:7])[H:8]>>[N:1]([c:2]1[c:3]([H:9])[n:4][n:5]([H:10])[n:6]1)([H:7])[H:8]"
N       -1.67937682       0.08831648       0.12245365
C       -0.31171720       0.00957389      -0.01390822
C        0.68608004       0.92261619       0.31707680
N        1.87247422       0.34153507       0.14791673
N        1.67873352      -0.83562443      -0.36269544
N        0.29099226      -1.08603941      -0.47058781
H       -2.19827504      -0.53885730      -0.46949983
H       -2.05637764       1.02039242       0.12595506
H        0.59878951       1.96942032       0.56358190
H        1.11867716      -1.89133321       0.03970715
10
Frame=6 idx=004617 GeodesicLength=0.30693939969464 rxn_smarts="[N:1]([c:2]1[c:3]([H:9])[n:4][n:5][n:6]1[H:10])([H:7])[H:8]>>[N:1]([c:2]1[c:3]([H:9])[n:4][n:5]([H:10])[n:6]1)([H:7])[H:8]"
N       -1.68185095       0.09031480       0.12445551
C       -0.31280582       0.01403840      -0.00757115
C        0.68408554       0.93019445       0.31570214
N        1.87144964       0.34915019       0.14611069
N        1.67357763      -0.83539983      -0.34229973
N        0.29337939      -1.08706701      -0.44401809
H       -2.19718698      -0.53531077      -0.47245187
H       -2.05845371       1.02268393       0.12279767
H        0.59637333       1.97848250       0.55544218
H        1.13143192      -1.92708665       0.00183264
10
Frame=7 idx=004617 GeodesicLength=0.35748124367845296 rxn_smarts="[N:1]([c:2]1[c:3]([H:9])[n:4][n:5][n:6]1[H:10])([H:7])[H:8]>>[N:1]([c:2]1[c:3]([H:9])[n:4][n:5]([H:10])[n:6]1)([H:7])[H:8]"
N       -1.68426316       0.09289660       0.12608552
C       -0.31390928       0.01924697      -0.00258848
C        0.68215158       0.93838859       0.31284254
N        1.87048894       0.35792005       0.14108797
N        1.66839166      -0.83653276      -0.31736948
N        0.29565962      -1.08943003      -0.41231920
H       -2.19609946      -0.53263591      -0.47414599
H       -2.06061194       1.02545735       0.11764057
H        0.59390620       1.98709725       0.55025827
H        1.14428585      -1.96240812      -0.04149173
10
Frame=8 idx=004617 GeodesicLength=0.4076189898922126 rxn_smarts="[N:1]([c:2]1[c:3]([H:9])[n:4][n:5][n:6]1[H:10])([H:7])[H:8]>>[N:1]([c:2]1[c:3]([H:9])[n:4][n:5]([H:10])[n:6]1)([H:7])[H:8]"
N       -1.68711699       0.09664913       0.12701673
C       -0.31525669       0.02403095       0.00493615
C        0.68017132       0.94638336       0.31102237
N        1.86934572       0.36844003       0.12976375
N        1.66272487      -0.83875993      -0.28816376
N        0.29733628      -1.09412949      -0.37107337
H       -2.19458752      -0.53069177      -0.47525736
H       -2.06235870       1.02961582       0.10744376
H        0.59133415       1.99512561       0.54782625
H        1.15840756      -1.99666370      -0.09351452
10
Frame=9 idx=004617 GeodesicLength=0.4566651069601795 rxn_smarts="[N:1]([c:2]1[c:3]([H:9])[n:4][n:5][n:6]1[H:10])([H:7])[H:8]>>[N:1]([c:2]1[c:3]([H:9])[n:4][n:5]([H:10])[n:6]1)([H:7])[H:8]"
N       -1.69053694       0.10091782       0.12797698
C       -0.31684050       0.02752063       0.01827639
C        0.67798965       0.95382555       0.31253449
N        1.86759572       0.37858437       0.11875651
N        1.65677697      -0.84217557      -0.25160001
N        0.29870816      -1.10117379      -0.31732909
H       -2.19180021      -0.52898538      -0.47705523
H       -2.06355735       1.03449305       0.09416170
H        0.58877395       2.00501123       0.53791924
H        1.17289055      -2.02801790      -0.16364097
10
Frame=10 idx=004617 GeodesicLength=0.5021878463711206 rxn_smarts="[N:1]([c:2]1[c:3]([H:9])[n:4][n:5][n:6]1[H:10])([H:7])[H:8]>>[N:1]([c:2]1[c:3]([H:9])[n:4][n:5]([H:10])[n:6]1)([H:7])[H:8]"
N       -1.69407308       0.10527369       0.12830757
C       -0.31830543       0.02962610       0.03762556
C        0.67632956       0.96140952       0.31327832
N        1.86540184       0.38821092       0.10328564
N        1.65067427      -0.84844213      -0.20381800
N        0.29997620      -1.11133980      -0.24633790
H       -2.18668077      -0.52932529      -0.47916578
H       -2.06375766       1.03941317       0.07555151
H        0.58684313       2.01520923       0.52573525
H        1.18359193      -2.05003540      -0.25446217
10
Frame=11 idx=004617 GeodesicLength=0.5416426007350829 rxn_smarts="[N:1]([c:2]1[c:3]([H:9])[n:4][n:5][n:6]1[H:10])([H:7])[H:8]>>[N:1]([c:2]1[c:3]([H:9])[n:4][n:5]([H:10])[n:6]1)([H:7])[H:8]"
N       -1.69661844       0.10757813       0.12883599
C       -0.31903428       0.02965483       0.05817824
C        0.67533362       0.96847566       0.30860208
N        1.86336673       0.39257904       0.09323595
N        1.64530086      -0.85814688      -0.14508268
N        0.30221558      -1.12335787      -0.16539888
H       -2.17951654      -0.53177390      -0.48165686
H       -2.06291306       1.04196473       0.05811860
H        0.58652276       2.02507670       0.50624420
H        1.18534276      -2.05205044      -0.36107666
10
Frame=12 idx=004617 GeodesicLength=0.580400587966896 rxn_smarts="[N:1]([c:2]1[c:3]([H:9])[n:4][n:5][n:6]1[H:10])([H:7])[H:8]>>[N:1]([c:2]1[c:3]([H:9])[n:4][n:5]([H:10])[n:6]1)([H:7])[H:8]"
N       -1.69746005       0.10760657       0.12974680
C       -0.31847927       0.02925881       0.07149627
C        0.67613255       0.97319302       0.29981403
N        1.86274589       0.39091083       0.08651469
N        1.64059728      -0.87031943      -0.08303945
N        0.30491785      -1.13366921      -0.09059710
H       -2.17277134      -0.53908121      -0.47919681
H       -2.06122507       1.04137711       0.03981591
H        0.58911333       2.03144668       0.48819068
H        1.17642884      -2.03072317      -0.46274501
10
Frame=13 idx=004617 GeodesicLength=0.6231324416210261 rxn_smarts="[N:1]([c:2]1[c:3]([H:9])[n:4][n:5][n:6]1[H:10])([H:7])[H:8]>>[N:1]([c:2]1[c:3]([H:9])[n:4][n:5]([H:10])[n:6]1)([H:7])[H:8]"
N       -1.69778425       0.10601578       0.13093569
C       -0.31758625       0.02738369       0.08206420
C        0.67754009       0.97469244       0.29304166
N        1.86249943       0.38605421       0.08015953
N        1.63601795      -0.88124450      -0.03185786
N        0.30765393      -1.14133895      -0.03371606
H       -2.16698150      -0.54591936      -0.47739351
H       -2.05889555       1.03923899       0.02504923
H        0.59285214       2.03456387       0.47224129
H        1.16468401      -1.99944618      -0.54052418
10
Frame=14 idx=004617 GeodesicLength=0.6674030295976382 rxn_smarts="[N:1]([c:2]1[c:3]([H:9])[n:4][n:5][n:6]1[H:10])([H:7])[H:8]>>[N:1]([c:2]1[c:3]([H:9])[n:4][n:5]([H:10])[n:6]1)([H:7])[H:8]"
N       -1.69814490       0.10339321       0.13132112
C       -0.31677503       0.02488982       0.09275846
C        0.67897123       0.97483104       0.28805099
N        1.86169590       0.38130021       0.06833708
N        1.63154938      -0.88929472       0.00594496
N        0.31064163      -1.14694477       0.01177775
H       -2.16076578      -0.55049681      -0.48018321
H       -2.05650042       1.03643205       0.01414216
H        0.59669829       2.03545219       0.46291686
H        1.15262969      -1.96956223      -0.59506617
10
Frame=15 idx=004617 GeodesicLength=0.7120433612935104 rxn_smarts="[N:1]([c:2]1[c:3]([H:9])[n:4][n:5][n:6]1[H:10])([H:7])[H:8]>>[N:1]([c:2]1[c:3]([H:9])[n:4][n:5]([H:10])[n:6]1)([H:7])[H:8]"
N       -1.69837958       0.10006955       0.13161385
C       -0.31588561       0.02235387       0.10331154
C        0.68041284       0.97409611       0.28636438
N        1.86084348       0.37619326       0.05837721
N        1.62732754      -0.89565639       0.03510625
N        0.31393622      -1.15115316       0.05021716
H       -2.15417993      -0.55393825      -0.48510772
H       -2.05420785       1.03311338       0.00623288
H        0.60023853       2.03614350       0.45245695
H        1.13989436      -1.94122187      -0.63857249
10
Frame=16 idx=004617 GeodesicLength=0.756909292975187 rxn_smarts="[N:1]([c:2]1[c:3]([H:9])[n:4][n:5][n:6]1[H:10])([H:7])[H:8]>>[N:1]([c:2]1[c:3]([H:9])[n:4][n:5]([H:10])[n:6]1)([H:7])[H:8]"
N       -1.69849558       0.09650696       0.13196357
C       -0.31494276       0.01979803       0.11442699
C        0.68191164       0.97285588       0.28709972
N        1.85996626       0.37085356       0.05007721
N        1.62327368      -0.90113543       0.05908879
N        0.31742697      -1.15452478       0.08419116
H       -2.14728862      -0.55725106      -0.49037529
H       -2.05175418       1.02956111      -0.00117269
H        0.60357427       2.03675395       0.44097021
H        1.12632832      -1.91341822      -0.67626967
