14
Frame=0 idx=001526 GeodesicLength=0.0 rxn_smarts="[C:1]([C@:2]12[C:3]([H:10])([H:11])[C@@:4]1([H:12])[C:5]([H:13])([H:14])[O:6]2)([H:7])([H:8])[H:9]>>[C:1]([C:2]1=[O+:6][C-:5]([H:14])[C@@:4]1([C:3]([H:10])([H:11])[H:13])[H:12])([H:7])([H:8])[H:9]"
C       -1.86287824      -0.11068739       0.42456987
C       -0.41765269      -0.38536358       0.40334525
C        0.68535583       0.95827290      -0.89219942
C        0.65639401      -0.53573068      -0.59169984
C        1.52472715      -0.44094687       0.67474139
O        0.33058584      -0.48278234       1.46822569
H       -2.43344177      -1.04121931       0.35144202
H       -2.14620735       0.40456867       1.34218856
H       -2.12656838       0.50723847      -0.43552223
H        1.59826784       1.27470444      -1.39495391
H       -0.19726467       1.38169655      -1.37517766
H        0.71981519      -1.34280522      -1.31827904
H        1.36777268       0.93483145       0.32881778
H        2.30109454      -1.12177709       1.01450158
14
Frame=1 idx=001526 GeodesicLength=0.05421939172971997 rxn_smarts="[C:1]([C@:2]12[C:3]([H:10])([H:11])[C@@:4]1([H:12])[C:5]([H:13])([H:14])[O:6]2)([H:7])([H:8])[H:9]>>[C:1]([C:2]1=[O+:6][C-:5]([H:14])[C@@:4]1([C:3]([H:10])([H:11])[H:13])[H:12])([H:7])([H:8])[H:9]"
C       -1.86386200      -0.10985016       0.42543916
C       -0.41571192      -0.36774151       0.40150738
C        0.67974606       0.95815381      -0.89188371
C        0.66198240      -0.53388489      -0.58704565
C        1.52792792      -0.44165732       0.68088879
O        0.33060285      -0.47771918       1.47076207
H       -2.42409599      -1.04482571       0.33437682
H       -2.15554342       0.38629082       1.35105613
H       -2.13587234       0.52237168      -0.42173994
H        1.58789156       1.28188496      -1.39848219
H       -0.19727611       1.36721864      -1.39684554
H        0.72159811      -1.34397292      -1.30977664
H        1.39237160       0.94531471       0.32739786
H        2.29024127      -1.14158295       1.01434547
14
Frame=2 idx=001526 GeodesicLength=0.10842561949728663 rxn_smarts="[C:1]([C@:2]12[C:3]([H:10])([H:11])[C@@:4]1([H:12])[C:5]([H:13])([H:14])[O:6]2)([H:7])([H:8])[H:9]>>[C:1]([C:2]1=[O+:6][C-:5]([H:14])[C@@:4]1([C:3]([H:10])([H:11])[H:13])[H:12])([H:7])([H:8])[H:9]"
C       -1.86471709      -0.10903775       0.42625019
C       -0.41380831      -0.35030905       0.39970555
C        0.67408034       0.95796409      -0.89165863
C        0.66735787      -0.53205047      -0.58236839
C        1.53097933      -0.44230677       0.68704060
O        0.33051781      -0.47264143       1.47330076
H       -2.41471392      -1.04789971       0.31683783
H       -2.16453179       0.36744287       1.35970153
H       -2.14509491       0.53753365      -0.40746104
H        1.57746856       1.28889768      -1.40198289
H       -0.19701123       1.35256678      -1.41790375
H        0.72320935      -1.34516680      -1.30119878
H        1.41714934       0.95559677       0.32544119
H        2.27911465      -1.16058987       1.01429583
14
Frame=3 idx=001526 GeodesicLength=0.1625273742254945 rxn_smarts="[C:1]([C@:2]12[C:3]([H:10])([H:11])[C@@:4]1([H:12])[C:5]([H:13])([H:14])[O:6]2)([H:7])([H:8])[H:9]>>[C:1]([C:2]1=[O+:6][C-:5]([H:14])[C@@:4]1([C:3]([H:10])([H:11])[H:13])[H:12])([H:7])([H:8])[H:9]"
C       -1.86544081      -0.10824262       0.42697513
C       -0.41194066      -0.33309854       0.39791219
C        0.66833844       0.95769476      -0.89145965
C        0.67253748      -0.53020315      -0.57766769
C        1.53388236      -0.44292055       0.69316700
O        0.33033045      -0.46759785       1.47578151
H       -2.40529479      -1.05038071       0.29909441
H       -2.17310628       0.34827772       1.36789973
H       -2.15427811       0.55244193      -0.39282093
H        1.56697570       1.29576655      -1.40534668
H       -0.19652275       1.33779648      -1.43824261
H        0.72469072      -1.34630938      -1.29255869
H        1.44208556       0.96562114       0.32297693
H        2.26774270      -1.17884580       1.01428934
14
Frame=4 idx=001526 GeodesicLength=0.21665097461710864 rxn_smarts="[C:1]([C@:2]12[C:3]([H:10])([H:11])[C@@:4]1([H:12])[C:5]([H:13])([H:14])[O:6]2)([H:7])([H:8])[H:9]>>[C:1]([C:2]1=[O+:6][C-:5]([H:14])[C@@:4]1([C:3]([H:10])([H:11])[H:13])[H:12])([H:7])([H:8])[H:9]"
C       -1.86604862      -0.10746440       0.42764208
C       -0.41011892      -0.31609584       0.39615118
C        0.66253750       0.95734441      -0.89136792
C        0.67752035      -0.52837221      -0.57293932
C        1.53663942      -0.44346222       0.69931267
O        0.33003807      -0.46253323       1.47827709
H       -2.39587457      -1.05228798       0.28086504
H       -2.18133240       0.32852856       1.37585550
H       -2.16338654       0.56736551      -0.37765739
H        1.55644009       1.30249477      -1.40867624
H       -0.19580816       1.32288148      -1.45800112
H        0.72603087      -1.34749244      -1.28383234
H        1.46721977       0.97543811       0.31996035
H        2.25614312      -1.19634451       1.01441041
14
Frame=5 idx=001526 GeodesicLength=0.27078105182272905 rxn_smarts="[C:1]([C@:2]12[C:3]([H:10])([H:11])[C@@:4]1([H:12])[C:5]([H:13])([H:14])[O:6]2)([H:7])([H:8])[H:9]>>[C:1]([C:2]1=[O+:6][C-:5]([H:14])[C@@:4]1([C:3]([H:10])([H:11])[H:13])[H:12])([H:7])([H:8])[H:9]"
C       -1.86654355      -0.10668214       0.42825526
C       -0.40833595      -0.29926675       0.39443541
C        0.65666403       0.95687300      -0.89141118
C        0.68231656      -0.52656411      -0.56815073
C        1.53926145      -0.44389290       0.70549069
O        0.32965486      -0.45737239       1.48079440
H       -2.38643945      -1.05354599       0.26190320
H       -2.18927085       0.30795113       1.38363916
H       -2.17239069       0.58249960      -0.36178262
H        1.54584199       1.30903611      -1.41199808
H       -0.19490265       1.30775254      -1.47725248
H        0.72724510      -1.34874473      -1.27494030
H        1.49256730       0.98503271       0.31633544
H        2.24433185      -1.21307605       1.01468183
14
Frame=6 idx=001526 GeodesicLength=0.32492425259801644 rxn_smarts="[C:1]([C@:2]12[C:3]([H:10])([H:11])[C@@:4]1([H:12])[C:5]([H:13])([H:14])[O:6]2)([H:7])([H:8])[H:9]>>[C:1]([C:2]1=[O+:6][C-:5]([H:14])[C@@:4]1([C:3]([H:10])([H:11])[H:13])[H:12])([H:7])([H:8])[H:9]"
C       -1.86693459      -0.10589436       0.42881689
C       -0.40659275      -0.28259505       0.39277548
C        0.65072498       0.95627654      -0.89159267
C        0.68693176      -0.52477339      -0.56328527
C        1.54175609      -0.44418975       0.71171157
O        0.32918693      -0.45207084       1.48334869
H       -2.37699959      -1.05406097       0.24211587
H       -2.19695329       0.28640133       1.39121333
H       -2.18127495       0.59786602      -0.34506633
H        1.53517938       1.31538272      -1.41534674
H       -0.19382619       1.29238549      -1.49602624
H        0.72833319      -1.35007152      -1.26585075
H        1.51816554       0.99441273       0.31205311
H        2.23230348      -1.22906895       1.01513308
14
Frame=7 idx=001526 GeodesicLength=0.37916759892931773 rxn_smarts="[C:1]([C@:2]12[C:3]([H:10])([H:11])[C@@:4]1([H:12])[C:5]([H:13])([H:14])[O:6]2)([H:7])([H:8])[H:9]>>[C:1]([C:2]1=[O+:6][C-:5]([H:14])[C@@:4]1([C:3]([H:10])([H:11])[H:13])[H:12])([H:7])([H:8])[H:9]"
C       -1.86722666      -0.10510628       0.42932097
C       -0.40490795      -0.26616247       0.39114898
C        0.64470980       0.95559059      -0.89189429
C        0.69137523      -0.52301124      -0.55838744
C        1.54410894      -0.44440439       0.71797602
O        0.32860807      -0.44674886       1.48594461
H       -2.36759881      -1.05386364       0.22182773
H       -2.20426759       0.26421913       1.39844101
H       -2.19010315       0.61318853      -0.32773176
H        1.52446166       1.32164866      -1.41864784
H       -0.19259411       1.27689068      -1.51427453
H        0.72932283      -1.35146470      -1.25667076
H        1.54401459       1.00358447       0.30718132
H        2.22009714      -1.24436048       1.01576599
14
Frame=8 idx=001526 GeodesicLength=0.4333111033643214 rxn_smarts="[C:1]([C@:2]12[C:3]([H:10])([H:11])[C@@:4]1([H:12])[C:5]([H:13])([H:14])[O:6]2)([H:7])([H:8])[H:9]>>[C:1]([C:2]1=[O+:6][C-:5]([H:14])[C@@:4]1([C:3]([H:10])([H:11])[H:13])[H:12])([H:7])([H:8])[H:9]"
C       -1.86741757      -0.10428084       0.42975629
C       -0.40326021      -0.24991029       0.38954042
C        0.63858013       0.95471779      -0.89230578
C        0.69566617      -0.52125806      -0.55338427
C        1.54634475      -0.44446229       0.72427982
O        0.32795525      -0.44129327       1.48852184
H       -2.35823437      -1.05281398       0.20070050
H       -2.21128838       0.24109087       1.40537689
H       -2.19880256       0.62873287      -0.30953238
H        1.51362070       1.32770281      -1.42187308
H       -0.19126287       1.26111131      -1.53203816
H        0.73025089      -1.35288952      -1.24723137
H        1.57008178       1.01242804       0.30164024
H        2.20776628      -1.25887544       1.01654905
14
Frame=9 idx=001526 GeodesicLength=0.48753270162657303 rxn_smarts="[C:1]([C@:2]12[C:3]([H:10])([H:11])[C@@:4]1([H:12])[C:5]([H:13])([H:14])[O:6]2)([H:7])([H:8])[H:9]>>[C:1]([C:2]1=[O+:6][C-:5]([H:14])[C@@:4]1([C:3]([H:10])([H:11])[H:13])[H:12])([H:7])([H:8])[H:9]"
C       -1.86752907      -0.10344394       0.43013919
C       -0.40167208      -0.23389358       0.38796469
C        0.63236364       0.95373583      -0.89284096
C        0.69980743      -0.51952882      -0.54832569
C        1.54845298      -0.44439984       0.73064946
O        0.32719914      -0.43576987       1.49115534
H       -2.34896039      -1.05094331       0.17895108
H       -2.21797587       0.21718403       1.41194559
H       -2.20741117       0.64429273      -0.29056975
H        1.50270099       1.33368302      -1.42505584
H       -0.18981217       1.24514919      -1.54935340
H        0.73111414      -1.35438247      -1.23765722
H        1.59643271       1.02102274       0.29545660
H        2.19528972      -1.27270569       1.01754091
14
Frame=10 idx=001526 GeodesicLength=0.5417983112288562 rxn_smarts="[C:1]([C@:2]12[C:3]([H:10])([H:11])[C@@:4]1([H:12])[C:5]([H:13])([H:14])[O:6]2)([H:7])([H:8])[H:9]>>[C:1]([C:2]1=[O+:6][C-:5]([H:14])[C@@:4]1([C:3]([H:10])([H:11])[H:13])[H:12])([H:7])([H:8])[H:9]"
C       -1.86756609      -0.10258910       0.43045951
C       -0.40014377      -0.21811751       0.38641051
C        0.62604712       0.95263774      -0.89347025
C        0.70380952      -0.51781091      -0.54320402
C        1.55043679      -0.44421681       0.73708089
O        0.32634324      -0.43018648       1.49382480
H       -2.33978207      -1.04820776       0.15665041
H       -2.22431644       0.19256272       1.41806049
H       -2.21593932       0.65978134      -0.27086631
H        1.49167883       1.33959911      -1.42814910
H       -0.18826743       1.22900237      -1.56620565
H        0.73193143      -1.35591213      -1.22793911
H        1.62307828       1.02932610       0.28862201
H        2.18268990      -1.28586869       1.01872583
14
Frame=11 idx=001526 GeodesicLength=0.5960800258017914 rxn_smarts="[C:1]([C@:2]12[C:3]([H:10])([H:11])[C@@:4]1([H:12])[C:5]([H:13])([H:14])[O:6]2)([H:7])([H:8])[H:9]>>[C:1]([C:2]1=[O+:6][C-:5]([H:14])[C@@:4]1([C:3]([H:10])([H:11])[H:13])[H:12])([H:7])([H:8])[H:9]"
C       -1.86753878      -0.10172394       0.43071180
C       -0.39868245      -0.20262062       0.38484979
C        0.61962119       0.95143885      -0.89415473
C        0.70768279      -0.51609172      -0.53803817
C        1.55229282      -0.44394364       0.74356111
O        0.32537891      -0.42461236       1.49650311
H       -2.33075514      -1.04465736       0.13406562
H       -2.23026234       0.16750459       1.42362200
H       -2.22440530       0.67498022      -0.25061180
H        1.48055187       1.34551167      -1.43106249
H       -0.18662726       1.21273902      -1.58255478
H        0.73272641      -1.35743158      -1.21812706
H        1.65001069       1.03729610       0.28116953
H        2.17000658      -1.29838924       1.02006608
14
Frame=12 idx=001526 GeodesicLength=0.6503845193940813 rxn_smarts="[C:1]([C@:2]12[C:3]([H:10])([H:11])[C@@:4]1([H:12])[C:5]([H:13])([H:14])[O:6]2)([H:7])([H:8])[H:9]>>[C:1]([C:2]1=[O+:6][C-:5]([H:14])[C@@:4]1([C:3]([H:10])([H:11])[H:13])[H:12])([H:7])([H:8])[H:9]"
C       -1.86745976      -0.10085203       0.43089644
C       -0.39729334      -0.18740253       0.38328387
C        0.61308823       0.95014985      -0.89488150
C        0.71143323      -0.51436348      -0.53282956
C        1.55402218      -0.44357987       0.75009488
O        0.32430356      -0.41904988       1.49919611
H       -2.32188936      -1.04029581       0.11126233
H       -2.23582241       0.14206120       1.42859391
H       -2.23282456       0.68982201      -0.22983754
H        1.46931886       1.35145024      -1.43377750
H       -0.18489375       1.19637629      -1.59841791
H        0.73350488      -1.35892933      -1.20823248
H        1.67726524       1.04490993       0.27308929
H        2.15724702      -1.31029658       1.02155965
14
Frame=13 idx=001526 GeodesicLength=0.7047122677666918 rxn_smarts="[C:1]([C@:2]12[C:3]([H:10])([H:11])[C@@:4]1([H:12])[C:5]([H:13])([H:14])[O:6]2)([H:7])([H:8])[H:9]>>[C:1]([C:2]1=[O+:6][C-:5]([H:14])[C@@:4]1([C:3]([H:10])([H:11])[H:13])[H:12])([H:7])([H:8])[H:9]"
C       -1.86733961      -0.09997421       0.43101511
C       -0.39598064      -0.17246064       0.38171141
C        0.60644409       0.94877012      -0.89564567
C        0.71506697      -0.51262260      -0.52757396
C        1.55562589      -0.44311795       0.75668835
O        0.32311582      -0.41349241       1.50190703
H       -2.31320145      -1.03511108       0.08824903
H       -2.24101017       0.11623298       1.43295993
H       -2.24119817       0.70428910      -0.20853592
H        1.45797216       1.35743175      -1.43627716
H       -0.18306699       1.17991590      -1.61381729
H        0.73427626      -1.36040206      -1.19824985
H        1.70486943       1.05214006       0.26435510
H        2.14442641      -1.32159896       1.02321388
14
Frame=14 idx=001526 GeodesicLength=0.7590681014766963 rxn_smarts="[C:1]([C@:2]12[C:3]([H:10])([H:11])[C@@:4]1([H:12])[C:5]([H:13])([H:14])[O:6]2)([H:7])([H:8])[H:9]>>[C:1]([C:2]1=[O+:6][C-:5]([H:14])[C@@:4]1([C:3]([H:10])([H:11])[H:13])[H:12])([H:7])([H:8])[H:9]"
C       -1.86719008      -0.09909167       0.43106965
C       -0.39474909      -0.15779093       0.38013327
C        0.59968503       0.94729889      -0.89644447
C        0.71858976      -0.51086605      -0.52226635
C        1.55710572      -0.44254820       0.76334923
O        0.32181436      -0.40793102       1.50464215
H       -2.30470753      -1.02908468       0.06502451
H       -2.24584247       0.09000649       1.43670299
H       -2.24952854       0.71836962      -0.18668820
H        1.44650497       1.36347191      -1.43854796
H       -0.18114532       1.16335831      -1.62877705
H        0.73504939      -1.36184878      -1.18817229
H        1.73285405       1.05895843       0.25493424
H        2.13155974      -1.33230230       1.02504027
14
Frame=15 idx=001526 GeodesicLength=0.8134543413464161 rxn_smarts="[C:1]([C@:2]12[C:3]([H:10])([H:11])[C@@:4]1([H:12])[C:5]([H:13])([H:14])[O:6]2)([H:7])([H:8])[H:9]>>[C:1]([C:2]1=[O+:6][C-:5]([H:14])[C@@:4]1([C:3]([H:10])([H:11])[H:13])[H:12])([H:7])([H:8])[H:9]"
C       -1.86702016      -0.09820404       0.43106137
C       -0.39360394      -0.14338665       0.37854964
C        0.59280655       0.94573261      -0.89727604
C        0.72200467      -0.50909126      -0.51689958
C        1.55845904      -0.44185359       0.77008580
O        0.32039517      -0.40235238       1.50740555
H       -2.29641517      -1.02218990       0.04156854
H       -2.25032933       0.06335116       1.43980949
H       -2.25781620       0.73206247      -0.16426354
H        1.43490679       1.36958205      -1.44057637
H       -0.17912558       1.14669341      -1.64332109
H        0.73582980      -1.36327195      -1.17798608
H        1.76125045       1.06533134       0.24479504
H        2.11865792      -1.34240328       1.02704727
14
Frame=16 idx=001526 GeodesicLength=0.8678565137494091 rxn_smarts="[C:1]([C@:2]12[C:3]([H:10])([H:11])[C@@:4]1([H:12])[C:5]([H:13])([H:14])[O:6]2)([H:7])([H:8])[H:9]>>[C:1]([C:2]1=[O+:6][C-:5]([H:14])[C@@:4]1([C:3]([H:10])([H:11])[H:13])[H:12])([H:7])([H:8])[H:9]"
C       -1.86684533      -0.09732515       0.43098860
C       -0.39255362      -0.12926490       0.37694871
C        0.58581010       0.94409717      -0.89810664
C        0.72531653      -0.50728321      -0.51149047
C        1.55968426      -0.44105768       0.77688905
O        0.31885063      -0.39680996       1.51018513
H       -2.28835604      -1.01451922       0.01812218
H       -2.25446246       0.03651299       1.44222594
H       -2.26608899       0.74518864      -0.14144745
H        1.42318589       1.37582049      -1.44229046
H       -0.17699106       1.12999446      -1.65743337
H        0.73662797      -1.36463152      -1.16774078
H        1.79007581       1.07121653       0.23394756
H        2.10574630      -1.35193863       1.02920199
