16
Frame=0 idx=008682 GeodesicLength=0.0 rxn_smarts="[C:1]([N:2]([C:3]([C:4](=[O:5])[O:6][C:7]([H:14])([H:15])[H:16])([H:12])[H:13])[H:11])([H:8])([H:9])[H:10]>>[C-:1]([N:2]([C+:3]([H:12])[H:13])[H:11])([H:8])[H:10].[C:4](=[O:5])([O:6][C:7]([H:14])([H:15])[H:16])[H:9]"
C       -2.35569462       0.70675571       0.23488400
N       -1.90523263      -0.51721956       0.37032488
C       -0.61974553      -0.69854619       0.88020137
C        0.27742803       0.07997708      -0.37854661
O        0.29429205      -0.56761457      -1.43521997
O        1.47341446       0.49575082       0.20755279
C        2.64656501       0.11977197      -0.48787820
H       -3.15723607       0.90075428      -0.46290335
H       -0.47498864       1.00662539      -0.34471219
H       -2.11096513       1.43757409       0.99178830
H       -2.17784380      -1.18057974      -0.34222679
H       -0.32620632      -1.74061830       0.95478124
H       -0.44073623      -0.12923720       1.78770480
H        2.67204080       0.55529044      -1.48875634
H        2.72325185      -0.96535120      -0.58810259
H        3.48165673       0.49666701       0.10110871
16
Frame=1 idx=008682 GeodesicLength=0.12881599164866508 rxn_smarts="[C:1]([N:2]([C:3]([C:4](=[O:5])[O:6][C:7]([H:14])([H:15])[H:16])([H:12])[H:13])[H:11])([H:8])([H:9])[H:10]>>[C-:1]([N:2]([C+:3]([H:12])[H:13])[H:11])([H:8])[H:10].[C:4](=[O:5])([O:6][C:7]([H:14])([H:15])[H:16])[H:9]"
C       -2.35106279       0.71314768       0.22624126
N       -1.91254973      -0.51873753       0.37724869
C       -0.63446114      -0.70472373       0.90311992
C        0.28763268       0.06970485      -0.37707141
O        0.29951183      -0.59179245      -1.42270259
O        1.48140761       0.49018080       0.19976443
C        2.65680354       0.12466813      -0.49782503
H       -3.16920471       0.90009199      -0.45420821
H       -0.49800553       1.00733706      -0.36409405
H       -2.11342625       1.44987037       0.98056112
H       -2.15847593      -1.17176809      -0.35518683
H       -0.34445198      -1.74716466       0.98493491
H       -0.46305126      -0.13380033       1.81102126
H        2.69174146       0.59713940      -1.48136307
H        2.73656816      -0.95512131      -0.64124164
H        3.49102403       0.47096782       0.11080125
16
Frame=2 idx=008682 GeodesicLength=0.2576056510808685 rxn_smarts="[C:1]([N:2]([C:3]([C:4](=[O:5])[O:6][C:7]([H:14])([H:15])[H:16])([H:12])[H:13])[H:11])([H:8])([H:9])[H:10]>>[C-:1]([N:2]([C+:3]([H:12])[H:13])[H:11])([H:8])[H:10].[C:4](=[O:5])([O:6][C:7]([H:14])([H:15])[H:16])[H:9]"
C       -2.34665035       0.71910948       0.21741558
N       -1.91976776      -0.52031882       0.38366148
C       -0.64970097      -0.71059348       0.92645482
C        0.29832925       0.05939361      -0.37533065
O        0.30505097      -0.61588346      -1.40965735
O        1.48992321       0.48426963       0.19226999
C        2.66723272       0.12952960      -0.50806343
H       -3.18079352       0.89945361      -0.44542712
H       -0.52148257       1.00810770      -0.38471571
H       -2.11577565       1.46197976       0.96870407
H       -2.13863063      -1.16353996      -0.36671369
H       -0.36304794      -1.75329655       1.01546773
H       -0.48678217      -0.13811386       1.83488065
H        2.71197067       0.63997243      -1.47189333
H        2.74959780      -0.94288769      -0.69643535
H        3.50052693       0.44281801       0.11938229
16
Frame=3 idx=008682 GeodesicLength=0.38635354743614947 rxn_smarts="[C:1]([N:2]([C:3]([C:4](=[O:5])[O:6][C:7]([H:14])([H:15])[H:16])([H:12])[H:13])[H:11])([H:8])([H:9])[H:10]>>[C-:1]([N:2]([C+:3]([H:12])[H:13])[H:11])([H:8])[H:10].[C:4](=[O:5])([O:6][C:7]([H:14])([H:15])[H:16])[H:9]"
C       -2.34244579       0.72464424       0.20844437
N       -1.92686941      -0.52197532       0.38962832
C       -0.66548539      -0.71615934       0.95024617
C        0.30954078       0.04901025      -0.37328328
O        0.31093510      -0.63994302      -1.39602121
O        1.49898004       0.47804006       0.18508357
C        2.67784646       0.13439442      -0.51861316
H       -3.19194539       0.89884056      -0.43661522
H       -0.54549858       1.00886154      -0.40672096
H       -2.11792712       1.47392326       0.95620879
H       -2.11830214      -1.15589165      -0.37686336
H       -0.38200921      -1.75901853       1.04641750
H       -0.51198639      -0.14219300       1.85931149
H        2.73280614       0.68373939      -1.46013073
H        2.76221433      -0.92835671      -0.75371198
H        3.51014657       0.41208386       0.12661969
16
Frame=4 idx=008682 GeodesicLength=0.5150522748572088 rxn_smarts="[C:1]([N:2]([C:3]([C:4](=[O:5])[O:6][C:7]([H:14])([H:15])[H:16])([H:12])[H:13])[H:11])([H:8])([H:9])[H:10]>>[C-:1]([N:2]([C+:3]([H:12])[H:13])[H:11])([H:8])[H:10].[C:4](=[O:5])([O:6][C:7]([H:14])([H:15])[H:16])[H:9]"
C       -2.33844110       0.72975683       0.19935829
N       -1.93383708      -0.52371915       0.39520474
C       -0.68183094      -0.72142114       0.97452888
C        0.32129394       0.03853392      -0.37088862
O        0.31719931      -0.66401681      -1.38173293
O        1.50860453       0.47153326       0.17821761
C        2.68864626       0.13929784      -0.52948931
H       -3.20264980       0.89824460      -0.42779833
H       -0.57014712       1.00951450      -0.43027354
H       -2.11979590       1.48572580       0.94306384
H       -2.09747586      -1.14882005      -0.38568509
H       -0.40133706      -1.76433239       1.07781326
H       -0.53872302      -0.14604986       1.88433903
H        2.75435852       0.72835064      -1.44584052
H        2.77426841      -0.91121732      -0.81307264
H        3.51986692       0.37861933       0.13225534
16
Frame=5 idx=008682 GeodesicLength=0.6437036521826811 rxn_smarts="[C:1]([N:2]([C:3]([C:4](=[O:5])[O:6][C:7]([H:14])([H:15])[H:16])([H:12])[H:13])[H:11])([H:8])([H:9])[H:10]>>[C-:1]([N:2]([C+:3]([H:12])[H:13])[H:11])([H:8])[H:10].[C:4](=[O:5])([O:6][C:7]([H:14])([H:15])[H:16])[H:9]"
C       -2.33457647       0.73446138       0.19014204
N       -1.94064794      -0.52554519       0.40044670
C       -0.69878317      -0.72637618       0.99936221
C        0.33363135       0.02789218      -0.36807907
O        0.32390802      -0.68820695      -1.36668286
O        1.51882397       0.46470880       0.17172124
C        2.69961578       0.14430350      -0.54073012
H       -3.21285998       0.89766035      -0.41900361
H       -0.59549445       1.00993610      -0.45555778
H       -2.12124534       1.49742145       0.92918956
H       -2.07613416      -1.14232575      -0.39317619
H       -0.42109360      -1.76923310       1.10973875
H       -0.56709539      -0.14968697       1.90999315
H        2.77670770       0.77382143      -1.42871616
H        2.78561711      -0.89104508      -0.87464650
H        3.52962657       0.34221404       0.13599862
16
Frame=6 idx=008682 GeodesicLength=0.7723000528350393 rxn_smarts="[C:1]([N:2]([C:3]([C:4](=[O:5])[O:6][C:7]([H:14])([H:15])[H:16])([H:12])[H:13])[H:11])([H:8])([H:9])[H:10]>>[C-:1]([N:2]([C+:3]([H:12])[H:13])[H:11])([H:8])[H:10].[C:4](=[O:5])([O:6][C:7]([H:14])([H:15])[H:16])[H:9]"
C       -2.33084773       0.73875212       0.18081916
N       -1.94727499      -0.52747326       0.40539344
C       -0.71634795      -0.73101606       1.02476833
C        0.34658808       0.01710694      -0.36480642
O        0.33111831      -0.71251263      -1.35080626
O        1.52967720       0.45767138       0.16560311
C        2.71076246       0.14944422      -0.55233504
H       -3.22261976       0.89706500      -0.41020131
H       -0.62167842       1.01001367      -0.48278850
H       -2.12218554       1.50902755       0.91456669
H       -2.05423712      -1.13640625      -0.39938039
H       -0.44124330      -1.77371164       1.14219772
H       -0.59717174      -0.15311726       1.93628837
H        2.80004083       0.81993654      -1.40848473
H        2.79601626      -0.86747645      -0.93832681
H        3.53940343       0.30269613       0.13749263
16
Frame=7 idx=008682 GeodesicLength=0.9008032053023495 rxn_smarts="[C:1]([N:2]([C:3]([C:4](=[O:5])[O:6][C:7]([H:14])([H:15])[H:16])([H:12])[H:13])[H:11])([H:8])([H:9])[H:10]>>[C-:1]([N:2]([C+:3]([H:12])[H:13])[H:11])([H:8])[H:10].[C:4](=[O:5])([O:6][C:7]([H:14])([H:15])[H:16])[H:9]"
C       -2.32719040       0.74263540       0.17137102
N       -1.95368884      -0.52950851       0.41008326
C       -0.73457037      -0.73534100       1.05079544
C        0.36021657       0.00614563      -0.36098186
O        0.33892103      -0.73699205      -1.33397763
O        1.54120567       0.45044062       0.15992210
C        2.72207119       0.15479070      -0.56432534
H       -3.23190948       0.89646688      -0.40137006
H       -0.64879811       1.00954884      -0.51220552
H       -2.12245153       1.52056828       0.89910886
H       -2.03173883      -1.13104887      -0.40430607
H       -0.46182752      -1.77776546       1.17524804
H       -0.62907759      -0.15636258       1.96324812
H        2.82450199       0.86655106      -1.38481538
H        2.80521341      -0.84001697      -1.00408597
H        3.54912283       0.25988801       0.13629100
16
Frame=8 idx=008682 GeodesicLength=1.0292199269980578 rxn_smarts="[C:1]([N:2]([C:3]([C:4](=[O:5])[O:6][C:7]([H:14])([H:15])[H:16])([H:12])[H:13])[H:11])([H:8])([H:9])[H:10]>>[C-:1]([N:2]([C+:3]([H:12])[H:13])[H:11])([H:8])[H:10].[C:4](=[O:5])([O:6][C:7]([H:14])([H:15])[H:16])[H:9]"
C       -2.32356129       0.74610666       0.16177638
N       -1.95986079      -0.53166455       0.41454807
C       -0.75348627      -0.73933777       1.07748160
C        0.37457084      -0.00497905      -0.35652243
O        0.34741398      -0.76165239      -1.31609052
O        1.55346390       0.44309671       0.15472057
C        2.73354625       0.16039909      -0.57671252
H       -3.24076734       0.89584546      -0.39243469
H       -0.67699702       1.00834628      -0.54406705
H       -2.12189855       1.53206676       0.88272855
H       -2.00858161      -1.12626380      -0.40795471
H       -0.48284910      -1.78137725       1.20892546
H       -0.66294314      -0.15942920       1.99088494
H        2.85034386       0.91341542      -1.35736358
H        2.81291170      -0.80816097      -1.07182390
H        3.55869460       0.21358862       0.13190383
16
Frame=9 idx=008682 GeodesicLength=1.1575667788986643 rxn_smarts="[C:1]([N:2]([C:3]([C:4](=[O:5])[O:6][C:7]([H:14])([H:15])[H:16])([H:12])[H:13])[H:11])([H:8])([H:9])[H:10]>>[C-:1]([N:2]([C+:3]([H:12])[H:13])[H:11])([H:8])[H:10].[C:4](=[O:5])([O:6][C:7]([H:14])([H:15])[H:16])[H:9]"
C       -2.31983877       0.74917804       0.15195036
N       -1.96573838      -0.53392919       0.41881141
C       -0.77314649      -0.74299619       1.10489147
C        0.38972687      -0.01633481      -0.35129441
O        0.35673564      -0.78658977      -1.29695821
O        1.56650535       0.43560250       0.15011192
C        2.74514218       0.16637579      -0.58952485
H       -3.24914328       0.89524408      -0.38334416
H       -0.70642129       1.00610275      -0.57865599
H       -2.12027843       1.54354867       0.86523649
H       -1.98469532      -1.12204751      -0.41029432
H       -0.50435897      -1.78452983       1.24332931
H       -0.69892158      -0.16232065       2.01921194
H        2.87769291       0.96033945      -1.32567786
H        2.81878816      -0.77118546      -1.14151445
H        3.56795140       0.16354214       0.12372136
16
Frame=10 idx=008682 GeodesicLength=1.2858158198639194 rxn_smarts="[C:1]([N:2]([C:3]([C:4](=[O:5])[O:6][C:7]([H:14])([H:15])[H:16])([H:12])[H:13])[H:11])([H:8])([H:9])[H:10]>>[C-:1]([N:2]([C+:3]([H:12])[H:13])[H:11])([H:8])[H:10].[C:4](=[O:5])([O:6][C:7]([H:14])([H:15])[H:16])[H:9]"
C       -2.31600272       0.75180773       0.14189810
N       -1.97127575      -0.53635000       0.42288564
C       -0.79356941      -0.74630401       1.13302274
C        0.40573844      -0.02775876      -0.34520857
O        0.36698832      -0.81159674      -1.27652790
O        1.58039869       0.42822903       0.14610024
C        2.75687647       0.17274850      -0.60273554
H       -3.25709719       0.89461791      -0.37395989
H       -0.73729121       1.00260202      -0.61623231
H       -2.11746670       1.55498432       0.84659143
H       -1.95997492      -1.11841774      -0.41134484
H       -0.52627372      -1.78719905       1.27839860
H       -0.73716522      -0.16508364       2.04820920
H        2.90701524       1.00666791      -1.28953716
H        2.82238102      -0.72865467      -1.21262516
H        3.57671865       0.10970719       0.11106542
16
Frame=11 idx=008682 GeodesicLength=1.4139444265662084 rxn_smarts="[C:1]([N:2]([C:3]([C:4](=[O:5])[O:6][C:7]([H:14])([H:15])[H:16])([H:12])[H:13])[H:11])([H:8])([H:9])[H:10]>>[C-:1]([N:2]([C+:3]([H:12])[H:13])[H:11])([H:8])[H:10].[C:4](=[O:5])([O:6][C:7]([H:14])([H:15])[H:16])[H:9]"
C       -2.31198182       0.75395488       0.13158841
N       -1.97639309      -0.53895959       0.42677549
C       -0.81476087      -0.74924616       1.16186796
C        0.42266308      -0.03909011      -0.33816956
O        0.37828932      -0.83644913      -1.25473865
O        1.59518697       0.42123924       0.14269280
C        2.76872966       0.17956080      -0.61630920
H       -3.26464414       0.89395312      -0.36409660
H       -0.76988706       0.99754531      -0.65705830
H       -2.11326938       1.56632023       0.82668279
H       -1.93429031      -1.11536853      -0.41110027
H       -0.54849341      -1.78934676       1.31408114
H       -0.77782245      -0.16777699       2.07782976
H        2.93876579       1.05166610      -1.24874099
H        2.82324106      -0.68006266      -1.28454554
H        3.58466665       0.05206026       0.09324076
16
Frame=12 idx=008682 GeodesicLength=1.542011653086035 rxn_smarts="[C:1]([N:2]([C:3]([C:4](=[O:5])[O:6][C:7]([H:14])([H:15])[H:16])([H:12])[H:13])[H:11])([H:8])([H:9])[H:10]>>[C-:1]([N:2]([C+:3]([H:12])[H:13])[H:11])([H:8])[H:10].[C:4](=[O:5])([O:6][C:7]([H:14])([H:15])[H:16])[H:9]"
C       -2.30773124       0.75559120       0.12099715
N       -1.98105013      -0.54180545       0.43047748
C       -0.83676886      -0.75183645       1.19141783
C        0.44057406      -0.05013940      -0.33005445
O        0.39075981      -0.86085608      -1.23156963
O        1.61095461       0.41492687       0.13991277
C        2.78074571       0.18684670      -0.63021550
H       -3.27182075       0.89327400      -0.35354301
H       -0.80452033       0.99062052      -0.70134721
H       -2.10751463       1.57751689       0.80542678
H       -1.90753089      -1.11290893      -0.40956458
H       -0.57094455      -1.79098041       1.35030145
H       -0.82111057      -0.17049636       2.10802757
H        2.97348343       1.09443965      -1.20327371
H        2.82100567      -0.62502574      -1.35648301
H        3.59146866      -0.00916700       0.06949006
16
Frame=13 idx=008682 GeodesicLength=1.669950854396663 rxn_smarts="[C:1]([N:2]([C:3]([C:4](=[O:5])[O:6][C:7]([H:14])([H:15])[H:16])([H:12])[H:13])[H:11])([H:8])([H:9])[H:10]>>[C-:1]([N:2]([C+:3]([H:12])[H:13])[H:11])([H:8])[H:10].[C:4](=[O:5])([O:6][C:7]([H:14])([H:15])[H:16])[H:9]"
C       -2.30299581       0.75671546       0.10999041
N       -1.98512872      -0.54486405       0.43394971
C       -0.85965254      -0.75410577       1.22169274
C        0.45958409      -0.06089784      -0.32060738
O        0.40454511      -0.88464401      -1.20686962
O        1.62778217       0.40926612       0.13798957
C        2.79279969       0.19474153      -0.64442209
H       -3.27836288       0.89275005      -0.34224904
H       -0.84142554       0.98133360      -0.74925672
H       -2.09976855       1.58849662       0.78258428
H       -1.87955271      -1.11095881      -0.40672746
H       -0.59365041      -1.79209535       1.38706894
H       -0.86723509      -0.17338356       2.13873913
H        3.01116976       1.13416974      -1.15313764
H        2.81525229      -0.56291904      -1.42762121
H        3.59663913      -0.07360471       0.03887638
16
Frame=14 idx=008682 GeodesicLength=1.7978673081725074 rxn_smarts="[C:1]([N:2]([C:3]([C:4](=[O:5])[O:6][C:7]([H:14])([H:15])[H:16])([H:12])[H:13])[H:11])([H:8])([H:9])[H:10]>>[C-:1]([N:2]([C+:3]([H:12])[H:13])[H:11])([H:8])[H:10].[C:4](=[O:5])([O:6][C:7]([H:14])([H:15])[H:16])[H:9]"
C       -2.29791445       0.75726406       0.09876015
N       -1.98859047      -0.54826604       0.43714520
C       -0.88338075      -0.75614986       1.25247790
C        0.47969859      -0.07072462      -0.30988903
O        0.41960231      -0.90680442      -1.18111491
O        1.64567895       0.40519631       0.13660963
C        2.80508934       0.20307894      -0.65876278
H       -3.28449828       0.89235247      -0.32968195
H       -0.88122691       0.96966672      -0.80074740
H       -2.09011754       1.59908432       0.75845821
H       -1.85023330      -1.10946811      -0.40272176
H       -0.61625194      -1.79278567       1.42387449
H       -0.91634720      -0.17677585       2.16978061
H        3.05272893       1.16905747      -1.09958605
H        2.80605914      -0.49475760      -1.49591863
H        3.59970358      -0.13996811       0.00131631
16
Frame=15 idx=008682 GeodesicLength=1.9257742841156498 rxn_smarts="[C:1]([N:2]([C:3]([C:4](=[O:5])[O:6][C:7]([H:14])([H:15])[H:16])([H:12])[H:13])[H:11])([H:8])([H:9])[H:10]>>[C-:1]([N:2]([C+:3]([H:12])[H:13])[H:11])([H:8])[H:10].[C:4](=[O:5])([O:6][C:7]([H:14])([H:15])[H:16])[H:9]"
C       -2.29240554       0.75723584       0.08733314
N       -1.99136289      -0.55203949       0.44001356
C       -0.90798290      -0.75807800       1.28364943
C        0.50097586      -0.07931394      -0.29779178
O        0.43587902      -0.92665310      -1.15458371
O        1.66467885       0.40310243       0.13572895
C        2.81766921       0.21181653      -0.67311279
H       -3.29014162       0.89224533      -0.31550733
H       -0.92446354       0.95533659      -0.85573583
H       -2.07832997       1.60914688       0.73306471
H       -1.81946956      -1.10830607      -0.39759368
H       -0.63858652      -1.79313130       1.46044668
H       -0.96862142      -0.18100504       2.20096336
H        3.09835336       1.19789913      -1.04372778
H        2.79365127      -0.42120625      -1.55991624
H        3.60015638      -0.20704955      -0.04323068
16
Frame=16 idx=008682 GeodesicLength=2.0536758998778915 rxn_smarts="[C:1]([N:2]([C:3]([C:4](=[O:5])[O:6][C:7]([H:14])([H:15])[H:16])([H:12])[H:13])[H:11])([H:8])([H:9])[H:10]>>[C-:1]([N:2]([C+:3]([H:12])[H:13])[H:11])([H:8])[H:10].[C:4](=[O:5])([O:6][C:7]([H:14])([H:15])[H:16])[H:9]"
C       -2.28638563       0.75662938       0.07571490
N       -1.99338539      -0.55620002       0.44250696
C       -0.93350085      -0.75999629       1.31508239
C        0.52347825      -0.08639636      -0.28419591
O        0.45322256      -0.94346753      -1.12763829
O        1.68483441       0.40329057       0.13529697
C        2.83061273       0.22085175      -0.68734909
H       -3.29517417       0.89260952      -0.29938227
H       -0.97175817       0.93804275      -0.91404597
H       -2.06416415       1.61853018       0.70640268
H       -1.78718057      -1.10733556      -0.39135980
H       -0.66049841      -1.79318657       1.49655196
H       -1.02422214      -0.18638784       2.23204684
H        3.14814680       1.21966765      -0.98679709
H        2.77844189      -0.34310641      -1.61839849
H        3.59753283      -0.27354521      -0.09443580
