17
Frame=0 idx=008386 GeodesicLength=0.0 rxn_smarts="[C:1]([C:2]12[C:3]([H:11])([H:12])[C:4]([H:13])([C:5]1([H:14])[H:15])[C:6]([H:16])=[C:7]2[H:17])([H:8])([H:9])[H:10]>>[C:1]([C:5]([C@@:4]1([H:13])[C:3]([H:11])([H:12])[C-:2]=[C:7]([H:17])[C+:6]1[H:16])([H:14])[H:15])([H:8])([H:9])[H:10]"
C        1.75652127      -0.21040328      -0.33833607
C        0.56874018       0.28528209       0.96141423
C       -0.55037472      -0.74804935       1.15612817
C       -1.27909948      -0.34467484      -0.11436370
C       -0.03356332      -0.54072644      -0.99621585
C       -1.37585574       1.15593906       0.05470532
C       -0.21331871       1.51618133       0.59916690
H        1.89474764      -0.49182140      -1.40274843
H        2.28636915       0.73858225      -0.27821876
H        2.27322760      -0.97992223       0.22737504
H       -1.08879294      -0.54452449       2.08369364
H       -0.19120293      -1.77988591       1.15819991
H       -2.18408772      -0.85963941      -0.46024017
H        0.02079220       0.09022042      -1.88079084
H        0.15903545      -1.58557571      -1.24014788
H       -2.19322495       1.77588008      -0.29312851
H        0.15008706       2.52313789       0.76350699
17
Frame=1 idx=008386 GeodesicLength=0.05174473370292525 rxn_smarts="[C:1]([C:2]12[C:3]([H:11])([H:12])[C:4]([H:13])([C:5]1([H:14])[H:15])[C:6]([H:16])=[C:7]2[H:17])([H:8])([H:9])[H:10]>>[C:1]([C:5]([C@@:4]1([H:13])[C:3]([H:11])([H:12])[C-:2]=[C:7]([H:17])[C+:6]1[H:16])([H:14])[H:15])([H:8])([H:9])[H:10]"
C        1.76138961      -0.20888903      -0.34609554
C        0.56244008       0.28741185       0.96516786
C       -0.55229574      -0.74791064       1.16026615
C       -1.27807265      -0.34366188      -0.11346950
C       -0.03265248      -0.54225258      -0.99546526
C       -1.37514142       1.15678963       0.05418665
C       -0.21869674       1.51944275       0.61061207
H        1.91438941      -0.48063425      -1.41005045
H        2.29420750       0.73821854      -0.27732817
H        2.26735273      -0.98677655       0.21846569
H       -1.09353028      -0.55109385       2.08763103
H       -0.18670237      -1.77755465       1.16252239
H       -2.18464894      -0.85771483      -0.45471120
H        0.00884435       0.07967749      -1.88754175
H        0.15164785      -1.58949401      -1.23692055
H       -2.18377997       1.77816887      -0.31116011
H        0.14524905       2.52627314       0.77389066
17
Frame=2 idx=008386 GeodesicLength=0.10349615250424607 rxn_smarts="[C:1]([C:2]12[C:3]([H:11])([H:12])[C:4]([H:13])([C:5]1([H:14])[H:15])[C:6]([H:16])=[C:7]2[H:17])([H:8])([H:9])[H:10]>>[C:1]([C:5]([C@@:4]1([H:13])[C:3]([H:11])([H:12])[C-:2]=[C:7]([H:17])[C+:6]1[H:16])([H:14])[H:15])([H:8])([H:9])[H:10]"
C        1.76627650      -0.20732170      -0.35406591
C        0.55604720       0.28958259       0.96895248
C       -0.55427766      -0.74775946       1.16438675
C       -1.27707140      -0.34261732      -0.11260311
C       -0.03175164      -0.54382447      -0.99472991
C       -1.37436847       1.15769002       0.05356339
C       -0.22422232       1.52268645       0.62210893
H        1.93450197      -0.46927372      -1.41722465
H        2.30209646       0.73778789      -0.27638055
H        2.26140114      -0.99346622       0.20926382
H       -1.09834271      -0.55771135       2.09149883
H       -0.18220402      -1.77514614       1.16685846
H       -2.18525037      -0.85568725      -0.44921508
H       -0.00323173       0.06870617      -1.89424654
H        0.14410010      -1.59345818      -1.23354054
H       -2.17401533       1.78043617      -0.32895140
H        0.14031226       2.52937654       0.78432503
17
Frame=3 idx=008386 GeodesicLength=0.15525413104787814 rxn_smarts="[C:1]([C:2]12[C:3]([H:11])([H:12])[C:4]([H:13])([C:5]1([H:14])[H:15])[C:6]([H:16])=[C:7]2[H:17])([H:8])([H:9])[H:10]>>[C:1]([C:5]([C@@:4]1([H:13])[C:3]([H:11])([H:12])[C-:2]=[C:7]([H:17])[C+:6]1[H:16])([H:14])[H:15])([H:8])([H:9])[H:10]"
C        1.77118077      -0.20570228      -0.36226041
C        0.54956104       0.29179664       0.97276441
C       -0.55631865      -0.74759547       1.16848690
C       -1.27609704      -0.34153950      -0.11176523
C       -0.03086515      -0.54543995      -0.99401423
C       -1.37353572       1.15864136       0.05283742
C       -0.22989915       1.52591302       0.63365427
H        1.95510872      -0.45777175      -1.42425149
H        2.31003139       0.73728291      -0.27538543
H        2.25537647      -0.99997870       0.19977155
H       -1.10322541      -0.56437939       2.09529480
H       -0.17770461      -1.77265806       1.17120349
H       -2.18589427      -0.85355349      -0.44375134
H       -0.01543718       0.05730929      -1.90089633
H        0.13639379      -1.59746067      -1.23001071
H       -2.16394612       1.78268758      -0.34649065
H        0.13527110       2.53244847       0.79481300
17
Frame=4 idx=008386 GeodesicLength=0.20702054889514282 rxn_smarts="[C:1]([C:2]12[C:3]([H:11])([H:12])[C:4]([H:13])([C:5]1([H:14])[H:15])[C:6]([H:16])=[C:7]2[H:17])([H:8])([H:9])[H:10]>>[C:1]([C:5]([C@@:4]1([H:13])[C:3]([H:11])([H:12])[C-:2]=[C:7]([H:17])[C+:6]1[H:16])([H:14])[H:15])([H:8])([H:9])[H:10]"
C        1.77610080      -0.20403125      -0.37069339
C        0.54298111       0.29405661       0.97659985
C       -0.55841614      -0.74741866       1.17256359
C       -1.27515150      -0.34042659      -0.11095563
C       -0.02999855      -0.54709500      -0.99332303
C       -1.37264366       1.15964483       0.05201328
C       -0.23573157       1.52912311       0.64524584
H        1.97623792      -0.44616494      -1.43110876
H        2.31800600       0.73669657      -0.27435448
H        2.24928198      -1.00630059       0.18998984
H       -1.10817193      -0.57110166       2.09901725
H       -0.17319975      -1.77008814       1.17555192
H       -2.18658335      -0.85131070      -0.43831796
H       -0.02777618       0.04549045      -1.90748060
H        0.12853050      -1.60149241      -1.22633449
H       -2.15358378       1.78492947      -0.36377334
H        0.13011810       2.53548889       0.80536014
17
Frame=5 idx=008386 GeodesicLength=0.2587940173765375 rxn_smarts="[C:1]([C:2]12[C:3]([H:11])([H:12])[C:4]([H:13])([C:5]1([H:14])[H:15])[C:6]([H:16])=[C:7]2[H:17])([H:8])([H:9])[H:10]>>[C:1]([C:5]([C@@:4]1([H:13])[C:3]([H:11])([H:12])[C-:2]=[C:7]([H:17])[C+:6]1[H:16])([H:14])[H:15])([H:8])([H:9])[H:10]"
C        1.78103534      -0.20231008      -0.37937955
C        0.53630758       0.29636512       0.98045488
C       -0.56056695      -0.74722878       1.17661431
C       -1.27423624      -0.33927704      -0.11017380
C       -0.02915709      -0.54878692      -0.99266088
C       -1.37169208       1.16070120       0.05109551
C       -0.24172329       1.53231729       0.65688010
H        1.99791514      -0.43448613      -1.43777860
H        2.32601406       0.73602003      -0.27329956
H        2.24312013      -1.01242078       0.17992299
H       -1.11317506      -0.57788099       2.10266516
H       -0.16868500      -1.76743385       1.17989895
H       -2.18731991      -0.84895630      -0.43291276
H       -0.04025224       0.03325536      -1.91398890
H        0.12051273      -1.60554494      -1.22251506
H       -2.14294163       1.78716813      -0.38079795
H        0.12484450       2.53849867       0.81597516
17
Frame=6 idx=008386 GeodesicLength=0.3105742718700923 rxn_smarts="[C:1]([C:2]12[C:3]([H:11])([H:12])[C:4]([H:13])([C:5]1([H:14])[H:15])[C:6]([H:16])=[C:7]2[H:17])([H:8])([H:9])[H:10]>>[C:1]([C:5]([C@@:4]1([H:13])[C:3]([H:11])([H:12])[C-:2]=[C:7]([H:17])[C+:6]1[H:16])([H:14])[H:15])([H:8])([H:9])[H:10]"
C        1.78598277      -0.20053965      -0.38833551
C        0.52954024       0.29872556       0.98432494
C       -0.56276760      -0.74702542       1.18063603
C       -1.27335314      -0.33808929      -0.10941945
C       -0.02834663      -0.55051185      -0.99203296
C       -1.37068247       1.16181142       0.05008885
C       -0.24787904       1.53549635       0.66855310
H        2.02016895      -0.42277676      -1.44423817
H        2.33404814       0.73524620      -0.27223386
H        2.23689390      -1.01832531       0.16957394
H       -1.11822699      -0.58472061       2.10623695
H       -0.16415499      -1.76469242       1.18423891
H       -2.18810642      -0.84648825      -0.42753325
H       -0.05287055       0.02061019      -1.92041056
H        0.11234305      -1.60960881      -1.21855631
H       -2.13202788       1.78940999      -0.39756136
H        0.11943865       2.54147866       0.82666872
17
Frame=7 idx=008386 GeodesicLength=0.36236468004735545 rxn_smarts="[C:1]([C:2]12[C:3]([H:11])([H:12])[C:4]([H:13])([C:5]1([H:14])[H:15])[C:6]([H:16])=[C:7]2[H:17])([H:8])([H:9])[H:10]>>[C:1]([C:5]([C@@:4]1([H:13])[C:3]([H:11])([H:12])[C-:2]=[C:7]([H:17])[C+:6]1[H:16])([H:14])[H:15])([H:8])([H:9])[H:10]"
C        1.79094159      -0.19872183      -0.39758087
C        0.52267930       0.30114205       0.98820335
C       -0.56501405      -0.74680730       1.18462429
C       -1.27250478      -0.33686096      -0.10869300
C       -0.02757402      -0.55226455      -0.99144640
C       -1.36961721       1.16297719       0.04899736
C       -0.25420243       1.53866179       0.68025899
H        2.04303640      -0.41108293      -1.45045550
H        2.34210133       0.73436633      -0.27117126
H        2.23060520      -1.02400021       0.15894536
H       -1.12331851      -0.59162267       2.10973026
H       -0.15960399      -1.76186015       1.18856417
H       -2.18894578      -0.84390420      -0.42217704
H       -0.06563659       0.00756191      -1.92673449
H        0.10402387      -1.61367444      -1.21446320
H       -2.12085896       1.79165906      -0.41405229
H        0.11388864       2.54443091       0.83745028
17
Frame=8 idx=008386 GeodesicLength=0.4141645141203004 rxn_smarts="[C:1]([C:2]12[C:3]([H:11])([H:12])[C:4]([H:13])([C:5]1([H:14])[H:15])[C:6]([H:16])=[C:7]2[H:17])([H:8])([H:9])[H:10]>>[C:1]([C:5]([C@@:4]1([H:13])[C:3]([H:11])([H:12])[C-:2]=[C:7]([H:17])[C+:6]1[H:16])([H:14])[H:15])([H:8])([H:9])[H:10]"
C        1.79590964      -0.19685701      -0.40713448
C        0.51572522       0.30361817       0.99208539
C       -0.56730133      -0.74657441       1.18857685
C       -1.27169337      -0.33559080      -0.10799261
C       -0.02684648      -0.55404042      -0.99090611
C       -1.36849937       1.16419887       0.04782917
C       -0.26069894       1.54181426       0.69199410
H        2.06655046      -0.39944950      -1.45640514
H        2.35016325       0.73337267      -0.27012806
H        2.22425562      -1.02943275       0.14804006
H       -1.12843882      -0.59859164       2.11314506
H       -0.15502500      -1.75893425       1.19286900
H       -2.18984070      -0.84120299      -0.41683930
H       -0.07855739      -0.00587809      -1.93294925
H        0.09555826      -1.61773157      -1.21024063
H       -2.10944066       1.79392299      -0.43027868
H        0.10817961       2.54735647       0.84833464
17
Frame=9 idx=008386 GeodesicLength=0.4659708364043725 rxn_smarts="[C:1]([C:2]12[C:3]([H:11])([H:12])[C:4]([H:13])([C:5]1([H:14])[H:15])[C:6]([H:16])=[C:7]2[H:17])([H:8])([H:9])[H:10]>>[C:1]([C:5]([C@@:4]1([H:13])[C:3]([H:11])([H:12])[C-:2]=[C:7]([H:17])[C+:6]1[H:16])([H:14])[H:15])([H:8])([H:9])[H:10]"
C        1.80088672      -0.19494977      -0.41701609
C        0.50867877       0.30615807       0.99596471
C       -0.56962536      -0.74632460       1.19248983
C       -1.27092053      -0.33427671      -0.10731920
C       -0.02616965      -0.55583573      -0.99041904
C       -1.36733124       1.16547789       0.04658668
C       -0.26737092       1.54495482       0.70375102
H        2.09074206      -0.38791062      -1.46206428
H        2.35822687       0.73225305      -0.26911492
H        2.21784443      -1.03461384       0.13686583
H       -1.13357887      -0.60562787       2.11647904
H       -0.15041318      -1.75591032       1.19714717
H       -2.19079236      -0.83838333      -0.41151848
H       -0.09163674      -0.01970189      -1.93904307
H        0.08695091      -1.62177112      -1.20589206
H       -2.09779070       1.79620305      -0.44622651
H        0.10229979       2.55025893       0.85932938
17
Frame=10 idx=008386 GeodesicLength=0.5177900476737398 rxn_smarts="[C:1]([C:2]12[C:3]([H:11])([H:12])[C:4]([H:13])([C:5]1([H:14])[H:15])[C:6]([H:16])=[C:7]2[H:17])([H:8])([H:9])[H:10]>>[C:1]([C:5]([C@@:4]1([H:13])[C:3]([H:11])([H:12])[C-:2]=[C:7]([H:17])[C+:6]1[H:16])([H:14])[H:15])([H:8])([H:9])[H:10]"
C        1.80587074      -0.19300027      -0.42725286
C        0.50154122       0.30876660       0.99983316
C       -0.57197905      -0.74605733       1.19635927
C       -1.27018966      -0.33291712      -0.10667107
C       -0.02555290      -0.55764324      -0.98999260
C       -1.36611870       1.16681498       0.04527876
C       -0.27422358       1.54808502       0.71552351
H        2.11565668      -0.37652422      -1.46738620
H        2.36627983       0.73100036      -0.26814988
H        2.21137083      -1.03952847       0.12542329
H       -1.13872397      -0.61273568       2.11973161
H       -0.14575887      -1.75278458       1.20138991
H       -2.19180450      -0.83544494      -0.40620833
H       -0.10488518      -0.03389492      -1.94500506
H        0.07820381      -1.62578185      -1.20142545
H       -2.08591747       1.79850610      -0.46189749
H        0.09623078       2.55313956       0.87044942
17
Frame=11 idx=008386 GeodesicLength=0.5696198108316519 rxn_smarts="[C:1]([C:2]12[C:3]([H:11])([H:12])[C:4]([H:13])([C:5]1([H:14])[H:15])[C:6]([H:16])=[C:7]2[H:17])([H:8])([H:9])[H:10]>>[C:1]([C:5]([C@@:4]1([H:13])[C:3]([H:11])([H:12])[C-:2]=[C:7]([H:17])[C+:6]1[H:16])([H:14])[H:15])([H:8])([H:9])[H:10]"
C        1.81086112      -0.19101058      -0.43786794
C        0.49431339       0.31144926       1.00368393
C       -0.57435644      -0.74577064       1.20018124
C       -1.26950267      -0.33151023      -0.10604841
C       -0.02500245      -0.55945772      -0.98963351
C       -1.36486595       1.16821110       0.04391054
C       -0.28126147       1.55120644       0.72730341
H        2.14133245      -0.36534581      -1.47233558
H        2.37431013       0.72960465      -0.26724932
H        2.20483474      -1.04416318       0.11371690
H       -1.14386265      -0.61991662       2.12290118
H       -0.14105409      -1.74955211       1.20559008
H       -2.19287835      -0.83238774      -0.40090604
H       -0.11830861      -0.04844072      -1.95082596
H        0.06932219      -1.62975350      -1.19684751
H       -2.07383670       1.80083526      -0.47728017
H        0.08995538       2.55600212       0.88170715
17
Frame=12 idx=008386 GeodesicLength=0.6214654427859203 rxn_smarts="[C:1]([C:2]12[C:3]([H:11])([H:12])[C:4]([H:13])([C:5]1([H:14])[H:15])[C:6]([H:16])=[C:7]2[H:17])([H:8])([H:9])[H:10]>>[C:1]([C:5]([C@@:4]1([H:13])[C:3]([H:11])([H:12])[C-:2]=[C:7]([H:17])[C+:6]1[H:16])([H:14])[H:15])([H:8])([H:9])[H:10]"
C        1.81585649      -0.18898387      -0.44889311
C        0.48699788       0.31421065       1.00750770
C       -0.57674919      -0.74546364       1.20395160
C       -1.26886290      -0.33005448      -0.10544942
C       -0.02452841      -0.56127196      -0.98935057
C       -1.36357966       1.16966687       0.04249100
C       -0.28848790       1.55432015       0.73908330
H        2.16781359      -0.35442351      -1.47686083
H        2.38230540       0.72805609      -0.26642737
H        2.19823265      -1.04850562       0.10174822
H       -1.14897758      -0.62717459       2.12598737
H       -0.13628864      -1.74620898       1.20973800
H       -2.19401712      -0.82921224      -0.39560427
H       -0.13191897      -0.06332577      -1.95649348
H        0.06030806      -1.63367468      -1.19216582
H       -2.06155943       1.80319588      -0.49237758
H        0.08345572       2.55884969       0.89311527
17
Frame=13 idx=008386 GeodesicLength=0.673325481746567 rxn_smarts="[C:1]([C:2]12[C:3]([H:11])([H:12])[C:4]([H:13])([C:5]1([H:14])[H:15])[C:6]([H:16])=[C:7]2[H:17])([H:8])([H:9])[H:10]>>[C:1]([C:5]([C@@:4]1([H:13])[C:3]([H:11])([H:12])[C-:2]=[C:7]([H:17])[C+:6]1[H:16])([H:14])[H:15])([H:8])([H:9])[H:10]"
C        1.82085806      -0.18692387      -0.46035744
C        0.47959688       0.31705678       1.01129565
C       -0.57914964      -0.74513363       1.20766560
C       -1.26827229      -0.32854792      -0.10487456
C       -0.02413747      -0.56307956      -0.98915203
C       -1.36226550       1.17118344       0.04102491
C       -0.29590547       1.55742794       0.75085340
H        2.19513871      -0.34380981      -1.48091534
H        2.39025146       0.72634240      -0.26569832
H        2.19156078      -1.05254572       0.08952178
H       -1.15405395      -0.63451042       2.12898835
H       -0.13145319      -1.74274920       1.21382508
H       -2.19522136      -0.82591919      -0.39029959
H       -0.14572200      -0.07853154      -1.96199810
H        0.05116700      -1.63753496      -1.18738766
H       -2.04910695       1.80558800      -0.50717487
H        0.07671492       2.56168728       0.90468315
17
Frame=14 idx=008386 GeodesicLength=0.7252012464538912 rxn_smarts="[C:1]([C:2]12[C:3]([H:11])([H:12])[C:4]([H:13])([C:5]1([H:14])[H:15])[C:6]([H:16])=[C:7]2[H:17])([H:8])([H:9])[H:10]>>[C:1]([C:5]([C@@:4]1([H:13])[C:3]([H:11])([H:12])[C-:2]=[C:7]([H:17])[C+:6]1[H:16])([H:14])[H:15])([H:8])([H:9])[H:10]"
C        1.82586638      -0.18483352      -0.47229519
C        0.47211347       0.31999329       1.01503824
C       -0.58154802      -0.74477929       1.21131873
C       -1.26773334      -0.32698922      -0.10432262
C       -0.02383845      -0.56487230      -0.98904691
C       -1.36093137       1.17276116       0.03952080
C       -0.30351798       1.56053116       0.76260537
H        2.22334808      -0.33356110      -1.48444090
H        2.39813104       0.72445447      -0.26507747
H        2.18481460      -1.05627084       0.07703890
H       -1.15907322      -0.64192776       2.13190336
H       -0.12653558      -1.73916794       1.21784109
H       -2.19649288      -0.82251063      -0.38498533
H       -0.15972821      -0.09404036      -1.96732858
H        0.04190338      -1.64132282      -1.18252174
H       -2.03649076       1.80801721      -0.52166984
H        0.06971287       2.56451849       0.91642210
17
Frame=15 idx=008386 GeodesicLength=0.7770951862843276 rxn_smarts="[C:1]([C:2]12[C:3]([H:11])([H:12])[C:4]([H:13])([C:5]1([H:14])[H:15])[C:6]([H:16])=[C:7]2[H:17])([H:8])([H:9])[H:10]>>[C:1]([C:5]([C@@:4]1([H:13])[C:3]([H:11])([H:12])[C-:2]=[C:7]([H:17])[C+:6]1[H:16])([H:14])[H:15])([H:8])([H:9])[H:10]"
C        1.83088403      -0.18271816      -0.48474461
C        0.46455173       0.32302646       1.01872424
C       -0.58393348      -0.74439827       1.21490531
C       -1.26724797      -0.32537670      -0.10379365
C       -0.02363942      -0.56664202      -0.98904531
C       -1.35958462       1.17440079       0.03798525
C       -0.31132737       1.56363158       0.77432834
H        2.25248095      -0.32373567      -1.48736888
H        2.40592574       0.72238147      -0.26457864
H        2.17798757      -1.05966890       0.06430178
H       -1.16401545      -0.64942868       2.13473070
H       -0.12152293      -1.73545929       1.22177466
H       -2.19783230      -0.81898877      -0.37965584
H       -0.17394643      -0.10983183      -1.97247601
H        0.03252175      -1.64502676      -1.17757813
H       -2.02373279       1.81048535      -0.53584942
H        0.06243099       2.56734939       0.92834021
17
Frame=16 idx=008386 GeodesicLength=0.8290085765468953 rxn_smarts="[C:1]([C:2]12[C:3]([H:11])([H:12])[C:4]([H:13])([C:5]1([H:14])[H:15])[C:6]([H:16])=[C:7]2[H:17])([H:8])([H:9])[H:10]>>[C:1]([C:5]([C@@:4]1([H:13])[C:3]([H:11])([H:12])[C-:2]=[C:7]([H:17])[C+:6]1[H:16])([H:14])[H:15])([H:8])([H:9])[H:10]"
C        1.83591412      -0.18058304      -0.49774492
C        0.45691614       0.32616236       1.02234305
C       -0.58629433      -0.74398861       1.21842028
C       -1.26681813      -0.32370896      -0.10328672
C       -0.02354878      -0.56837993      -0.98915689
C       -1.35823403       1.17610279       0.03642615
C       -0.31933548       1.56673046       0.78601320
H        2.28257243      -0.31438811      -1.48962811
H        2.41361334       0.72011252      -0.26421689
H        2.17107192      -1.06272985       0.05131115
H       -1.16885922      -0.65701612       2.13746950
H       -0.11640130      -1.73161746       1.22561437
H       -2.19923983      -0.81535677      -0.37430423
H       -0.18838527      -0.12588387      -1.97743046
H        0.02302745      -1.64863492      -1.17256631
H       -2.01084955       1.81299417      -0.54970800
H        0.05485049       2.57018534       0.94044484
