17
Frame=0 idx=008380 GeodesicLength=0.0 rxn_smarts="[C:1]([C:2]12[C:3]([H:11])([H:12])[C:4]([H:13])([C:5]1([H:14])[H:15])[C:6]([H:16])=[C:7]2[H:17])([H:8])([H:9])[H:10]>>[C:1]([C:2]12[C:3]([H:11])([H:12])[C:4]([H:13])([C:5]1([H:14])[H:15])[C:6]([H:16])([H:17])[C:7]2)([H:8])([H:9])[H:10]"
C        2.06373924      -0.13011195      -0.00501575
C        0.57268654       0.07073742      -0.02745256
C       -0.37559468      -0.67106768       0.96028351
C       -1.44892141      -0.27916690      -0.08053591
C       -0.34325389      -0.53102372      -1.14481705
C       -1.32199312       1.23343799      -0.00368780
C        0.05172737       1.52164051      -0.03536937
H        2.53054048       0.38096568      -0.84892059
H        2.48999274       0.28758443       0.90923655
H        2.32646648      -1.18972819      -0.05498018
H       -0.47732168      -0.27499355       1.97385833
H       -0.17896608      -1.74420958       0.98823182
H       -2.43340806      -0.74006113      -0.11835057
H       -0.41476793       0.00726471      -2.09120522
H       -0.14808840      -1.59025929      -1.31711879
H       -2.12130765       1.95559907      -0.13776740
H       -0.77152998       1.69339211       1.03361106
17
Frame=1 idx=008380 GeodesicLength=0.044530381238414574 rxn_smarts="[C:1]([C:2]12[C:3]([H:11])([H:12])[C:4]([H:13])([C:5]1([H:14])[H:15])[C:6]([H:16])=[C:7]2[H:17])([H:8])([H:9])[H:10]>>[C:1]([C:2]12[C:3]([H:11])([H:12])[C:4]([H:13])([C:5]1([H:14])[H:15])[C:6]([H:16])([H:17])[C:7]2)([H:8])([H:9])[H:10]"
C        2.06418410      -0.13045890      -0.00598516
C        0.57298845       0.06928063      -0.02674055
C       -0.37504671      -0.67448885       0.96079787
C       -1.44899859      -0.28010559      -0.07835151
C       -0.34497077      -0.53036505      -1.14397544
C       -1.32439037       1.23269152       0.00278239
C        0.05018021       1.51677324      -0.02786407
H        2.53025325       0.38334156      -0.84868558
H        2.49098879       0.28451296       0.90927525
H        2.32720941      -1.18978789      -0.05950481
H       -0.47527533      -0.28077293       1.97529098
H       -0.17732063      -1.74755290       0.98644819
H       -2.43301217      -0.74199250      -0.11660020
H       -0.41737724       0.00900166      -2.08968677
H       -0.14837129      -1.58911913      -1.31814486
H       -2.11940402       1.95320542      -0.16116494
H       -0.77163707       1.71583675       1.04210921
17
Frame=2 idx=008380 GeodesicLength=0.08904938492646951 rxn_smarts="[C:1]([C:2]12[C:3]([H:11])([H:12])[C:4]([H:13])([C:5]1([H:14])[H:15])[C:6]([H:16])=[C:7]2[H:17])([H:8])([H:9])[H:10]>>[C:1]([C:2]12[C:3]([H:11])([H:12])[C:4]([H:13])([C:5]1([H:14])[H:15])[C:6]([H:16])([H:17])[C:7]2)([H:8])([H:9])[H:10]"
C        2.06458538      -0.13077836      -0.00693175
C        0.57324556       0.06780300      -0.02600297
C       -0.37453209      -0.67799063       0.96130676
C       -1.44910967      -0.28107711      -0.07614728
C       -0.34672665      -0.52967841      -1.14312556
C       -1.32688935       1.23193422       0.00938280
C        0.04855011       1.51184892      -0.02021351
H        2.52990562       0.38581495      -0.84838309
H        2.49193148       0.28141561       0.90935607
H        2.32793116      -1.18979889      -0.06407591
H       -0.47328305      -0.28663111       1.97670906
H       -0.17569654      -1.75096837       0.98460642
H       -2.43264381      -0.74396691      -0.11484621
H       -0.42001955       0.01082150      -2.08812648
H       -0.14868687      -1.58793520      -1.31921658
H       -2.11699690       1.95025900      -0.18443164
H       -0.77156484       1.73892778       1.05013987
17
Frame=3 idx=008380 GeodesicLength=0.1335577936977837 rxn_smarts="[C:1]([C:2]12[C:3]([H:11])([H:12])[C:4]([H:13])([C:5]1([H:14])[H:15])[C:6]([H:16])=[C:7]2[H:17])([H:8])([H:9])[H:10]>>[C:1]([C:2]12[C:3]([H:11])([H:12])[C:4]([H:13])([C:5]1([H:14])[H:15])[C:6]([H:16])([H:17])[C:7]2)([H:8])([H:9])[H:10]"
C        2.06494312      -0.13107102      -0.00785103
C        0.57345804       0.06630403      -0.02524087
C       -0.37405396      -0.68157383       0.96180550
C       -1.44925388      -0.28208114      -0.07393090
C       -0.34851715      -0.52896702      -1.14227063
C       -1.32948805       1.23116694       0.01609868
C        0.04683831       1.50686493      -0.01242485
H        2.52950035       0.38838193      -0.84800808
H        2.49281797       0.27829457       0.90948296
H        2.32863195      -1.18976114      -0.06868469
H       -0.47135187      -0.29257041       1.97810795
H       -0.17409737      -1.75445648       0.98270298
H       -2.43230222      -0.74598346      -0.11309962
H       -0.42268680       0.01271837      -2.08652909
H       -0.14903050      -1.58671072      -1.32033456
H       -2.11410632       1.94675215      -0.20746800
H       -0.77130165       1.76269231       1.05764425
17
Frame=4 idx=008380 GeodesicLength=0.17805728048569178 rxn_smarts="[C:1]([C:2]12[C:3]([H:11])([H:12])[C:4]([H:13])([C:5]1([H:14])[H:15])[C:6]([H:16])=[C:7]2[H:17])([H:8])([H:9])[H:10]>>[C:1]([C:2]12[C:3]([H:11])([H:12])[C:4]([H:13])([C:5]1([H:14])[H:15])[C:6]([H:16])([H:17])[C:7]2)([H:8])([H:9])[H:10]"
C        2.06525790      -0.13133793      -0.00873809
C        0.57362658       0.06478271      -0.02445522
C       -0.37361487      -0.68524021       0.96228932
C       -1.44943002      -0.28311888      -0.07171026
C       -0.35033716      -0.52823474      -1.14141395
C       -1.33218345       1.23038832       0.02291482
C        0.04504614       1.50181808      -0.00450510
H        2.52904090       0.39103853      -0.84755490
H        2.49364575       0.27515135       0.90966051
H        2.32931261      -1.18967534      -0.07332214
H       -0.46948851      -0.29859422       1.97948305
H       -0.17252573      -1.75801862       0.98073421
H       -2.43198635      -0.74804261      -0.11137180
H       -0.42537054       0.01468587      -2.08489928
H       -0.14939628      -1.58544942      -1.32149967
H       -2.11076117       1.94268882      -0.23016998
H       -0.77083580       1.78715830       1.06455848
17
Frame=5 idx=008380 GeodesicLength=0.2225486098516868 rxn_smarts="[C:1]([C:2]12[C:3]([H:11])([H:12])[C:4]([H:13])([C:5]1([H:14])[H:15])[C:6]([H:16])=[C:7]2[H:17])([H:8])([H:9])[H:10]>>[C:1]([C:2]12[C:3]([H:11])([H:12])[C:4]([H:13])([C:5]1([H:14])[H:15])[C:6]([H:16])([H:17])[C:7]2)([H:8])([H:9])[H:10]"
C        2.06553043      -0.13158066      -0.00958777
C        0.57375190       0.06323735      -0.02364591
C       -0.37321695      -0.68899300       0.96275408
C       -1.44963700      -0.28419302      -0.06949201
C       -0.35218172      -0.52748460      -1.14055831
C       -1.33497357       1.22959526       0.02981909
C        0.04317492       1.49670535       0.00354294
H        2.52853043       0.39378182      -0.84701675
H        2.49441271       0.27198550       0.90989392
H        2.32997434      -1.18954211      -0.07798100
H       -0.46769898      -0.30470787       1.98083075
H       -0.17098331      -1.76165744       0.97869623
H       -2.43169501      -0.75014669      -0.10967303
H       -0.42806273       0.01672025      -2.08324026
H       -0.14977815      -1.58415401      -1.32271378
H       -2.10699661       1.93807828      -0.25244061
H       -0.77015068       1.81235560       1.07081242
17
Frame=6 idx=008380 GeodesicLength=0.2670440927119424 rxn_smarts="[C:1]([C:2]12[C:3]([H:11])([H:12])[C:4]([H:13])([C:5]1([H:14])[H:15])[C:6]([H:16])=[C:7]2[H:17])([H:8])([H:9])[H:10]>>[C:1]([C:2]12[C:3]([H:11])([H:12])[C:4]([H:13])([C:5]1([H:14])[H:15])[C:6]([H:16])([H:17])[C:7]2)([H:8])([H:9])[H:10]"
C        2.06576187      -0.13180059      -0.01039507
C        0.57383512       0.06166633      -0.02281283
C       -0.37286168      -0.69283566       0.96319566
C       -1.44987332      -0.28530610      -0.06728242
C       -0.35404572      -0.52672004      -1.13970638
C       -1.33785401       1.22878457       0.03679873
C        0.04122622       1.49152280       0.01171498
H        2.52797222       0.39660917      -0.84638774
H        2.49511718       0.26879685       0.91018872
H        2.33061898      -1.18936235      -0.08265413
H       -0.46598859      -0.31091791       1.98214773
H       -0.16947118      -1.76537605       0.97658490
H       -2.43142694      -0.75229730      -0.10801284
H       -0.43075593       0.01881684      -2.08155541
H       -0.15016987      -1.58282751      -1.32397843
H       -2.10284908       1.93293649      -0.27418600
H       -0.76923527       1.83831045       1.07634052
17
Frame=7 idx=008380 GeodesicLength=0.3115400790775302 rxn_smarts="[C:1]([C:2]12[C:3]([H:11])([H:12])[C:4]([H:13])([C:5]1([H:14])[H:15])[C:6]([H:16])=[C:7]2[H:17])([H:8])([H:9])[H:10]>>[C:1]([C:2]12[C:3]([H:11])([H:12])[C:4]([H:13])([C:5]1([H:14])[H:15])[C:6]([H:16])([H:17])[C:7]2)([H:8])([H:9])[H:10]"
C        2.06595335      -0.13199939      -0.01115450
C        0.57387730       0.06006739      -0.02195414
C       -0.37254994      -0.69677401       0.96361094
C       -1.45013765      -0.28646236      -0.06508566
C       -0.35592456      -0.52594282      -1.13885978
C       -1.34082157       1.22795066       0.04384605
C        0.03920073       1.48626656       0.02001291
H        2.52736905       0.39951933      -0.84566001
H        2.49575801       0.26558307       0.91055111
H        2.33124855      -1.18913664      -0.08733613
H       -0.46436157      -0.31723448       1.98343220
H       -0.16798923      -1.76917962       0.97439529
H       -2.43118066      -0.75449835      -0.10639917
H       -0.43344374       0.02097498      -2.07984558
H       -0.15056536      -1.58147076      -1.32529648
H       -2.09835964       1.92728465      -0.29531988
H       -0.76807307       1.86505180       1.08106283
17
Frame=8 idx=008380 GeodesicLength=0.3560417999979732 rxn_smarts="[C:1]([C:2]12[C:3]([H:11])([H:12])[C:4]([H:13])([C:5]1([H:14])[H:15])[C:6]([H:16])=[C:7]2[H:17])([H:8])([H:9])[H:10]>>[C:1]([C:2]12[C:3]([H:11])([H:12])[C:4]([H:13])([C:5]1([H:14])[H:15])[C:6]([H:16])([H:17])[C:7]2)([H:8])([H:9])[H:10]"
C        2.06610631      -0.13217880      -0.01186069
C        0.57387975       0.05843822      -0.02106681
C       -0.37228170      -0.70081562       0.96399754
C       -1.45042844      -0.28766626      -0.06290381
C       -0.35781434      -0.52515355      -1.13801898
C       -1.34387106       1.22708751       0.05095872
C        0.03709871       1.48093242       0.02844074
H        2.52672316       0.40251228      -0.84482567
H        2.49633522       0.26234063       0.91098738
H        2.33186513      -1.18886554      -0.09202340
H       -0.46282018      -0.32367140       1.98468404
H       -0.16653635      -1.77307526       0.97212128
H       -2.43095467      -0.75675336      -0.10483774
H       -0.43612136       0.02319638      -2.07810975
H       -0.15095936      -1.58008321      -1.32667119
H       -2.09357232       1.92114744      -0.31577341
H       -0.76664849       1.89260813       1.08490176
17
Frame=9 idx=008380 GeodesicLength=0.40053821770346826 rxn_smarts="[C:1]([C:2]12[C:3]([H:11])([H:12])[C:4]([H:13])([C:5]1([H:14])[H:15])[C:6]([H:16])=[C:7]2[H:17])([H:8])([H:9])[H:10]>>[C:1]([C:2]12[C:3]([H:11])([H:12])[C:4]([H:13])([C:5]1([H:14])[H:15])[C:6]([H:16])([H:17])[C:7]2)([H:8])([H:9])[H:10]"
C        2.06622230      -0.13234139      -0.01250861
C        0.57384394       0.05677602      -0.02014838
C       -0.37205719      -0.70496656       0.96435239
C       -1.45074393      -0.28891940      -0.06073976
C       -0.35971045      -0.52435221      -1.13718553
C       -1.34699905       1.22619243       0.05812870
C        0.03492444       1.47551476       0.03700625
H        2.52603737       0.40558751      -0.84387668
H        2.49684794       0.25906389       0.91150453
H        2.33247151      -1.18855086      -0.09671363
H       -0.46136674      -0.33023869       1.98590185
H       -0.16511283      -1.77706864       0.96975702
H       -2.43074765      -0.75906327      -0.10333462
H       -0.43878132       0.02548327      -2.07634851
H       -0.15134678      -1.57866415      -1.32810636
H       -2.08851435       1.91453412      -0.33544855
H       -0.76496724       1.92101316       1.08775988
17
Frame=10 idx=008380 GeodesicLength=0.4450390732509346 rxn_smarts="[C:1]([C:2]12[C:3]([H:11])([H:12])[C:4]([H:13])([C:5]1([H:14])[H:15])[C:6]([H:16])=[C:7]2[H:17])([H:8])([H:9])[H:10]>>[C:1]([C:2]12[C:3]([H:11])([H:12])[C:4]([H:13])([C:5]1([H:14])[H:15])[C:6]([H:16])([H:17])[C:7]2)([H:8])([H:9])[H:10]"
C        2.06630170      -0.13248763      -0.01309149
C        0.57376997       0.05507817      -0.01919133
C       -0.37187508      -0.70924089       0.96467560
C       -1.45108380      -0.29023182      -0.05858989
C       -0.36161134      -0.52353555      -1.13635666
C       -1.35020529       1.22525149       0.06537384
C        0.03267338       1.47000942       0.04572399
H        2.52531116       0.40875092      -0.84280099
H        2.49729646       0.25574642       0.91211115
H        2.33306939      -1.18819068      -0.10140715
H       -0.46000131      -0.33696229       1.98708942
H       -0.16371392      -1.78117264       0.96729360
H       -2.43055806      -0.76143919      -0.10189131
H       -0.44142460       0.02784669      -2.07455371
H       -0.15172284      -1.57720746      -1.32960785
H       -2.08324324       1.90748759      -0.35432214
H       -0.76298259       1.95029747       1.08954491
17
Frame=11 idx=008380 GeodesicLength=0.48954542321282846 rxn_smarts="[C:1]([C:2]12[C:3]([H:11])([H:12])[C:4]([H:13])([C:5]1([H:14])[H:15])[C:6]([H:16])=[C:7]2[H:17])([H:8])([H:9])[H:10]>>[C:1]([C:2]12[C:3]([H:11])([H:12])[C:4]([H:13])([C:5]1([H:14])[H:15])[C:6]([H:16])([H:17])[C:7]2)([H:8])([H:9])[H:10]"
C        2.06634506      -0.13261819      -0.01360325
C        0.57365809       0.05334259      -0.01818850
C       -0.37173363      -0.71365117       0.96496686
C       -1.45144736      -0.29160948      -0.05645008
C       -0.36351541      -0.52269929      -1.13552973
C       -1.35348854       1.22425556       0.07270825
C        0.03034496       1.46441048       0.05461070
H        2.52454415       0.41200849      -0.84158759
H        2.49768080       0.25238026       0.91281597
H        2.33366083      -1.18778402      -0.10610626
H       -0.45872269      -0.34386555       1.98825029
H       -0.16233588      -1.78539879       0.96472183
H       -2.43038487      -0.76388712      -0.10050782
H       -0.44405104       0.03029790      -2.07271809
H       -0.15208388      -1.57570632      -1.33118123
H       -2.07779811       1.90003590      -0.37235665
H       -0.76067249       1.98048875       1.09015529
17
Frame=12 idx=008380 GeodesicLength=0.5340542195156299 rxn_smarts="[C:1]([C:2]12[C:3]([H:11])([H:12])[C:4]([H:13])([C:5]1([H:14])[H:15])[C:6]([H:16])=[C:7]2[H:17])([H:8])([H:9])[H:10]>>[C:1]([C:2]12[C:3]([H:11])([H:12])[C:4]([H:13])([C:5]1([H:14])[H:15])[C:6]([H:16])([H:17])[C:7]2)([H:8])([H:9])[H:10]"
C        2.06635221      -0.13273325      -0.01403681
C        0.57350782       0.05156679      -0.01713101
C       -0.37163174      -0.71821166       0.96522635
C       -1.45183462      -0.29305915      -0.05431507
C       -0.36542188      -0.52183722      -1.13470145
C       -1.35685001       1.22319492       0.08015000
C        0.02793686       1.45871194       0.06368883
H        2.52373467       0.41536934      -0.84022293
H        2.49800033       0.24895619       0.91362935
H        2.33424781      -1.18732820      -0.11081471
H       -0.45753051      -0.35097511       1.98938869
H       -0.16097518      -1.78976025       0.96203121
H       -2.43022745      -0.76641447      -0.09918367
H       -0.44666099       0.03285229      -2.07083247
H       -0.15242690      -1.57415170      -1.33283338
H       -2.07221592       1.89220187      -0.38951349
H       -0.75800452       2.01161766       1.08947054
17
Frame=13 idx=008380 GeodesicLength=0.57857202270138 rxn_smarts="[C:1]([C:2]12[C:3]([H:11])([H:12])[C:4]([H:13])([C:5]1([H:14])[H:15])[C:6]([H:16])=[C:7]2[H:17])([H:8])([H:9])[H:10]>>[C:1]([C:2]12[C:3]([H:11])([H:12])[C:4]([H:13])([C:5]1([H:14])[H:15])[C:6]([H:16])([H:17])[C:7]2)([H:8])([H:9])[H:10]"
C        2.06632309      -0.13283263      -0.01438513
C        0.57331882       0.04974857      -0.01600908
C       -0.37156746      -0.72293794       0.96545461
C       -1.45224541      -0.29458760      -0.05217773
C       -0.36733056      -0.52094184      -1.13386739
C       -1.36028968       1.22205919       0.08772131
C        0.02544651       1.45290777       0.07298238
H        2.52288080       0.41884359      -0.83869262
H        2.49825517       0.24546355       0.91456201
H        2.33483201      -1.18682070      -0.11553790
H       -0.45642259      -0.35832010       1.99050980
H       -0.15962733      -1.79427124       0.95921020
H       -2.43008488      -0.76902857      -0.09791684
H       -0.44925646       0.03552744      -2.06888564
H       -0.15274957      -1.57253261      -1.33457141
H       -2.06653186       1.88401114      -0.40576305
H       -0.75495060       2.04371198       1.08736650
17
Frame=14 idx=008380 GeodesicLength=0.6230824530786785 rxn_smarts="[C:1]([C:2]12[C:3]([H:11])([H:12])[C:4]([H:13])([C:5]1([H:14])[H:15])[C:6]([H:16])=[C:7]2[H:17])([H:8])([H:9])[H:10]>>[C:1]([C:2]12[C:3]([H:11])([H:12])[C:4]([H:13])([C:5]1([H:14])[H:15])[C:6]([H:16])([H:17])[C:7]2)([H:8])([H:9])[H:10]"
C        2.06625680      -0.13291555      -0.01463939
C        0.57308987       0.04788615      -0.01480995
C       -0.37153899      -0.72784826       0.96565309
C       -1.45268030      -0.29620160      -0.05002823
C       -0.36924237      -0.52000194      -1.13302149
C       -1.36380996       1.22083775       0.09545254
C        0.02287019       1.44699126       0.08252449
H        2.52197902       0.42244540      -0.83697848
H        2.49844504       0.24188883       0.91562705
H        2.33541455      -1.18625684      -0.12028371
H       -0.45539688      -0.36593570       1.99162043
H       -0.15828770      -1.79894837       0.95624461
H       -2.42995671      -0.77173721      -0.09670352
H       -0.45184054       0.03834796      -2.06686280
H       -0.15305052      -1.57083370      -1.33640415
H       -2.06078051       1.87548218      -0.42107643
H       -0.75147101       2.07679965       1.08368594
17
Frame=15 idx=008380 GeodesicLength=0.6675843067405436 rxn_smarts="[C:1]([C:2]12[C:3]([H:11])([H:12])[C:4]([H:13])([C:5]1([H:14])[H:15])[C:6]([H:16])=[C:7]2[H:17])([H:8])([H:9])[H:10]>>[C:1]([C:2]12[C:3]([H:11])([H:12])[C:4]([H:13])([C:5]1([H:14])[H:15])[C:6]([H:16])([H:17])[C:7]2)([H:8])([H:9])[H:10]"
C        2.06615210      -0.13298029      -0.01479017
C        0.57281938       0.04597804      -0.01351994
C       -0.37154451      -0.73296183       0.96582313
C       -1.45314015      -0.29790810      -0.04785576
C       -0.37115877      -0.51900489      -1.13215687
C       -1.36741353       1.21951930       0.10337653
C        0.02020305       1.44095571       0.09234986
H        2.52102523       0.42619096      -0.83506048
H        2.49856926       0.23821831       0.91683844
H        2.33599637      -1.18563097      -0.12506055
H       -0.45445111      -0.37385900       1.99272767
H       -0.15695151      -1.80380885       0.95311910
H       -2.42984274      -0.77454834      -0.09553939
H       -0.45441733       0.04134058      -2.06474736
H       -0.15332880      -1.56903754      -1.33834081
H       -2.05499538       1.86663417      -0.43542630
H       -0.74752157       2.11090274       1.07826289
17
Frame=16 idx=008380 GeodesicLength=0.7120656096297528 rxn_smarts="[C:1]([C:2]12[C:3]([H:11])([H:12])[C:4]([H:13])([C:5]1([H:14])[H:15])[C:6]([H:16])=[C:7]2[H:17])([H:8])([H:9])[H:10]>>[C:1]([C:2]12[C:3]([H:11])([H:12])[C:4]([H:13])([C:5]1([H:14])[H:15])[C:6]([H:16])([H:17])[C:7]2)([H:8])([H:9])[H:10]"
C        2.06600743      -0.13302486      -0.01482691
C        0.57250557       0.04402322      -0.01212310
C       -0.37158200      -0.73829946       0.96596659
C       -1.45362594      -0.29971299      -0.04564722
C       -0.37308192      -0.51793489      -1.13126538
C       -1.37110377       1.21809322       0.11153242
C        0.01744042       1.43479346       0.10249981
H        2.52001458       0.43009962      -0.83291572
H        2.49862728       0.23443533       0.91821272
H        2.33657812      -1.18493634      -0.12987939
H       -0.45358238      -0.38213127       1.99383973
H       -0.15561378      -1.80887128       0.94981612
H       -2.42974275      -0.77746905      -0.09441858
H       -0.45699158       0.04453786      -2.06252004
H       -0.15358444      -1.56712300      -1.34039183
H       -2.04920818       1.85748190      -0.44878193
H       -0.74305666       2.14603851       1.07090270
