16
Frame=0 idx=005172 GeodesicLength=0.0 rxn_smarts="[C:1]([O:2][C:3]([C:4]([C:5]([O:6][H:16])([H:14])[H:15])([H:12])[H:13])([H:10])[H:11])([H:7])([H:8])[H:9]>>[C:1]([O:2][C:3]([C:4](=[C:5]([H:14])[H:15])[H:12])([H:10])[H:11])([H:7])([H:8])[H:9].[O:6]([H:13])[H:16]"
C        2.69181673       0.34564131      -0.47979064
O        1.32663363       0.61250743      -0.64489067
C        0.50872809      -0.46363431      -0.21179275
C       -0.93167251      -0.15542455      -0.45319024
C       -1.60922091       0.72040931       0.43019670
O       -2.55042879      -0.61361817       1.26974105
H        3.24451126       1.21718014      -0.82937142
H        2.94395087       0.16378634       0.57441091
H        3.00605552      -0.53113419      -1.06302477
H        0.69055616      -0.64720780       0.85908081
H        0.80115048      -1.37723527      -0.74846543
H       -1.24536511      -0.13044194      -1.49271285
H       -1.84144684      -0.95864303       0.34203762
H       -1.11268276       1.09929511       1.31577185
H       -2.43115330       1.33397074       0.07873999
H       -3.49143245      -0.61545111       1.05325983
16
Frame=1 idx=005172 GeodesicLength=0.08971275672346953 rxn_smarts="[C:1]([O:2][C:3]([C:4]([C:5]([O:6][H:16])([H:14])[H:15])([H:12])[H:13])([H:10])[H:11])([H:7])([H:8])[H:9]>>[C:1]([O:2][C:3]([C:4](=[C:5]([H:14])[H:15])[H:12])([H:10])[H:11])([H:7])([H:8])[H:9].[O:6]([H:13])[H:16]"
C        2.69533317       0.35207524      -0.51238501
O        1.32580049       0.61076633      -0.64967207
C        0.52121758      -0.46128212      -0.18482118
C       -0.92056808      -0.15410437      -0.41301010
C       -1.60121175       0.71149769       0.47700719
O       -2.63792072      -0.62721016       1.22165579
H        3.23632434       1.19571901      -0.94085304
H        2.97921242       0.24695189       0.54391483
H        3.00655002      -0.56097995      -1.03867639
H        0.72269103      -0.62988330       0.88461529
H        0.80241504      -1.38276568      -0.71420397
H       -1.23262671      -0.13485145      -1.45375220
H       -1.83709643      -0.98449779       0.34879150
H       -1.13397880       1.03772475       1.39915716
H       -2.37248757       1.38295720       0.11584452
H       -3.55365403      -0.60211727       0.91638767
16
Frame=2 idx=005172 GeodesicLength=0.17827992042514054 rxn_smarts="[C:1]([O:2][C:3]([C:4]([C:5]([O:6][H:16])([H:14])[H:15])([H:12])[H:13])([H:10])[H:11])([H:7])([H:8])[H:9]>>[C:1]([O:2][C:3]([C:4](=[C:5]([H:14])[H:15])[H:12])([H:10])[H:11])([H:7])([H:8])[H:9].[O:6]([H:13])[H:16]"
C        2.69638341       0.35904008      -0.54439499
O        1.32302080       0.60888186      -0.65381764
C        0.53338629      -0.45923259      -0.15732861
C       -0.91016905      -0.15513809      -0.37228472
C       -1.59370831       0.70020928       0.52461490
O       -2.72194216      -0.63831619       1.16538038
H        3.22216882       1.16787466      -1.05232091
H        3.01180273       0.33415295       0.50760470
H        3.00774348      -0.58702790      -1.00848487
H        0.75446415      -0.61195333       0.91024527
H        0.80452057      -1.38845688      -0.67853220
H       -1.21965317      -0.13962727      -1.41449802
H       -1.83489002      -1.01098286       0.35489243
H       -1.15863837       0.97050583       1.48036291
H       -2.31013007       1.42877037       0.16050760
H       -3.60435909      -0.57869990       0.77805378
16
Frame=3 idx=005172 GeodesicLength=0.26560288756084466 rxn_smarts="[C:1]([O:2][C:3]([C:4]([C:5]([O:6][H:16])([H:14])[H:15])([H:12])[H:13])([H:10])[H:11])([H:7])([H:8])[H:9]>>[C:1]([O:2][C:3]([C:4](=[C:5]([H:14])[H:15])[H:12])([H:10])[H:11])([H:7])([H:8])[H:9].[O:6]([H:13])[H:16]"
C        2.69534376       0.36522879      -0.57603868
O        1.31879168       0.60696696      -0.65662867
C        0.54504080      -0.45697068      -0.12895178
C       -0.90047750      -0.15729715      -0.33109873
C       -1.58733742       0.68829225       0.57199654
O       -2.80063060      -0.64496335       1.10315517
H        3.20242211       1.13476942      -1.15913382
H        3.04204073       0.41962487       0.46468163
H        3.00942477      -0.60834916      -0.97700140
H        0.78517483      -0.59261219       0.93646070
H        0.80691487      -1.39403020      -0.64097382
H       -1.20644903      -0.14463020      -1.37508345
H       -1.83367672      -1.03683008       0.36179992
H       -1.18749330       0.90171373       1.55744608
H       -2.24741014       1.46998432       0.21090807
H       -3.64167883      -0.55089733       0.63846223
16
Frame=4 idx=005172 GeodesicLength=0.35203486222068153 rxn_smarts="[C:1]([O:2][C:3]([C:4]([C:5]([O:6][H:16])([H:14])[H:15])([H:12])[H:13])([H:10])[H:11])([H:7])([H:8])[H:9]>>[C:1]([O:2][C:3]([C:4](=[C:5]([H:14])[H:15])[H:12])([H:10])[H:11])([H:7])([H:8])[H:9].[O:6]([H:13])[H:16]"
C        2.69227649       0.37119648      -0.60653320
O        1.31323176       0.60532914      -0.65783482
C        0.55620829      -0.45453876      -0.10017576
C       -0.89140977      -0.16077244      -0.29054288
C       -1.58224678       0.67472665       0.61861781
O       -2.87270602      -0.64885776       1.03577838
H        3.17756836       1.09527280      -1.26242148
H        3.06963108       0.50546599       0.41584094
H        3.01180303      -0.62515551      -0.94180272
H        0.81444042      -0.57229588       0.96278861
H        0.81007392      -1.39929151      -0.60217678
H       -1.19254598      -0.14930362      -1.33667483
H       -1.83487581      -1.06265205       0.36557932
H       -1.21977329       0.83077998       1.62933621
H       -2.18472467       1.50592929       0.26691674
H       -3.66695102      -0.51583279       0.50330447
16
Frame=5 idx=005172 GeodesicLength=0.43743780093341184 rxn_smarts="[C:1]([O:2][C:3]([C:4]([C:5]([O:6][H:16])([H:14])[H:15])([H:12])[H:13])([H:10])[H:11])([H:7])([H:8])[H:9]>>[C:1]([O:2][C:3]([C:4](=[C:5]([H:14])[H:15])[H:12])([H:10])[H:11])([H:7])([H:8])[H:9].[O:6]([H:13])[H:16]"
C        2.68739558       0.37621996      -0.63598361
O        1.30666148       0.60382706      -0.65756305
C        0.56676767      -0.45184004      -0.07120182
C       -0.88296445      -0.16483351      -0.25063229
C       -1.57840286       0.66075889       0.66395185
O       -2.93768993      -0.64870253       0.96545215
H        3.14819554       1.05116932      -1.35899747
H        3.09409007       0.58813541       0.36141242
H        3.01491212      -0.63719872      -0.90593047
H        0.84196742      -0.55113227       0.98906284
H        0.81352556      -1.40410828      -0.56260489
H       -1.17828327      -0.15377380      -1.29918816
H       -1.83722099      -1.08762920       0.36775308
H       -1.25517361       0.76041615       1.69528264
H       -2.12390614       1.53643561       0.32690922
H       -3.67987419      -0.47774407       0.37227756
16
Frame=6 idx=005172 GeodesicLength=0.5227438970998388 rxn_smarts="[C:1]([O:2][C:3]([C:4]([C:5]([O:6][H:16])([H:14])[H:15])([H:12])[H:13])([H:10])[H:11])([H:7])([H:8])[H:9]>>[C:1]([O:2][C:3]([C:4](=[C:5]([H:14])[H:15])[H:12])([H:10])[H:11])([H:7])([H:8])[H:9].[O:6]([H:13])[H:16]"
C        2.68071735       0.38108566      -0.66447437
O        1.29900851       0.60265312      -0.65614058
C        0.57696746      -0.44879445      -0.04196529
C       -0.87502370      -0.17000054      -0.21140680
C       -1.57573977       0.64495229       0.70875754
O       -2.99664924      -0.64558448       0.89120314
H        3.11434943       0.99974308      -1.45219487
H        3.11531356       0.67182786       0.30048754
H        3.01912928      -0.64464752      -0.86574088
H        0.86822757      -0.52878477       1.01533511
H        0.81786363      -1.40843970      -0.52198204
H       -1.16340030      -0.15765362      -1.26268772
H       -1.84131385      -1.11269294       0.36613376
H       -1.29340536       0.68801112       1.75628466
H       -2.06332176       1.56174447       0.39227358
H       -3.68272279      -0.43341958       0.24611721
16
Frame=7 idx=005172 GeodesicLength=0.6077998024924939 rxn_smarts="[C:1]([O:2][C:3]([C:4]([C:5]([O:6][H:16])([H:14])[H:15])([H:12])[H:13])([H:10])[H:11])([H:7])([H:8])[H:9]>>[C:1]([O:2][C:3]([C:4](=[C:5]([H:14])[H:15])[H:12])([H:10])[H:11])([H:7])([H:8])[H:9].[O:6]([H:13])[H:16]"
C        2.67232244       0.38546336      -0.69203423
O        1.29036101       0.60152778      -0.65400112
C        0.58668019      -0.44555173      -0.01287064
C       -0.86765604      -0.17601206      -0.17283177
C       -1.57401005       0.62816248       0.75268974
O       -3.04949046      -0.63828216       0.81470678
H        3.07680012       0.94259144      -1.53932309
H        3.13231162       0.75412872       0.23342920
H        3.02460400      -0.64693082      -0.82328465
H        0.89305749      -0.50573162       1.04115838
H        0.82271341      -1.41231132      -0.48104980
H       -1.14835989      -0.16132543      -1.22698187
H       -1.84636887      -1.13723493       0.36222967
H       -1.33398694       0.61538658       1.81188878
H       -2.00383578       1.58180452       0.46184360
H       -3.67514225      -0.38568481       0.12443104
16
Frame=8 idx=005172 GeodesicLength=0.6930332694858804 rxn_smarts="[C:1]([O:2][C:3]([C:4]([C:5]([O:6][H:16])([H:14])[H:15])([H:12])[H:13])([H:10])[H:11])([H:7])([H:8])[H:9]>>[C:1]([O:2][C:3]([C:4](=[C:5]([H:14])[H:15])[H:12])([H:10])[H:11])([H:7])([H:8])[H:9].[O:6]([H:13])[H:16]"
C        2.66228682       0.38969802      -0.71880300
O        1.28087441       0.60118710      -0.65030461
C        0.59612393      -0.44168945       0.01663533
C       -0.86069996      -0.18305169      -0.13495763
C       -1.57359468       0.60978375       0.79571336
O       -3.09662656      -0.62746113       0.73557682
H        3.03543922       0.87860030      -1.62119254
H        3.14600245       0.83499186       0.15935386
H        3.03077876      -0.64371331      -0.77874314
H        0.91650369      -0.48127681       1.06720331
H        0.82870285      -1.41538611      -0.43898100
H       -1.13263504      -0.16490435      -1.19223454
H       -1.85228195      -1.16174071       0.35484568
H       -1.37718085       0.54187511       1.86219531
H       -1.94510162       1.59650563       0.53572455
H       -3.65859148      -0.33341822       0.00796823
16
Frame=9 idx=005172 GeodesicLength=0.7771461224178831 rxn_smarts="[C:1]([O:2][C:3]([C:4]([C:5]([O:6][H:16])([H:14])[H:15])([H:12])[H:13])([H:10])[H:11])([H:7])([H:8])[H:9]>>[C:1]([O:2][C:3]([C:4](=[C:5]([H:14])[H:15])[H:12])([H:10])[H:11])([H:7])([H:8])[H:9].[O:6]([H:13])[H:16]"
C        2.65113475       0.39298044      -0.74421264
O        1.27115482       0.60132735      -0.64509993
C        0.60513471      -0.43731967       0.04588702
C       -0.85410313      -0.19024511      -0.09871918
C       -1.57435041       0.59118855       0.83629909
O       -3.13689252      -0.61369495       0.65628387
H        2.99134051       0.81160177      -1.69402255
H        3.15621298       0.91038048       0.08042006
H        3.03783416      -0.63545429      -0.73539662
H        0.93803456      -0.45606439       1.09284534
H        0.83531537      -1.41766535      -0.39662306
H       -1.11653262      -0.16874554      -1.15920291
H       -1.85753143      -1.18567691       0.34439801
H       -1.42162286       0.47058709       1.90569271
H       -1.89034494       1.60562415       0.61116345
H       -3.63478395      -0.27882361      -0.09971266
16
Frame=10 idx=005172 GeodesicLength=0.8617340331507419 rxn_smarts="[C:1]([O:2][C:3]([C:4]([C:5]([O:6][H:16])([H:14])[H:15])([H:12])[H:13])([H:10])[H:11])([H:7])([H:8])[H:9]>>[C:1]([O:2][C:3]([C:4](=[C:5]([H:14])[H:15])[H:12])([H:10])[H:11])([H:7])([H:8])[H:9].[O:6]([H:13])[H:16]"
C        2.63824091       0.39653360      -0.76882081
O        1.26037120       0.60198469      -0.63922004
C        0.61377118      -0.43271697       0.07488170
C       -0.84807090      -0.19886882      -0.06299733
C       -1.57587105       0.57146834       0.87594628
O       -3.17222456      -0.59518515       0.57592992
H        2.94488759       0.73924028      -1.75989844
H        3.16148374       0.98337066      -0.00457463
H        3.04542399      -0.62110458      -0.69104919
H        0.95829543      -0.43036194       1.11798459
H        0.84285966      -1.41928271      -0.35439844
H       -1.10045736      -0.17336284      -1.12675903
H       -1.86327932      -1.20933817       0.33219232
H       -1.46775593       0.39957938       1.94421688
H       -1.83530897       1.60978996       0.68978674
H       -3.60236560      -0.22174574      -0.20322052
16
Frame=11 idx=005172 GeodesicLength=0.9455132135608463 rxn_smarts="[C:1]([O:2][C:3]([C:4]([C:5]([O:6][H:16])([H:14])[H:15])([H:12])[H:13])([H:10])[H:11])([H:7])([H:8])[H:9]>>[C:1]([O:2][C:3]([C:4](=[C:5]([H:14])[H:15])[H:12])([H:10])[H:11])([H:7])([H:8])[H:9].[O:6]([H:13])[H:16]"
C        2.62452609       0.39917311      -0.79227213
O        1.24971262       0.60352425      -0.63180238
C        0.62210366      -0.42727781       0.10376755
C       -0.84223786      -0.20733846      -0.02902673
C       -1.57862250       0.55132716       0.91332682
O       -3.20127886      -0.57470881       0.49514216
H        2.89614241       0.66304013      -1.81748076
H        3.16337506       1.05125511      -0.09504265
H        3.05397441      -0.60196123      -0.64739800
H        0.97672606      -0.40354154       1.14298500
H        0.85121452      -1.41987256      -0.31166255
H       -1.08380691      -0.17779977      -1.09612813
H       -1.86736340      -1.23280584       0.31664183
H       -1.51476126       0.33013415       1.97654908
H       -1.78468672       1.60848002       0.77007276
H       -3.56501731      -0.16162790      -0.29767187
16
Frame=12 idx=005172 GeodesicLength=1.0299226477349583 rxn_smarts="[C:1]([O:2][C:3]([C:4]([C:5]([O:6][H:16])([H:14])[H:15])([H:12])[H:13])([H:10])[H:11])([H:7])([H:8])[H:9]>>[C:1]([O:2][C:3]([C:4](=[C:5]([H:14])[H:15])[H:12])([H:10])[H:11])([H:7])([H:8])[H:9].[O:6]([H:13])[H:16]"
C        2.60896455       0.40253788      -0.81482410
O        1.23773506       0.60523207      -0.62433472
C        0.62991203      -0.42206578       0.13168321
C       -0.83706750      -0.21758018       0.00452584
C       -1.58146707       0.53032697       0.94978872
O       -3.22589889      -0.54840553       0.41436437
H        2.84636007       0.58162483      -1.86664099
H        3.15886326       1.11667504      -0.19144696
H        3.06297032      -0.57538912      -0.60228722
H        0.99404414      -0.37741959       1.16660311
H        0.86011552      -1.41983632      -0.27057910
H       -1.06775405      -0.18347731      -1.06575623
H       -1.87211168      -1.25570954       0.30027882
H       -1.56264916       0.26173254       2.00421381
H       -1.73290766       1.60205005       0.85284366
H       -3.51910895      -0.10029602      -0.38843220
16
Frame=13 idx=005172 GeodesicLength=1.1137756299896806 rxn_smarts="[C:1]([O:2][C:3]([C:4]([C:5]([O:6][H:16])([H:14])[H:15])([H:12])[H:13])([H:10])[H:11])([H:7])([H:8])[H:9]>>[C:1]([O:2][C:3]([C:4](=[C:5]([H:14])[H:15])[H:12])([H:10])[H:11])([H:7])([H:8])[H:9].[O:6]([H:13])[H:16]"
C        2.59257861       0.40540954      -0.83621912
O        1.22557488       0.60740737      -0.61634129
C        0.63728472      -0.41658159       0.15873778
C       -0.83224435      -0.22802193       0.03648450
C       -1.58493373       0.50952503       0.98406935
O       -3.24495070      -0.51928467       0.33461559
H        2.79659073       0.49859065      -1.90624869
H        3.14940544       1.17588720      -0.29156907
H        3.07256330      -0.54356541      -0.55903145
H        1.00974541      -0.35146662       1.18934775
H        0.86946318      -1.41913456      -0.23049538
H       -1.05185156      -0.18972185      -1.03694768
H       -1.87518674      -1.27836003       0.28249247
H       -1.61053601       0.19625809       2.02642631
H       -1.68484396       1.59077900       0.93578669
H       -3.46865925      -0.03772022      -0.47110775
16
Frame=14 idx=005172 GeodesicLength=1.1977523558077567 rxn_smarts="[C:1]([O:2][C:3]([C:4]([C:5]([O:6][H:16])([H:14])[H:15])([H:12])[H:13])([H:10])[H:11])([H:7])([H:8])[H:9]>>[C:1]([O:2][C:3]([C:4](=[C:5]([H:14])[H:15])[H:12])([H:10])[H:11])([H:7])([H:8])[H:9].[O:6]([H:13])[H:16]"
C        2.57498507       0.40833000      -0.85685806
O        1.21290045       0.61029157      -0.60766861
C        0.64426149      -0.41075867       0.18522137
C       -0.82779533      -0.23916799       0.06746053
C       -1.58893660       0.48865260       1.01666823
O       -3.25912682      -0.48645342       0.25543028
H        2.74670822       0.41366682      -1.93678209
H        3.13496322       1.22897638      -0.39575072
H        3.08188690      -0.50608917      -0.51799520
H        1.02410987      -0.32549368       1.21140574
H        0.87939211      -1.41760189      -0.19118354
H       -1.03604816      -0.19686431      -1.00907142
H       -1.87723363      -1.30077808       0.26372050
H       -1.65897787       0.13318446       2.04383576
H       -1.63843573       1.57471275       1.01954872
H       -3.41265318       0.02539263      -0.54798150
16
Frame=15 idx=005172 GeodesicLength=1.2820387503416424 rxn_smarts="[C:1]([O:2][C:3]([C:4]([C:5]([O:6][H:16])([H:14])[H:15])([H:12])[H:13])([H:10])[H:11])([H:7])([H:8])[H:9]>>[C:1]([O:2][C:3]([C:4](=[C:5]([H:14])[H:15])[H:12])([H:10])[H:11])([H:7])([H:8])[H:9].[O:6]([H:13])[H:16]"
C        2.55610003       0.41127485      -0.87703583
O        1.19975558       0.61406027      -0.59817775
C        0.65089827      -0.40442849       0.21137010
C       -0.82363286      -0.25094404       0.09762518
C       -1.59349892       0.46785353       1.04765487
O       -3.26846969      -0.44997421       0.17669645
H        2.69677867       0.32796985      -1.95847580
H        3.11576879       1.27502313      -0.50334646
H        3.09039354      -0.46357554      -0.48038970
H        1.03722907      -0.29920521       1.23302814
H        0.88994514      -1.41513347      -0.15228264
H       -1.02017752      -0.20496959      -0.98198080
H       -1.87806337      -1.32304499       0.24422263
H       -1.70818201       0.07266134       2.05667449
H       -1.59374398       1.55388245       1.10405026
H       -3.35110075       0.08855011      -0.61963315
16
Frame=16 idx=005172 GeodesicLength=1.365844567862898 rxn_smarts="[C:1]([O:2][C:3]([C:4]([C:5]([O:6][H:16])([H:14])[H:15])([H:12])[H:13])([H:10])[H:11])([H:7])([H:8])[H:9]>>[C:1]([O:2][C:3]([C:4](=[C:5]([H:14])[H:15])[H:12])([H:10])[H:11])([H:7])([H:8])[H:9].[O:6]([H:13])[H:16]"
C        2.53649622       0.41362806      -0.89655506
O        1.18625425       0.61765249      -0.58955422
C        0.65705730      -0.39769087       0.23647029
C       -0.81979514      -0.26275744       0.12638215
C       -1.59831937       0.44756013       1.07668845
O       -3.27277169      -0.41105805       0.09921889
H        2.64933421       0.24336707      -1.97125637
H        3.09101643       1.31351487      -0.61206460
H        3.09851231      -0.41682194      -0.44619611
H        1.04908370      -0.27232378       1.25342301
H        0.90063552      -1.41206018      -0.11396146
H       -1.00480751      -0.21390414      -0.95613821
H       -1.87683790      -1.34533308       0.22434945
H       -1.75704574       0.01523017       2.06482423
H       -1.55243055       1.52862467       1.18818274
H       -3.28638203       0.15237202      -0.68381318
