11
Frame=0 idx=004788 GeodesicLength=0.0 rxn_smarts="[C:1]([c:2]1[c:3]([H:10])[o:4][n:5][c:6]1[H:11])([H:7])([H:8])[H:9]>>[C:1]([C:2]#[C:3][H:10])([H:7])([H:8])[H:9].[O-:4][N+:5]#[C:6][H:11]"
C       -1.59509491       0.13232710       0.21961735
C       -0.26552934      -0.50878628       0.21584951
C        0.52796231      -1.42266025       0.38553653
O        2.54206113      -0.50555077      -0.25883659
N        2.02958111       0.55509999      -0.52088440
C        0.96872986       1.10281458      -0.52068571
H       -2.35027392      -0.56313421       0.58505053
H       -1.60235738       1.01568012       0.85987270
H       -1.87769632       0.44622631      -0.78649535
H        1.08766290      -2.30531754       0.58382810
H        0.53495460       2.05330094      -0.76285265
11
Frame=1 idx=004788 GeodesicLength=0.05531761283216498 rxn_smarts="[C:1]([c:2]1[c:3]([H:10])[o:4][n:5][c:6]1[H:11])([H:7])([H:8])[H:9]>>[C:1]([C:2]#[C:3][H:10])([H:7])([H:8])[H:9].[O-:4][N+:5]#[C:6][H:11]"
C       -1.60627561       0.12594419       0.22353580
C       -0.26746470      -0.49516838       0.20569322
C        0.52972162      -1.41224579       0.36275869
O        2.53385984      -0.52016729      -0.25391419
N        2.04742736       0.55617492      -0.52254374
C        0.98565249       1.10657525      -0.52717661
H       -2.34934729      -0.58229233       0.58940892
H       -1.62150895       1.00455264       0.87016061
H       -1.90093002       0.44301354      -0.77810905
H        1.08336608      -2.28963833       0.59943895
H        0.56549918       2.06325159      -0.76925259
11
Frame=2 idx=004788 GeodesicLength=0.11048969987896323 rxn_smarts="[C:1]([c:2]1[c:3]([H:10])[o:4][n:5][c:6]1[H:11])([H:7])([H:8])[H:9]>>[C:1]([C:2]#[C:3][H:10])([H:7])([H:8])[H:9].[O-:4][N+:5]#[C:6][H:11]"
C       -1.61766498       0.11891882       0.22655617
C       -0.26905631      -0.48009436       0.19789714
C        0.53189996      -1.39973843       0.34537999
O        2.52409155      -0.53747538      -0.25816595
N        2.06513331       0.55588431      -0.52676461
C        1.00393230       1.11186226      -0.52903716
H       -2.34837270      -0.60277883       0.59118576
H       -1.64354769       0.99269359       0.87937382
H       -1.92262515       0.43822667      -0.77127875
H        1.07851268      -2.27181958       0.61707646
H        0.59769703       2.07432093      -0.77222288
11
Frame=3 idx=004788 GeodesicLength=0.1655965809786737 rxn_smarts="[C:1]([c:2]1[c:3]([H:10])[o:4][n:5][c:6]1[H:11])([H:7])([H:8])[H:9]>>[C:1]([C:2]#[C:3][H:10])([H:7])([H:8])[H:9].[O-:4][N+:5]#[C:6][H:11]"
C       -1.62913467       0.11161741       0.22959530
C       -0.27057022      -0.46390873       0.19118622
C        0.53408678      -1.38582944       0.33119912
O        2.51375877      -0.55535506      -0.26514755
N        2.08350826       0.55585666      -0.52863708
C        1.02283185       1.11727994      -0.53059261
H       -2.34688773      -0.62361097       0.59308941
H       -1.66668403       0.98077708       0.88799373
H       -1.94436686       0.43185932      -0.76473476
H        1.07264190      -2.25382244       0.63201528
H        0.63081595       2.08513624      -0.77596706
11
Frame=4 idx=004788 GeodesicLength=0.22061554877169393 rxn_smarts="[C:1]([c:2]1[c:3]([H:10])[o:4][n:5][c:6]1[H:11])([H:7])([H:8])[H:9]>>[C:1]([C:2]#[C:3][H:10])([H:7])([H:8])[H:9].[O-:4][N+:5]#[C:6][H:11]"
C       -1.64059760       0.10416675       0.23297475
C       -0.27211919      -0.44677225       0.18484559
C        0.53606696      -1.37094048       0.31863165
O        2.50377582      -0.57200714      -0.26933961
N        2.10209787       0.55533907      -0.53088984
C        1.04216230       1.12259553      -0.53283532
H       -2.34472935      -0.64456405       0.59571996
H       -1.69022572       0.96873293       0.89661100
H       -1.96661309       0.42436476      -0.75787924
H        1.06547772      -2.23652099       0.64308658
H        0.66470427       2.09560588      -0.78092553
11
Frame=5 idx=004788 GeodesicLength=0.27536203226937095 rxn_smarts="[C:1]([c:2]1[c:3]([H:10])[o:4][n:5][c:6]1[H:11])([H:7])([H:8])[H:9]>>[C:1]([C:2]#[C:3][H:10])([H:7])([H:8])[H:9].[O-:4][N+:5]#[C:6][H:11]"
C       -1.65193795       0.09668031       0.23702712
C       -0.27378019      -0.42883106       0.17822268
C        0.53766751      -1.35544919       0.30615400
O        2.49497955      -0.58593308      -0.26616008
N        2.12065174       0.55406621      -0.53479099
C        1.06171904       1.12755705      -0.53688780
H       -2.34170000      -0.66544341       0.59966589
H       -1.71346982       0.95651490       0.90580421
H       -1.98977947       0.41612676      -0.75009415
H        1.05653255      -2.22079655       0.64903950
H        0.69911704       2.10550806      -0.78798038
11
Frame=6 idx=004788 GeodesicLength=0.3300365646031197 rxn_smarts="[C:1]([c:2]1[c:3]([H:10])[o:4][n:5][c:6]1[H:11])([H:7])([H:8])[H:9]>>[C:1]([C:2]#[C:3][H:10])([H:7])([H:8])[H:9].[O-:4][N+:5]#[C:6][H:11]"
C       -1.66319488       0.08909288       0.24146810
C       -0.27556238      -0.40998365       0.17159991
C        0.53898406      -1.33909326       0.29459159
O        2.48633980      -0.59902311      -0.26129418
N        2.13984170       0.55328528      -0.53635915
C        1.08149452       1.13221592      -0.54253463
H       -2.33786700      -0.68627986       0.60458695
H       -1.73677728       0.94420902       0.91507164
H       -2.01359586       0.40675883      -0.74183648
H        1.04628750      -2.20607515       0.65158010
H        0.73404981       2.11489309      -0.79687384
11
Frame=7 idx=004788 GeodesicLength=0.38431082132541067 rxn_smarts="[C:1]([c:2]1[c:3]([H:10])[o:4][n:5][c:6]1[H:11])([H:7])([H:8])[H:9]>>[C:1]([C:2]#[C:3][H:10])([H:7])([H:8])[H:9].[O-:4][N+:5]#[C:6][H:11]"
C       -1.67443256       0.08125019       0.24574524
C       -0.27742778      -0.39011067       0.16558646
C        0.54007971      -1.32174116       0.28468165
O        2.47714452      -0.61226922      -0.25809030
N        2.15891119       0.55157970      -0.53943180
C        1.10201772       1.13744544      -0.54660555
H       -2.33352124      -0.70748000       0.60889513
H       -1.76104607       0.93130137       0.92420464
H       -2.03715551       0.39649978      -0.73385690
H        1.03556177      -2.19083158       0.65410746
H        0.76986825       2.12435614      -0.80523604
11
Frame=8 idx=004788 GeodesicLength=0.43837543539021684 rxn_smarts="[C:1]([c:2]1[c:3]([H:10])[o:4][n:5][c:6]1[H:11])([H:7])([H:8])[H:9]>>[C:1]([C:2]#[C:3][H:10])([H:7])([H:8])[H:9].[O-:4][N+:5]#[C:6][H:11]"
C       -1.68569301       0.07309187       0.24961729
C       -0.27942453      -0.36918431       0.16022113
C        0.54104392      -1.30315629       0.27724509
O        2.46689448      -0.62659456      -0.25917326
N        2.17795819       0.54912170      -0.54346591
C        1.12323386       1.14315662      -0.54922044
H       -2.32873557      -0.72911724       0.61219153
H       -1.78650266       0.91767220       0.93294345
H       -2.06031694       0.38525088      -0.72648548
H        1.02475196      -2.17447629       0.65798195
H        0.80679030       2.13423542      -0.81185534
11
Frame=9 idx=004788 GeodesicLength=0.49224897943746 rxn_smarts="[C:1]([c:2]1[c:3]([H:10])[o:4][n:5][c:6]1[H:11])([H:7])([H:8])[H:9]>>[C:1]([C:2]#[C:3][H:10])([H:7])([H:8])[H:9].[O-:4][N+:5]#[C:6][H:11]"
C       -1.69659183       0.06504199       0.25448893
C       -0.28172259      -0.34769532       0.15358496
C        0.54141273      -1.28441006       0.26793167
O        2.45828002      -0.63736730      -0.25013427
N        2.19736866       0.54699830      -0.54637986
C        1.14423028       1.14803555      -0.55548605
H       -2.32272374      -0.75027011       0.61761827
H       -1.81055053       0.90390555       0.94278658
H       -2.08485184       0.37347398      -0.71745851
H        1.01148337      -2.16072316       0.65532983
H        0.84366547       2.14301057      -0.82228155
11
Frame=10 idx=004788 GeodesicLength=0.5457127231863337 rxn_smarts="[C:1]([c:2]1[c:3]([H:10])[o:4][n:5][c:6]1[H:11])([H:7])([H:8])[H:9]>>[C:1]([C:2]#[C:3][H:10])([H:7])([H:8])[H:9].[O-:4][N+:5]#[C:6][H:11]"
C       -1.70738769       0.05676100       0.25916176
C       -0.28424147      -0.32528953       0.14725515
C        0.54150643      -1.26473325       0.26002763
O        2.44877865      -0.64862381      -0.24389818
N        2.21678700       0.54437230      -0.54921634
C        1.16582121       1.15330561      -0.56051946
H       -2.31611011      -0.77161939       0.62250491
H       -1.83523995       0.88946740       0.95249237
H       -2.10915158       0.36080106      -0.70867134
H        0.99790845      -2.14614513       0.65323863
H        0.88132905       2.15170375      -0.83237514
11
Frame=11 idx=004788 GeodesicLength=0.5990102347071158 rxn_smarts="[C:1]([c:2]1[c:3]([H:10])[o:4][n:5][c:6]1[H:11])([H:7])([H:8])[H:9]>>[C:1]([C:2]#[C:3][H:10])([H:7])([H:8])[H:9].[O-:4][N+:5]#[C:6][H:11]"
C       -1.71818497       0.04813544       0.26321615
C       -0.28708981      -0.30201359       0.14117781
C        0.54137917      -1.24390399       0.25458247
O        2.43707860      -0.66268927      -0.24754557
N        2.23680470       0.54221221      -0.54823675
C        1.18795060       1.15879680      -0.56440253
H       -2.30904611      -0.79327909       0.62628802
H       -1.86089571       0.87421985       0.96156666
H       -2.13306951       0.34703579      -0.70067430
H        0.98501640      -2.12909442       0.65491356
H        0.92005665       2.16058027      -0.84088552
11
Frame=12 idx=004788 GeodesicLength=0.6521133111976457 rxn_smarts="[C:1]([c:2]1[c:3]([H:10])[o:4][n:5][c:6]1[H:11])([H:7])([H:8])[H:9]>>[C:1]([C:2]#[C:3][H:10])([H:7])([H:8])[H:9].[O-:4][N+:5]#[C:6][H:11]"
C       -1.72857355       0.03953343       0.26787519
C       -0.29022477      -0.27802019       0.13436303
C        0.54080662      -1.22261331       0.24814082
O        2.42686385      -0.67328708      -0.24120614
N        2.25627656       0.53889207      -0.55108634
C        1.21018942       1.16417140      -0.56941310
H       -2.30086042      -0.81469058       0.63099181
H       -1.88570803       0.85841610       0.97160659
H       -2.15755511       0.33284199      -0.69155231
H        0.96980535      -2.11411944       0.65144635
H        0.95898007       2.16887560      -0.85116590
11
Frame=13 idx=004788 GeodesicLength=0.7050036756525461 rxn_smarts="[C:1]([c:2]1[c:3]([H:10])[o:4][n:5][c:6]1[H:11])([H:7])([H:8])[H:9]>>[C:1]([C:2]#[C:3][H:10])([H:7])([H:8])[H:9].[O-:4][N+:5]#[C:6][H:11]"
C       -1.73866270       0.03089231       0.27285625
C       -0.29381421      -0.25343956       0.12673991
C        0.53975504      -1.20076532       0.24155683
O        2.41609454      -0.68361582      -0.23553224
N        2.27656682       0.53689043      -0.54806901
C        1.23237450       1.16900404      -0.57627271
H       -2.29174077      -0.83585465       0.63627624
H       -1.90983036       0.84206724       0.98223478
H       -2.18254804       0.31802163      -0.68164939
H        0.95362156      -2.09935311       0.64599686
H        0.99818361       2.17615281      -0.86413753
11
Frame=14 idx=004788 GeodesicLength=0.7576415380235363 rxn_smarts="[C:1]([c:2]1[c:3]([H:10])[o:4][n:5][c:6]1[H:11])([H:7])([H:8])[H:9]>>[C:1]([C:2]#[C:3][H:10])([H:7])([H:8])[H:9].[O-:4][N+:5]#[C:6][H:11]"
C       -1.74865252       0.02186244       0.27682174
C       -0.29764049      -0.22786506       0.12013344
C        0.53872053      -1.17749182       0.23839321
O        2.40359690      -0.69567176      -0.23619840
N        2.29569042       0.53234686      -0.55150733
C        1.25540436       1.17486750      -0.57912263
H       -2.28221669      -0.85735155       0.63969045
H       -1.93543217       0.82476005       0.99167432
H       -2.20629417       0.30188828      -0.67329019
H        0.93817241      -2.08188481       0.64541754
H        1.03865143       2.18453987      -0.87201214
11
Frame=15 idx=004788 GeodesicLength=0.8101043162845122 rxn_smarts="[C:1]([c:2]1[c:3]([H:10])[o:4][n:5][c:6]1[H:11])([H:7])([H:8])[H:9]>>[C:1]([C:2]#[C:3][H:10])([H:7])([H:8])[H:9].[O-:4][N+:5]#[C:6][H:11]"
C       -1.75827189       0.01280458       0.28088516
C       -0.30185257      -0.20164949       0.11332128
C        0.53736200      -1.15351385       0.23572215
O        2.39057774      -0.70727379      -0.23684709
N        2.31490431       0.52800899      -0.55301171
C        1.27845569       1.18054524      -0.58244710
H       -2.27179788      -0.87850144       0.64340188
H       -1.96065602       0.80700363       1.00120421
H       -2.22996473       0.28484762      -0.66466676
H        0.92186082      -2.06458356       0.64329072
H        1.07938252       2.19231208      -0.88085274
11
Frame=16 idx=004788 GeodesicLength=0.8623905233914203 rxn_smarts="[C:1]([c:2]1[c:3]([H:10])[o:4][n:5][c:6]1[H:11])([H:7])([H:8])[H:9]>>[C:1]([C:2]#[C:3][H:10])([H:7])([H:8])[H:9].[O-:4][N+:5]#[C:6][H:11]"
C       -1.76746338       0.00376206       0.28510904
C       -0.30648858      -0.17489505       0.10608995
C        0.53570491      -1.12885652       0.23343276
O        2.37732843      -0.71788555      -0.23587120
N        2.33408397       0.52378173      -0.55305445
C        1.30137696       1.18589465      -0.58675096
H       -2.26041260      -0.89917678       0.64765502
H       -1.98523561       0.78890909       1.01086143
H       -2.25362673       0.26685219      -0.65563918
H        0.90441109      -2.04788286       0.63875845
H        1.12032154       2.19949703      -0.89059087
