11
Frame=0 idx=003007 GeodesicLength=0.0 rxn_smarts="[C:1]([c:2]1[c:3]([H:10])[n:4]([H:11])[n:5][n:6]1)([H:7])([H:8])[H:9]>>[C:1]([C:2]1=[N:6][N:5]=[N:4][C:3]1([H:10])[H:11])([H:7])([H:8])[H:9]"
C       -1.61556099       0.04693923      -0.06476512
C       -0.15643224      -0.22084660       0.05365582
C        0.91409047       0.66439552       0.15219582
N        2.08401790      -0.15380936       0.28061184
N        1.66157834      -1.39609062       0.18547471
N        0.34873363      -1.45267505       0.09607582
H       -2.14171384      -0.88800315      -0.24776451
H       -1.82736718       0.73799217      -0.88142419
H       -2.00563343       0.48782164       0.85439598
H        0.96403060       1.72416651       0.35036810
H        1.77425672       0.45010970      -0.77882431
11
Frame=1 idx=003007 GeodesicLength=0.04086700670387398 rxn_smarts="[C:1]([c:2]1[c:3]([H:10])[n:4]([H:11])[n:5][n:6]1)([H:7])([H:8])[H:9]>>[C:1]([C:2]1=[N:6][N:5]=[N:4][C:3]1([H:10])[H:11])([H:7])([H:8])[H:9]"
C       -1.61650277       0.04631076      -0.06424239
C       -0.15740659      -0.22274498       0.04982987
C        0.91438596       0.66475186       0.13851201
N        2.07959564      -0.15364019       0.27898566
N        1.66099590      -1.39574167       0.19847339
N        0.34546961      -1.45390368       0.10905550
H       -2.14428097      -0.88492586      -0.26123496
H       -1.82842620       0.74905279      -0.87084423
H       -2.00610724       0.47379175       0.86142219
H        0.96081914       1.72209798       0.35032646
H        1.79145750       0.45495124      -0.79028350
11
Frame=2 idx=003007 GeodesicLength=0.08174589610076778 rxn_smarts="[C:1]([c:2]1[c:3]([H:10])[n:4]([H:11])[n:5][n:6]1)([H:7])([H:8])[H:9]>>[C:1]([C:2]1=[N:6][N:5]=[N:4][C:3]1([H:10])[H:11])([H:7])([H:8])[H:9]"
C       -1.61746010       0.04567830      -0.06373126
C       -0.15843075      -0.22472213       0.04617102
C        0.91465468       0.66494709       0.12478220
N        2.07516035      -0.15352158       0.27697067
N        1.66036835      -1.39526632       0.21123975
N        0.34211863      -1.45498907       0.12231683
H       -2.14685711      -0.88167537      -0.27450615
H       -1.82937325       0.75985139      -0.86024167
H       -2.00663963       0.45988198       0.86812578
H        0.95748334       1.71967143       0.35039490
H        1.80897550       0.46014428      -0.80152208
11
Frame=3 idx=003007 GeodesicLength=0.12261682899973866 rxn_smarts="[C:1]([c:2]1[c:3]([H:10])[n:4]([H:11])[n:5][n:6]1)([H:7])([H:8])[H:9]>>[C:1]([C:2]1=[N:6][N:5]=[N:4][C:3]1([H:10])[H:11])([H:7])([H:8])[H:9]"
C       -1.61843096       0.04504124      -0.06324178
C       -0.15950825      -0.22678428       0.04276658
C        0.91489596       0.66496613       0.11110355
N        2.07072920      -0.15348791       0.27449852
N        1.65971156      -1.39468958       0.22362402
N        0.33868582      -1.45593441       0.13584549
H       -2.14945466      -0.87829501      -0.28741680
H       -1.83016854       0.77024610      -0.84977962
H       -2.00725238       0.44628454       0.87441645
H        0.95404078       1.71686530       0.35068663
H        1.82675147       0.46578789      -0.81250302
11
Frame=4 idx=003007 GeodesicLength=0.16350141925614367 rxn_smarts="[C:1]([c:2]1[c:3]([H:10])[n:4]([H:11])[n:5][n:6]1)([H:7])([H:8])[H:9]>>[C:1]([C:2]1=[N:6][N:5]=[N:4][C:3]1([H:10])[H:11])([H:7])([H:8])[H:9]"
C       -1.61942214       0.04439871      -0.06276102
C       -0.16064035      -0.22892297       0.03958794
C        0.91510803       0.66481702       0.09742864
N        2.06629826      -0.15354622       0.27158768
N        1.65901803      -1.39401887       0.23572816
N        0.33516756      -1.45672852       0.14968705
H       -2.15205552      -0.87476850      -0.30012447
H       -1.83083188       0.78036669      -0.83933483
H       -2.00796968       0.43284253       0.88038241
H        0.95050495       1.71369632       0.35103849
H        1.84482275       0.47186379      -0.82322005
11
Frame=5 idx=003007 GeodesicLength=0.20440512293987811 rxn_smarts="[C:1]([c:2]1[c:3]([H:10])[n:4]([H:11])[n:5][n:6]1)([H:7])([H:8])[H:9]>>[C:1]([C:2]1=[N:6][N:5]=[N:4][C:3]1([H:10])[H:11])([H:7])([H:8])[H:9]"
C       -1.62043957       0.04374903      -0.06227681
C       -0.16182819      -0.23113603       0.03659915
C        0.91528660       0.66449760       0.08370898
N        2.06186055      -0.15370441       0.26826259
N        1.65827942      -1.39325755       0.24765141
N        0.33156331      -1.45736138       0.16385016
H       -2.15464696      -0.87108161      -0.31274750
H       -1.83138609       0.79032239      -0.82879631
H       -2.00880237       0.41942767       0.88609765
H        0.94688324       1.71018479       0.35130145
H        1.86323006       0.47835952      -0.83365077
11
Frame=6 idx=003007 GeodesicLength=0.24531287205062913 rxn_smarts="[C:1]([c:2]1[c:3]([H:10])[n:4]([H:11])[n:5][n:6]1)([H:7])([H:8])[H:9]>>[C:1]([C:2]1=[N:6][N:5]=[N:4][C:3]1([H:10])[H:11])([H:7])([H:8])[H:9]"
C       -1.62147936       0.04309175      -0.06180593
C       -0.16307550      -0.23342746       0.03390414
C        0.91543295       0.66398934       0.07005546
N        2.05743377      -0.15400574       0.26442149
N        1.65750948      -1.39243571       0.25920196
N        0.32787301      -1.45782773       0.17837216
H       -2.15723422      -0.86728627      -0.32511110
H       -1.83178418       0.79994596      -0.81836458
H       -2.00978189       0.40625610       0.89145515
H        0.94320993       1.70630786       0.35163786
H        1.88189600       0.48539191      -0.84376661
11
Frame=7 idx=003007 GeodesicLength=0.2862550755619678 rxn_smarts="[C:1]([c:2]1[c:3]([H:10])[n:4]([H:11])[n:5][n:6]1)([H:7])([H:8])[H:9]>>[C:1]([C:2]1=[N:6][N:5]=[N:4][C:3]1([H:10])[H:11])([H:7])([H:8])[H:9]"
C       -1.62254994       0.04242398      -0.06133244
C       -0.16438342      -0.23579282       0.03144318
C        0.91554311       0.66329493       0.05640355
N        2.05300758      -0.15446064       0.26010842
N        1.65669668      -1.39156058       0.27051706
N        0.32409449      -1.45811864       0.19324985
H       -2.15980536      -0.86335687      -0.33736115
H       -1.83206698       0.80936977      -0.80789081
H       -2.01091014       0.39316007       0.89654757
H        0.93949385       1.70209685       0.35185687
H        1.90088013       0.49294395      -0.85354211
11
Frame=8 idx=003007 GeodesicLength=0.32719080286356206 rxn_smarts="[C:1]([c:2]1[c:3]([H:10])[n:4]([H:11])[n:5][n:6]1)([H:7])([H:8])[H:9]>>[C:1]([C:2]1=[N:6][N:5]=[N:4][C:3]1([H:10])[H:11])([H:7])([H:8])[H:9]"
C       -1.62366134       0.04174465      -0.06082971
C       -0.16575353      -0.23822836       0.02913292
C        0.91561049       0.66242180       0.04264476
N        2.04856081      -0.15506041       0.25538297
N        1.65581760      -1.39061190       0.28177761
N        0.32022895      -1.45822279       0.20845223
H       -2.16234364      -0.85924780      -0.34968168
H       -1.83228542       0.81876283      -0.79716237
H       -2.01218432       0.37991412       0.90149403
H        0.93573065       1.69757501       0.35170488
H        1.92027977       0.50095285      -0.86291563
11
Frame=9 idx=003007 GeodesicLength=0.36816548219069345 rxn_smarts="[C:1]([c:2]1[c:3]([H:10])[n:4]([H:11])[n:5][n:6]1)([H:7])([H:8])[H:9]>>[C:1]([C:2]1=[N:6][N:5]=[N:4][C:3]1([H:10])[H:11])([H:7])([H:8])[H:9]"
C       -1.62480555       0.04105354      -0.06033349
C       -0.16719146      -0.24073805       0.02713594
C        0.91563681       0.66133329       0.02894505
N        2.04412522      -0.15587592       0.25007047
N        1.65490058      -1.38964188       0.29268722
N        0.31627401      -1.45812619       0.22407703
H       -2.16485800      -0.85504432      -0.36179611
H       -1.83235725       0.82786113      -0.78651269
H       -2.01365652       0.36686427       0.90611396
H        0.93197703       1.69270803       0.35150861
H        1.93995511       0.50960611      -0.87189600
11
Frame=10 idx=003007 GeodesicLength=0.40919745917421063 rxn_smarts="[C:1]([c:2]1[c:3]([H:10])[n:4]([H:11])[n:5][n:6]1)([H:7])([H:8])[H:9]>>[C:1]([C:2]1=[N:6][N:5]=[N:4][C:3]1([H:10])[H:11])([H:7])([H:8])[H:9]"
C       -1.62599653       0.04034643      -0.05982109
C       -0.16869861      -0.24332214       0.02534263
C        0.91562210       0.66003399       0.01519655
N        2.03969256      -0.15691363       0.24424206
N        1.65392987      -1.38864406       0.30345546
N        0.31223014      -1.45781856       0.24006466
H       -2.16735171      -0.85070345      -0.37386234
H       -1.83234804       0.83682056      -0.77573803
H       -2.01530757       0.35380181       0.91052067
H        0.92822991       1.68753567       0.35103537
H        1.95999789       0.51886338      -0.88043595
11
Frame=11 idx=003007 GeodesicLength=0.4501988927158476 rxn_smarts="[C:1]([c:2]1[c:3]([H:10])[n:4]([H:11])[n:5][n:6]1)([H:7])([H:8])[H:9]>>[C:1]([C:2]1=[N:6][N:5]=[N:4][C:3]1([H:10])[H:11])([H:7])([H:8])[H:9]"
C       -1.62723628       0.03962420      -0.05926270
C       -0.17027484      -0.24598098       0.02368267
C        0.91554182       0.65853046       0.00126686
N        2.03520344      -0.15814976       0.23792486
N        1.65287070      -1.38758513       0.31424101
N        0.30810764      -1.45730480       0.25638069
H       -2.16979422      -0.84617638      -0.38603544
H       -1.83230508       0.84579038      -0.76464040
H       -2.01711725       0.34052946       0.91482160
H        0.92447465       1.68206544       0.35005247
H        1.98052941       0.52865709      -0.88843162
11
Frame=12 idx=003007 GeodesicLength=0.49132440080302103 rxn_smarts="[C:1]([c:2]1[c:3]([H:10])[n:4]([H:11])[n:5][n:6]1)([H:7])([H:8])[H:9]>>[C:1]([C:2]1=[N:6][N:5]=[N:4][C:3]1([H:10])[H:11])([H:7])([H:8])[H:9]"
C       -1.62852439       0.03888028      -0.05869499
C       -0.17192880      -0.24871463       0.02228242
C        0.91541794       0.65677423      -0.01267329
N        2.03072816      -0.15969392       0.23097242
N        1.65175849      -1.38652109       0.32482592
N        0.30388670      -1.45653768       0.27309611
H       -2.17221625      -0.84153960      -0.39806729
H       -1.83215319       0.85452601      -0.75351345
H       -2.01913889       0.32734632       0.91885015
H        0.92078079       1.67627710       0.34884791
H        2.00138944       0.53920298      -0.89592591
11
Frame=13 idx=003007 GeodesicLength=0.5323678369239904 rxn_smarts="[C:1]([c:2]1[c:3]([H:10])[n:4]([H:11])[n:5][n:6]1)([H:7])([H:8])[H:9]>>[C:1]([C:2]1=[N:6][N:5]=[N:4][C:3]1([H:10])[H:11])([H:7])([H:8])[H:9]"
C       -1.62987070       0.03811711      -0.05808771
C       -0.17365988      -0.25152263       0.02106032
C        0.91523004       0.65478985      -0.02678881
N        2.02620775      -0.16150938       0.22339224
N        1.65055929      -1.38541896       0.33537783
N        0.29959583      -1.45553872       0.29016103
H       -2.17460254      -0.83675363      -0.41010327
H       -1.83196241       0.86317945      -0.74216453
H       -2.02134904       0.31406602       0.92272357
H        0.91714274       1.67017433       0.34719326
H        2.02270893       0.55041657      -0.90276393
11
Frame=14 idx=003007 GeodesicLength=0.5734677887852678 rxn_smarts="[C:1]([c:2]1[c:3]([H:10])[n:4]([H:11])[n:5][n:6]1)([H:7])([H:8])[H:9]>>[C:1]([C:2]1=[N:6][N:5]=[N:4][C:3]1([H:10])[H:11])([H:7])([H:8])[H:9]"
C       -1.63127333       0.03733361      -0.05746370
C       -0.17547356      -0.25440353       0.02009031
C        0.91497793       0.65255350      -0.04097628
N        2.02167526      -0.16368069       0.21506402
N        1.64929900      -1.38431987       0.34576873
N        0.29522619      -1.45428113       0.30763261
H       -2.17696252      -0.83187575      -0.42198815
H       -1.83169235       0.87160221      -0.73079239
H       -2.02377407       0.30088842       0.92634682
H        0.91360493       1.66373788       0.34527999
H        2.04439252       0.56244536      -0.90896197
11
Frame=15 idx=003007 GeodesicLength=0.6145979955208886 rxn_smarts="[C:1]([c:2]1[c:3]([H:10])[n:4]([H:11])[n:5][n:6]1)([H:7])([H:8])[H:9]>>[C:1]([C:2]1=[N:6][N:5]=[N:4][C:3]1([H:10])[H:11])([H:7])([H:8])[H:9]"
C       -1.63273364       0.03652837      -0.05683245
C       -0.17737252      -0.25735198       0.01940012
C        0.91465631       0.65006262      -0.05521054
N        2.01712501      -0.16625781       0.20588003
N        1.64797575      -1.38324253       0.35592615
N        0.29078485      -1.45274689       0.32553358
H       -2.17930310      -0.82695821      -0.43361710
H       -1.83133946       0.87970804      -0.71952452
H       -2.02641522       0.28794043       0.92968461
H        0.91020973       1.65694089       0.34320692
H        2.06641230       0.57537707      -0.91444679
11
Frame=16 idx=003007 GeodesicLength=0.6557381776245464 rxn_smarts="[C:1]([c:2]1[c:3]([H:10])[n:4]([H:11])[n:5][n:6]1)([H:7])([H:8])[H:9]>>[C:1]([C:2]1=[N:6][N:5]=[N:4][C:3]1([H:10])[H:11])([H:7])([H:8])[H:9]"
C       -1.63425296       0.03570005      -0.05620359
C       -0.17935890      -0.26036085       0.01900646
C        0.91425762       0.64731824      -0.06947204
N        2.01254796      -0.16929634       0.19572505
N        1.64658832      -1.38220551       0.36579493
N        0.28628164      -1.45091286       0.34388552
H       -2.18163128      -0.82205664      -0.44489343
H       -1.83090588       0.88742083      -0.70848432
H       -2.02926847       0.27534112       0.93271106
H        0.90700257       1.64975606       0.34107061
H        2.08873937       0.58929592      -0.91914024
