14
Frame=0 idx=010985 GeodesicLength=0.0 rxn_smarts="[O:1]=[C:2]([C:3]12[C:4]([H:9])([H:10])[N:5]([C:6]1([H:11])[H:12])[C:7]2([H:13])[H:14])[H:8]>>[O+:1](=[C-:2][H:8])[C:7]([C:3]12[C:4]([H:9])([H:10])[N:5]1[C:6]2([H:11])[H:12])([H:13])[H:14]"
O        2.20263934      -0.30049384       0.04693733
C        1.73826810       0.52520050      -0.75639907
C       -0.01198124       0.15888244      -0.16508382
C       -1.15481529      -0.51927143      -0.83738675
N       -1.54750091      -0.37464621       0.57767149
C       -0.97799524       0.98650380       0.60901457
C        0.70637719      -0.77975963       0.72461759
H        2.51364673       1.02289752      -1.36431623
H       -1.71501693       0.09538788      -1.55110038
H       -1.02793402      -1.54318416      -1.18870823
H       -1.52057262       1.74307976       0.03081313
H       -0.68643894       1.35285790       1.59320202
H        0.81749347      -0.52687514       1.77215823
H        0.66383033      -1.84057941       0.50858007
14
Frame=1 idx=010985 GeodesicLength=0.054044194070891526 rxn_smarts="[O:1]=[C:2]([C:3]12[C:4]([H:9])([H:10])[N:5]([C:6]1([H:11])[H:12])[C:7]2([H:13])[H:14])[H:8]>>[O+:1](=[C-:2][H:8])[C:7]([C:3]12[C:4]([H:9])([H:10])[N:5]1[C:6]2([H:11])[H:12])([H:13])[H:14]"
O        2.20818048      -0.30467549       0.04015917
C        1.74178328       0.51256717      -0.77103996
C       -0.01096164       0.15815825      -0.17054325
C       -1.15654486      -0.52118487      -0.83772881
N       -1.53233469      -0.37720378       0.58323182
C       -0.97311475       0.98965017       0.60502721
C        0.69549762      -0.78348171       0.72668606
H        2.51805351       1.05165046      -1.34171582
H       -1.72460142       0.09250504      -1.54537245
H       -1.03218920      -1.54542745      -1.18846284
H       -1.52367497       1.74006221       0.02717951
H       -0.67778140       1.36033979       1.58627295
H        0.81298004      -0.52773027       1.77316505
H        0.65470800      -1.84522953       0.51314137
14
Frame=2 idx=010985 GeodesicLength=0.10806717634603052 rxn_smarts="[O:1]=[C:2]([C:3]12[C:4]([H:9])([H:10])[N:5]([C:6]1([H:11])[H:12])[C:7]2([H:13])[H:14])[H:8]>>[O+:1](=[C-:2][H:8])[C:7]([C:3]12[C:4]([H:9])([H:10])[N:5]1[C:6]2([H:11])[H:12])([H:13])[H:14]"
O        2.21407008      -0.30847676       0.03367045
C        1.74557030       0.50048739      -0.78501992
C       -0.00969797       0.15737639      -0.17572419
C       -1.15786563      -0.52291322      -0.83825341
N       -1.51739332      -0.37949122       0.58821659
C       -0.96811699       0.99275674       0.60108466
C        0.68471921      -0.78718651       0.72898701
H        2.51936175       1.07884837      -1.31992485
H       -1.73328303       0.08995345      -1.53996538
H       -1.03608839      -1.54751070      -1.18832572
H       -1.52621849       1.73722997       0.02362727
H       -0.66932640       1.36745411       1.57956937
H        0.80841043      -0.52872877       1.77441285
H        0.64585845      -1.84979925       0.51764527
14
Frame=3 idx=010985 GeodesicLength=0.16207927374289938 rxn_smarts="[O:1]=[C:2]([C:3]12[C:4]([H:9])([H:10])[N:5]([C:6]1([H:11])[H:12])[C:7]2([H:13])[H:14])[H:8]>>[O+:1](=[C-:2][H:8])[C:7]([C:3]12[C:4]([H:9])([H:10])[N:5]1[C:6]2([H:11])[H:12])([H:13])[H:14]"
O        2.22031634      -0.31153074       0.02776961
C        1.74961860       0.48953853      -0.79784341
C       -0.00823161       0.15668947      -0.18047235
C       -1.15868163      -0.52434509      -0.83902140
N       -1.50274087      -0.38167443       0.59258488
C       -0.96322010       0.99574608       0.59738508
C        0.67401305      -0.79079448       0.73159360
H        2.51817579       1.10332636      -1.30038403
H       -1.74098507       0.08788527      -1.53491143
H       -1.03938087      -1.54925606      -1.18850644
H       -1.52846092       1.73452952       0.02039418
H       -0.66142614       1.37401998       1.57338294
H        0.80360691      -0.52994936       1.77603847
H        0.63739651      -1.85418507       0.52199028
14
Frame=4 idx=010985 GeodesicLength=0.21615935368584815 rxn_smarts="[O:1]=[C:2]([C:3]12[C:4]([H:9])([H:10])[N:5]([C:6]1([H:11])[H:12])[C:7]2([H:13])[H:14])[H:8]>>[O+:1](=[C-:2][H:8])[C:7]([C:3]12[C:4]([H:9])([H:10])[N:5]1[C:6]2([H:11])[H:12])([H:13])[H:14]"
O        2.22690513      -0.31387602       0.02236090
C        1.75388092       0.47970108      -0.80961278
C       -0.00661252       0.15609371      -0.18479283
C       -1.15906183      -0.52552521      -0.84000391
N       -1.48842755      -0.38378917       0.59642051
C       -0.95847257       0.99863138       0.59395843
C        0.66333959      -0.79432753       0.73449485
H        2.51516219       1.12534273      -1.28313462
H       -1.74780761       0.08624284      -1.53018944
H       -1.04213452      -1.55072645      -1.18897595
H       -1.53047352       1.73196548       0.01748973
H       -0.65411422       1.38008675       1.56775163
H        0.79855029      -0.53138194       1.77803920
H        0.62926622      -1.85843767       0.52619427
14
Frame=5 idx=010985 GeodesicLength=0.2699579117474694 rxn_smarts="[O:1]=[C:2]([C:3]12[C:4]([H:9])([H:10])[N:5]([C:6]1([H:11])[H:12])[C:7]2([H:13])[H:14])[H:8]>>[O+:1](=[C-:2][H:8])[C:7]([C:3]12[C:4]([H:9])([H:10])[N:5]1[C:6]2([H:11])[H:12])([H:13])[H:14]"
O        2.23373754      -0.31485507       0.01802417
C        1.75814192       0.47123447      -0.81997170
C       -0.00489501       0.15581571      -0.18842541
C       -1.15882929      -0.52621506      -0.84128617
N       -1.47448063      -0.38604457       0.59958548
C       -0.95416553       1.00121725       0.59107545
C        0.65268350      -0.79760467       0.73779729
H        2.51111132       1.14336332      -1.26999454
H       -1.75360164       0.08531297      -1.52581939
H       -1.04392490      -1.55151708      -1.19005404
H       -1.53261675       1.72935284       0.01528190
H       -0.64787764       1.38522841       1.56304761
H        0.79308588      -0.53303598       1.78055841
H        0.62163123      -1.86225254       0.53018094
14
Frame=6 idx=010985 GeodesicLength=0.3238770903028596 rxn_smarts="[O:1]=[C:2]([C:3]12[C:4]([H:9])([H:10])[N:5]([C:6]1([H:11])[H:12])[C:7]2([H:13])[H:14])[H:8]>>[O+:1](=[C-:2][H:8])[C:7]([C:3]12[C:4]([H:9])([H:10])[N:5]1[C:6]2([H:11])[H:12])([H:13])[H:14]"
O        2.24084802      -0.31565362       0.01361548
C        1.76252126       0.46338104      -0.82983641
C       -0.00309024       0.15540360      -0.19184995
C       -1.15845356      -0.52688515      -0.84262495
N       -1.46087508      -0.38809831       0.60245170
C       -0.94981129       1.00379273       0.58823977
C        0.64201560      -0.80095014       0.74124913
H        2.50593155       1.16075562      -1.25751736
H       -1.75888495       0.08448362      -1.52166273
H       -1.04567763      -1.55235834      -1.19105521
H       -1.53435476       1.72690223       0.01308026
H       -0.64179217       1.39017515       1.55853655
H        0.78754037      -0.53482091       1.78323312
H        0.61408287      -1.86612751       0.53414060
14
Frame=7 idx=010985 GeodesicLength=0.3777727910285956 rxn_smarts="[O:1]=[C:2]([C:3]12[C:4]([H:9])([H:10])[N:5]([C:6]1([H:11])[H:12])[C:7]2([H:13])[H:14])[H:8]>>[O+:1](=[C-:2][H:8])[C:7]([C:3]12[C:4]([H:9])([H:10])[N:5]1[C:6]2([H:11])[H:12])([H:13])[H:14]"
O        2.24819689      -0.31595166       0.00942907
C        1.76692463       0.45623943      -0.83906726
C       -0.00121743       0.15496976      -0.19494540
C       -1.15783911      -0.52741804      -0.84406751
N       -1.44761265      -0.39005960       0.60496781
C       -0.94554417       1.00626951       0.58558362
C        0.63132628      -0.80428089       0.74490674
H        2.49994883       1.17679460      -1.24656754
H       -1.76358961       0.08390105      -1.51773129
H       -1.04717030      -1.55305467      -1.19215395
H       -1.53586147       1.72453217       0.01105783
H       -0.63608200       1.39473530       1.55439901
H        0.78182509      -0.53675093       1.78614518
H        0.60669501      -1.86992602       0.53804369
14
Frame=8 idx=010985 GeodesicLength=0.43165490020377645 rxn_smarts="[O:1]=[C:2]([C:3]12[C:4]([H:9])([H:10])[N:5]([C:6]1([H:11])[H:12])[C:7]2([H:13])[H:14])[H:8]>>[O+:1](=[C-:2][H:8])[C:7]([C:3]12[C:4]([H:9])([H:10])[N:5]1[C:6]2([H:11])[H:12])([H:13])[H:14]"
O        2.25578596      -0.31568078       0.00549020
C        1.77132651       0.44974640      -0.84774405
C        0.00071271       0.15453839      -0.19768400
C       -1.15698197      -0.52780819      -0.84561474
N       -1.43471852      -0.39196424       0.60715168
C       -0.94140804       1.00864578       0.58314874
C        0.62059782      -0.80759653       0.74877963
H        2.49340264       1.19146580      -1.23727522
H       -1.76771659       0.08357740      -1.51402446
H       -1.04837503      -1.55359884      -1.19337517
H       -1.53719038       1.72224503       0.00925564
H       -0.63080862       1.39890343       1.55069174
H        0.77591354      -0.53882228       1.78931044
H        0.59945995      -1.87365136       0.54188957
14
Frame=9 idx=010985 GeodesicLength=0.48552122538042425 rxn_smarts="[O:1]=[C:2]([C:3]12[C:4]([H:9])([H:10])[N:5]([C:6]1([H:11])[H:12])[C:7]2([H:13])[H:14])[H:8]>>[O+:1](=[C-:2][H:8])[C:7]([C:3]12[C:4]([H:9])([H:10])[N:5]1[C:6]2([H:11])[H:12])([H:13])[H:14]"
O        2.26360290      -0.31495068       0.00169350
C        1.77571073       0.44378971      -0.85598051
C        0.00269298       0.15405651      -0.20011791
C       -1.15593784      -0.52810042      -0.84723565
N       -1.42217530      -0.39378133       0.60905440
C       -0.93734319       1.01093734       0.58087616
C        0.60982330      -0.81092628       0.75283648
H        2.48633193       1.20515124      -1.22925360
H       -1.77134439       0.08344782      -1.51051790
H       -1.04939239      -1.55404753      -1.19464675
H       -1.53828582       1.72004070       0.00758915
H       -0.62584888       1.40274324       1.54731817
H        0.76984086      -0.54102235       1.79268146
H        0.59232511      -1.87733798       0.54570299
14
Frame=10 idx=010985 GeodesicLength=0.53937446230804 rxn_smarts="[O:1]=[C:2]([C:3]12[C:4]([H:9])([H:10])[N:5]([C:6]1([H:11])[H:12])[C:7]2([H:13])[H:14])[H:8]>>[O+:1](=[C-:2][H:8])[C:7]([C:3]12[C:4]([H:9])([H:10])[N:5]1[C:6]2([H:11])[H:12])([H:13])[H:14]"
O        2.27164205      -0.31384592      -0.00206239
C        1.78007259       0.43833254      -0.86383949
C        0.00472000       0.15348081      -0.20229329
C       -1.15475316      -0.52833622      -0.84890491
N       -1.40997408      -0.39549254       0.61071981
C       -0.93330444       1.01316157       0.57871764
C        0.59899760      -0.81429656       0.75704915
H        2.47878829       1.21812175      -1.22219855
H       -1.77454174       0.08345831      -1.50718799
H       -1.05031051      -1.55446070      -1.19590802
H       -1.53911047       1.71792715       0.00599256
H       -0.62110908       1.40631344       1.54419944
H        0.76363279      -0.54334525       1.79621867
H        0.58525015      -1.88101837       0.54949736
14
Frame=11 idx=010985 GeodesicLength=0.5932541520763333 rxn_smarts="[O:1]=[C:2]([C:3]12[C:4]([H:9])([H:10])[N:5]([C:6]1([H:11])[H:12])[C:7]2([H:13])[H:14])[H:8]>>[O+:1](=[C-:2][H:8])[C:7]([C:3]12[C:4]([H:9])([H:10])[N:5]1[C:6]2([H:11])[H:12])([H:13])[H:14]"
O        2.27990026      -0.31252437      -0.00594933
C        1.78443055       0.43335557      -0.87139990
C        0.00679307       0.15272860      -0.20429793
C       -1.15350557      -0.52859476      -0.85058617
N       -1.39809775      -0.39705418       0.61221318
C       -0.92919901       1.01535537       0.57658404
C        0.58811544      -0.81775591       0.76137324
H        2.47073373       1.23082189      -1.21557323
H       -1.77740076       0.08351438      -1.50401010
H       -1.05128925      -1.55495690      -1.19705468
H       -1.53957628       1.71592924       0.00435142
H       -0.61640728       1.40972754       1.54119502
H        0.75733121      -0.54578522       1.79986512
H        0.57817163      -1.88476124       0.55328931
14
Frame=12 idx=010985 GeodesicLength=0.6470997318235447 rxn_smarts="[O:1]=[C:2]([C:3]12[C:4]([H:9])([H:10])[N:5]([C:6]1([H:11])[H:12])[C:7]2([H:13])[H:14])[H:8]>>[O+:1](=[C-:2][H:8])[C:7]([C:3]12[C:4]([H:9])([H:10])[N:5]1[C:6]2([H:11])[H:12])([H:13])[H:14]"
O        2.28837551      -0.31080719      -0.00981176
C        1.78872907       0.42881062      -0.87864720
C        0.00890826       0.15187452      -0.20605131
C       -1.15213077      -0.52880264      -0.85230529
N       -1.38655032      -0.39852395       0.61350129
C       -0.92510817       1.01747672       0.57455770
C        0.57717009      -0.82126035       0.76584584
H        2.46232729       1.24290465      -1.20984056
H       -1.77986344       0.08370111      -1.50099502
H       -1.05218761      -1.55541458      -1.19818741
H       -1.53978899       1.71400112       0.00276972
H       -0.61188843       1.41288727       1.53842098
H        0.75088388      -0.54835158       1.80366628
H        0.57112363      -1.88849571       0.55707675
14
Frame=13 idx=010985 GeodesicLength=0.7009234419119168 rxn_smarts="[O:1]=[C:2]([C:3]12[C:4]([H:9])([H:10])[N:5]([C:6]1([H:11])[H:12])[C:7]2([H:13])[H:14])[H:8]>>[O+:1](=[C-:2][H:8])[C:7]([C:3]12[C:4]([H:9])([H:10])[N:5]1[C:6]2([H:11])[H:12])([H:13])[H:14]"
O        2.29706093      -0.30893408      -0.01387411
C        1.79299447       0.42465296      -0.88568018
C        0.01106981       0.15081985      -0.20764801
C       -1.15070924      -0.52903611      -0.85401442
N       -1.37529957      -0.39983593       0.61463236
C       -0.92091543       1.01955466       0.57251557
C        0.56616931      -0.82485056       0.77041507
H        2.45338703       1.25487853      -1.20428675
H       -1.78200955       0.08392499      -1.49811541
H       -1.05318597      -1.55594115      -1.19915632
H       -1.53963113       1.71215562       0.00109730
H       -0.60734472       1.41589096       1.53568831
H        0.74437686      -0.55100729       1.80753207
H        0.56403718      -1.89227245       0.56089453
14
Frame=14 idx=010985 GeodesicLength=0.7548475990122959 rxn_smarts="[O:1]=[C:2]([C:3]12[C:4]([H:9])([H:10])[N:5]([C:6]1([H:11])[H:12])[C:7]2([H:13])[H:14])[H:8]>>[O+:1](=[C-:2][H:8])[C:7]([C:3]12[C:4]([H:9])([H:10])[N:5]1[C:6]2([H:11])[H:12])([H:13])[H:14]"
O        2.30599590      -0.30681183      -0.01810410
C        1.79726696       0.42088882      -0.89257135
C        0.01328481       0.14960483      -0.20906032
C       -1.14920915      -0.52930398      -0.85574358
N       -1.36438834      -0.40104477       0.61564441
C       -0.91667439       1.02162404       0.57053736
C        0.55508499      -0.82854525       0.77511476
H        2.44405905       1.26665852      -1.19918712
H       -1.78380244       0.08420396      -1.49540628
H       -1.05421483      -1.55657643      -1.20005156
H       -1.53914957       1.71045589      -0.00059287
H       -0.60287781       1.41878206       1.53312995
H        0.73772651      -0.55377663       1.81154599
H        0.55689830      -1.89615923       0.56474471
14
Frame=15 idx=010985 GeodesicLength=0.808637513865616 rxn_smarts="[O:1]=[C:2]([C:3]12[C:4]([H:9])([H:10])[N:5]([C:6]1([H:11])[H:12])[C:7]2([H:13])[H:14])[H:8]>>[O+:1](=[C-:2][H:8])[C:7]([C:3]12[C:4]([H:9])([H:10])[N:5]1[C:6]2([H:11])[H:12])([H:13])[H:14]"
O        2.31511363      -0.30431822      -0.02235096
C        1.80140446       0.41745085      -0.89921127
C        0.01554127       0.14824757      -0.21024203
C       -1.14760115      -0.52951601      -0.85748467
N       -1.35374877      -0.40214834       0.61646399
C       -0.91238383       1.02358826       0.56860472
C        0.54393714      -0.83228081       0.77994342
H        2.43432439       1.27798802      -1.19469179
H       -1.78524424       0.08460684      -1.49282974
H       -1.05521312      -1.55713256      -1.20087810
H       -1.53837218       1.70876948      -0.00229756
H       -0.59847860       1.42139451       1.53069036
H        0.73096723      -0.55665787       1.81565931
H        0.54975376      -1.89999171       0.56862432
14
Frame=16 idx=010985 GeodesicLength=0.8624950274475056 rxn_smarts="[O:1]=[C:2]([C:3]12[C:4]([H:9])([H:10])[N:5]([C:6]1([H:11])[H:12])[C:7]2([H:13])[H:14])[H:8]>>[O+:1](=[C-:2][H:8])[C:7]([C:3]12[C:4]([H:9])([H:10])[N:5]1[C:6]2([H:11])[H:12])([H:13])[H:14]"
O        2.32448032      -0.30152723      -0.02674412
C        1.80552021       0.41433519      -0.90576150
C        0.01785433       0.14674385      -0.21121213
C       -1.14589285      -0.52973878      -0.85924621
N       -1.34343786      -0.40316881       0.61716583
C       -0.90805399       1.02552612       0.56675201
C        0.53269583      -0.83611128       0.78491348
H        2.42422231       1.28908810      -1.19070761
H       -1.78631506       0.08509264      -1.49042402
H       -1.05620151      -1.55774961      -1.20165081
H       -1.53728572       1.70720856      -0.00401012
H       -0.59418064       1.42386331       1.52844238
H        0.72404886      -0.55965024       1.81992619
H        0.54254578      -1.90391184       0.57255664
