17
Frame=0 idx=006454 GeodesicLength=0.0 rxn_smarts="[C:1]([O:2][C:3]([C@@:4]([C:5]([H:14])([H:15])[H:16])([C:6](=[O:7])[H:17])[H:13])([H:11])[H:12])([H:8])([H:9])[H:10]>>[C:1]([O:2][C:3](/[C:4](=[C:6](/[O:7][C:5]([H:14])([H:15])[H:16])[H:17])[H:13])([H:11])[H:12])([H:8])([H:9])[H:10]"
C        3.02650112      -0.50420794       0.19086151
O        1.84992656       0.06696312      -0.31373773
C        0.70959435      -0.28240967       0.44760092
C       -0.52418530       0.28137340      -0.16043329
C       -2.78590914      -0.27856436      -0.75452069
C       -1.19843061       1.38775859       0.32515080
O       -2.38615760       1.61398671      -0.00106315
H        3.23420479      -0.16607902       1.21542718
H        3.84689437      -0.19443758      -0.45532944
H        2.97254840      -1.60176008       0.19561763
H        0.82063394       0.07735532       1.48220235
H        0.63811160      -1.38054498       0.50383051
H       -0.61471317       0.17439018      -1.23781877
H       -3.43174638       0.30054336      -1.39736993
H       -2.26924417      -1.08736069      -1.25078776
H       -3.18076809      -0.51793019       0.22074511
H       -0.70726075       2.11092390       0.98962480
17
Frame=1 idx=006454 GeodesicLength=0.052494993051295256 rxn_smarts="[C:1]([O:2][C:3]([C@@:4]([C:5]([H:14])([H:15])[H:16])([C:6](=[O:7])[H:17])[H:13])([H:11])[H:12])([H:8])([H:9])[H:10]>>[C:1]([O:2][C:3](/[C:4](=[C:6](/[O:7][C:5]([H:14])([H:15])[H:16])[H:17])[H:13])([H:11])[H:12])([H:8])([H:9])[H:10]"
C        3.02092495      -0.49710404       0.19481300
O        1.84524288       0.07474423      -0.31113302
C        0.70101224      -0.28935959       0.43656588
C       -0.52980035       0.27884506      -0.17606059
C       -2.77044364      -0.27331479      -0.73503787
C       -1.18795369       1.39596162       0.31246110
O       -2.38779430       1.61145169       0.02024573
H        3.22049883      -0.16783612       1.22383331
H        3.84384318      -0.17797146      -0.44356615
H        2.97178580      -1.59483539       0.18846018
H        0.80291337       0.05662932       1.47677990
H        0.63214448      -1.38822833       0.47754229
H       -0.60767048       0.17939094      -1.25523829
H       -3.39077672       0.29883838      -1.40958169
H       -2.27434336      -1.10960773      -1.20816760
H       -3.20065733      -0.50707698       0.22721375
H       -0.68892584       2.10947319       0.98087006
17
Frame=2 idx=006454 GeodesicLength=0.1050335818404716 rxn_smarts="[C:1]([O:2][C:3]([C@@:4]([C:5]([H:14])([H:15])[H:16])([C:6](=[O:7])[H:17])[H:13])([H:11])[H:12])([H:8])([H:9])[H:10]>>[C:1]([O:2][C:3](/[C:4](=[C:6](/[O:7][C:5]([H:14])([H:15])[H:16])[H:17])[H:13])([H:11])[H:12])([H:8])([H:9])[H:10]"
C        3.01530660      -0.48993164       0.19893427
O        1.84038609       0.08214488      -0.30856058
C        0.69256721      -0.29633057       0.42558221
C       -0.53538884       0.27607122      -0.19157677
C       -2.75541968      -0.26808864      -0.71576153
C       -1.17770122       1.40351296       0.29989267
O       -2.38866574       1.60827470       0.04212810
H        3.20675243      -0.16910909       1.23211282
H        3.84057667      -0.16161526      -0.43169298
H        2.97124629      -1.58771991       0.18199784
H        0.78538457       0.03630275       1.47097103
H        0.62657873      -1.39570954       0.45178759
H       -0.60092577       0.18338567      -1.27225761
H       -3.35024518       0.29696576      -1.41972970
H       -2.28001125      -1.12936173      -1.16692488
H       -3.22028164      -0.49674996       0.23219037
H       -0.67015925       2.10795841       0.97090714
17
Frame=3 idx=006454 GeodesicLength=0.15766337158501537 rxn_smarts="[C:1]([O:2][C:3]([C@@:4]([C:5]([H:14])([H:15])[H:16])([C:6](=[O:7])[H:17])[H:13])([H:11])[H:12])([H:8])([H:9])[H:10]>>[C:1]([O:2][C:3](/[C:4](=[C:6](/[O:7][C:5]([H:14])([H:15])[H:16])[H:17])[H:13])([H:11])[H:12])([H:8])([H:9])[H:10]"
C        3.00965945      -0.48258737       0.20327035
O        1.83537424       0.08927112      -0.30597138
C        0.68424461      -0.30344372       0.41457959
C       -0.54096271       0.27298279      -0.20700600
C       -2.74088308      -0.26285775      -0.69656175
C       -1.16760362       1.41039263       0.28745268
O       -2.38860287       1.60457915       0.06444465
H        3.19285847      -0.17001401       1.24041952
H        3.83714660      -0.14502750      -0.41951421
H        2.97101990      -1.58032587       0.17601334
H        0.76793936       0.01607100       1.46480119
H        0.62144564      -1.40313823       0.42626810
H       -0.59450986       0.18634270      -1.28893543
H       -3.31022690       0.29493119      -1.42793377
H       -2.28628897      -1.14695164      -1.12676384
H       -3.23982492      -0.48664008       0.23581887
H       -0.65078532       2.10641558       0.95961808
17
Frame=4 idx=006454 GeodesicLength=0.21048642465725825 rxn_smarts="[C:1]([O:2][C:3]([C@@:4]([C:5]([H:14])([H:15])[H:16])([C:6](=[O:7])[H:17])[H:13])([H:11])[H:12])([H:8])([H:9])[H:10]>>[C:1]([O:2][C:3](/[C:4](=[C:6](/[O:7][C:5]([H:14])([H:15])[H:16])[H:17])[H:13])([H:11])[H:12])([H:8])([H:9])[H:10]"
C        3.00399171      -0.47497297       0.20790617
O        1.83023708       0.09624034      -0.30332022
C        0.67603428      -0.31082592       0.40340464
C       -0.54650029       0.26956010      -0.22246978
C       -2.72686048      -0.25758546      -0.67727675
C       -1.15753481       1.41665809       0.27501395
O       -2.38749148       1.60051777       0.08698249
H        3.17864413      -0.17073637       1.24895965
H        3.83361116      -0.12783181      -0.40671590
H        2.97122293      -1.57255204       0.17027450
H        0.75042807      -0.00444877       1.45821979
H        0.61679914      -1.41065721       0.40053815
H       -0.58847418       0.18822435      -1.30541359
H       -3.27083842       0.29266971      -1.43433084
H       -2.29319145      -1.16273158      -1.08719659
H       -3.25935421      -0.47630913       0.23839135
H       -0.63072319       2.10478090       0.94703297
17
Frame=5 idx=006454 GeodesicLength=0.26339680392949116 rxn_smarts="[C:1]([O:2][C:3]([C@@:4]([C:5]([H:14])([H:15])[H:16])([C:6](=[O:7])[H:17])[H:13])([H:11])[H:12])([H:8])([H:9])[H:10]>>[C:1]([O:2][C:3](/[C:4](=[C:6](/[O:7][C:5]([H:14])([H:15])[H:16])[H:17])[H:13])([H:11])[H:12])([H:8])([H:9])[H:10]"
C        2.99826596      -0.46727843       0.21268247
O        1.82493198       0.10286752      -0.30073612
C        0.66796673      -0.31826116       0.39227106
C       -0.55202388       0.26588738      -0.23778928
C       -2.71320214      -0.25231644      -0.65809188
C       -1.14769372       1.42226362       0.26283230
O       -2.38548442       1.59601139       0.10998233
H        3.16437063      -0.17100751       1.25738373
H        3.82983926      -0.11069374      -0.39383283
H        2.97161877      -1.56459510       0.16516295
H        0.73314130      -0.02465827       1.45130841
H        0.61253524      -1.41804092       0.37525759
H       -0.58270101       0.18932644      -1.32154729
H       -3.23220503       0.29023497      -1.43891879
H       -2.30040285      -1.17656367      -1.04895434
H       -3.27866317      -0.46625547       0.23958029
H       -0.61029366       2.10307937       0.93340941
17
Frame=6 idx=006454 GeodesicLength=0.31645737227454773 rxn_smarts="[C:1]([O:2][C:3]([C@@:4]([C:5]([H:14])([H:15])[H:16])([C:6](=[O:7])[H:17])[H:13])([H:11])[H:12])([H:8])([H:9])[H:10]>>[C:1]([O:2][C:3](/[C:4](=[C:6](/[O:7][C:5]([H:14])([H:15])[H:16])[H:17])[H:13])([H:11])[H:12])([H:8])([H:9])[H:10]"
C        2.99248977      -0.45940499       0.21769388
O        1.81950260       0.10929634      -0.29816487
C        0.66002154      -0.32586183       0.38101203
C       -0.55750909       0.26198947      -0.25309073
C       -2.69992451      -0.24703401      -0.63882990
C       -1.13793457       1.42733033       0.25075253
O       -2.38242459       1.59118103       0.13315757
H        3.14983787      -0.17106091       1.26592455
H        3.82591162      -0.09321042      -0.38050511
H        2.97231912      -1.55635857       0.16039845
H        0.71589328      -0.04494686       1.44400934
H        0.60868837      -1.42541367       0.34993249
H       -0.57725386       0.18959901      -1.33750203
H       -3.19446456       0.28747257      -1.44176342
H       -2.30796794      -1.18878817      -1.01148234
H       -3.29778479      -0.45599982       0.23963554
H       -0.58940026       2.10121052       0.91882203
17
Frame=7 idx=006454 GeodesicLength=0.3698392897018882 rxn_smarts="[C:1]([O:2][C:3]([C@@:4]([C:5]([H:14])([H:15])[H:16])([C:6](=[O:7])[H:17])[H:13])([H:11])[H:12])([H:8])([H:9])[H:10]>>[C:1]([O:2][C:3](/[C:4](=[C:6](/[O:7][C:5]([H:14])([H:15])[H:16])[H:17])[H:13])([H:11])[H:12])([H:8])([H:9])[H:10]"
C        2.98664156      -0.45126732       0.22300761
O        1.81395070       0.11558064      -0.29560187
C        0.65218522      -0.33374146       0.36943469
C       -0.56292812       0.25783300      -0.26856026
C       -2.68705123      -0.24166369      -0.61936034
C       -1.12810281       1.43191667       0.23853044
O       -2.37828852       1.58631519       0.15635294
H        3.13486952      -0.17101468       1.27471706
H        3.82183043      -0.07507692      -0.36644905
H        2.97340282      -1.54771660       0.15582205
H        0.69856224      -0.06564724       1.43618515
H        0.60529290      -1.43287664       0.32415457
H       -0.57220205       0.18895822      -1.35340581
H       -3.15751175       0.28438144      -1.44324737
H       -2.31582792      -1.19976241      -0.97411553
H       -3.31669926      -0.44515647       0.23897573
H       -0.56812373       2.09893828       0.90355997
17
Frame=8 idx=006454 GeodesicLength=0.4233362586074673 rxn_smarts="[C:1]([O:2][C:3]([C@@:4]([C:5]([H:14])([H:15])[H:16])([C:6](=[O:7])[H:17])[H:13])([H:11])[H:12])([H:8])([H:9])[H:10]>>[C:1]([O:2][C:3](/[C:4](=[C:6](/[O:7][C:5]([H:14])([H:15])[H:16])[H:17])[H:13])([H:11])[H:12])([H:8])([H:9])[H:10]"
C        2.98068706      -0.44302318       0.22850057
O        1.80824406       0.12162727      -0.29310041
C        0.64446611      -0.34169260       0.35777793
C       -0.56833033       0.25354580      -0.28393282
C       -2.67441451      -0.23631311      -0.59983116
C       -1.11841422       1.43599328       0.22657220
O       -2.37305489       1.58107218       0.17970616
H        3.11968700      -0.17071935       1.28350767
H        3.81750153      -0.05682409      -0.35209500
H        2.97465364      -1.53885353       0.15169100
H        0.68136794      -0.08626318       1.42798730
H        0.60224022      -1.44021486       0.29847382
H       -0.56745224       0.18772686      -1.36910282
H       -3.12165901       0.28087710      -1.44303225
H       -2.32380066      -1.20925223      -0.93765041
H       -3.33524133      -0.43415282       0.23704468
H       -0.54648037       2.09646645       0.88748355
17
Frame=9 idx=006454 GeodesicLength=0.47707707028675683 rxn_smarts="[C:1]([O:2][C:3]([C@@:4]([C:5]([H:14])([H:15])[H:16])([C:6](=[O:7])[H:17])[H:13])([H:11])[H:12])([H:8])([H:9])[H:10]>>[C:1]([O:2][C:3](/[C:4](=[C:6](/[O:7][C:5]([H:14])([H:15])[H:16])[H:17])[H:13])([H:11])[H:12])([H:8])([H:9])[H:10]"
C        2.97463318      -0.43459327       0.23424263
O        1.80241053       0.12749129      -0.29067471
C        0.63686470      -0.34984309       0.34588025
C       -0.57368874       0.24908646      -0.29935498
C       -2.66204286      -0.23090659      -0.58010391
C       -1.10872340       1.43963737       0.21466127
O       -2.36678372       1.57571247       0.20316078
H        3.10413402      -0.17027183       1.29245358
H        3.81296384      -0.03815242      -0.33719257
H        2.97618468      -1.52969466       0.14787735
H        0.66419826      -0.10711445       1.41933141
H        0.59958762      -1.44757754       0.27251708
H       -0.56307422       0.18581822      -1.38473108
H       -3.08690013       0.27688249      -1.44136480
H       -2.33185982      -1.21753168      -0.90157041
H       -3.35344804      -0.42264122       0.23409273
H       -0.52445589       2.09369845       0.87077536
17
Frame=10 idx=006454 GeodesicLength=0.5312611214894193 rxn_smarts="[C:1]([O:2][C:3]([C@@:4]([C:5]([H:14])([H:15])[H:16])([C:6](=[O:7])[H:17])[H:13])([H:11])[H:12])([H:8])([H:9])[H:10]>>[C:1]([O:2][C:3](/[C:4](=[C:6](/[O:7][C:5]([H:14])([H:15])[H:16])[H:17])[H:13])([H:11])[H:12])([H:8])([H:9])[H:10]"
C        2.96842125      -0.42587779       0.24033895
O        1.79643051       0.13325740      -0.28828878
C        0.62932114      -0.35832130       0.33348243
C       -0.57902607       0.24444197      -0.31503294
C       -2.64997851      -0.22537737      -0.56013181
C       -1.09889525       1.44289994       0.20258251
O       -2.35937812       1.57042002       0.22635855
H        3.08791016      -0.16991161       1.30173049
H        3.80820156      -0.01867340      -0.32129968
H        2.97809240      -1.52006138       0.14413223
H        0.64680431      -0.12863060       1.40999181
H        0.59736712      -1.45502615       0.24571128
H       -0.55913806       0.18316005      -1.40047137
H       -3.05294314       0.27243312      -1.43875190
H       -2.34002582      -1.22482296      -0.86492110
H       -3.37094640      -0.41021330       0.23093276
H       -0.50221710       2.09030336       0.85363657
17
Frame=11 idx=006454 GeodesicLength=0.5856844949185255 rxn_smarts="[C:1]([O:2][C:3]([C@@:4]([C:5]([H:14])([H:15])[H:16])([C:6](=[O:7])[H:17])[H:13])([H:11])[H:12])([H:8])([H:9])[H:10]>>[C:1]([O:2][C:3](/[C:4](=[C:6](/[O:7][C:5]([H:14])([H:15])[H:16])[H:17])[H:13])([H:11])[H:12])([H:8])([H:9])[H:10]"
C        2.96203554      -0.41699820       0.24665821
O        1.79027601       0.13882972      -0.28600393
C        0.62187759      -0.36696036       0.32085570
C       -0.58436534       0.23965641      -0.33068933
C       -2.63806795      -0.21980914      -0.53999008
C       -1.08908580       1.44573338       0.19068081
O       -2.35081315       1.56492757       0.24967615
H        3.07127472      -0.16939983       1.31110261
H        3.80311348       0.00115738      -0.30489589
H        2.98019462      -1.51013781       0.14072383
H        0.62946679      -0.15032801       1.40018957
H        0.59551595      -1.46243880       0.21866269
H       -0.55557921       0.17996255      -1.41611863
H       -3.02015576       0.26744427      -1.43478280
H       -2.34816087      -1.23099303      -0.82865556
H       -3.38794355      -0.39727253       0.22671107
H       -0.47958307       2.08662643       0.83587558
17
Frame=12 idx=006454 GeodesicLength=0.6404011129202709 rxn_smarts="[C:1]([O:2][C:3]([C@@:4]([C:5]([H:14])([H:15])[H:16])([C:6](=[O:7])[H:17])[H:13])([H:11])[H:12])([H:8])([H:9])[H:10]>>[C:1]([O:2][C:3](/[C:4](=[C:6](/[O:7][C:5]([H:14])([H:15])[H:16])[H:17])[H:13])([H:11])[H:12])([H:8])([H:9])[H:10]"
C        2.95547676      -0.40800255       0.25321282
O        1.78397026       0.14421573      -0.28385525
C        0.61452025      -0.37575946       0.30793528
C       -0.58971049       0.23479264      -0.34641677
C       -2.62630015      -0.21417726      -0.51971171
C       -1.07931990       1.44825763       0.17885538
O       -2.34127088       1.55937875       0.27307099
H        3.05416577      -0.16884092       1.32060877
H        3.79772490       0.02131153      -0.28792504
H        2.98250886      -1.49997732       0.13763054
H        0.61211832      -0.17225009       1.38988446
H        0.59403098      -1.46982466       0.19127834
H       -0.55238882       0.17630764      -1.43178765
H       -2.98849462       0.26198322      -1.42973726
H       -2.35610828      -1.23619099      -0.79253289
H       -3.40413077      -0.38385527       0.22183729
H       -0.45679218       2.08263138       0.81765270
17
Frame=13 idx=006454 GeodesicLength=0.6954726606922014 rxn_smarts="[C:1]([O:2][C:3]([C@@:4]([C:5]([H:14])([H:15])[H:16])([C:6](=[O:7])[H:17])[H:13])([H:11])[H:12])([H:8])([H:9])[H:10]>>[C:1]([O:2][C:3](/[C:4](=[C:6](/[O:7][C:5]([H:14])([H:15])[H:16])[H:17])[H:13])([H:11])[H:12])([H:8])([H:9])[H:10]"
C        2.94861560      -0.39890404       0.26001976
O        1.77744321       0.14936368      -0.28181113
C        0.60720812      -0.38462669       0.29471148
C       -0.59506576       0.22988423      -0.36220425
C       -2.61460325      -0.20845022      -0.49937060
C       -1.06950434       1.45041427       0.16706479
O       -2.33074327       1.55371986       0.29663054
H        3.03657050      -0.16818499       1.33013343
H        3.79187274       0.04162397      -0.27035625
H        2.98477004      -1.48947795       0.13497463
H        0.59483994      -0.19426923       1.37893898
H        0.59274756      -1.47697078       0.16361626
H       -0.54962782       0.17227016      -1.44735140
H       -2.95797586       0.25616118      -1.42368035
H       -2.36374979      -1.24042179      -0.75668194
H       -3.41907117      -0.37025422       0.21644727
H       -0.43372643       2.07812256       0.79891878
17
Frame=14 idx=006454 GeodesicLength=0.7507629583700189 rxn_smarts="[C:1]([O:2][C:3]([C@@:4]([C:5]([H:14])([H:15])[H:16])([C:6](=[O:7])[H:17])[H:13])([H:11])[H:12])([H:8])([H:9])[H:10]>>[C:1]([O:2][C:3](/[C:4](=[C:6](/[O:7][C:5]([H:14])([H:15])[H:16])[H:17])[H:13])([H:11])[H:12])([H:8])([H:9])[H:10]"
C        2.94153371      -0.38979654       0.26695666
O        1.77074603       0.15429165      -0.27995135
C        0.59997320      -0.39351604       0.28133108
C       -0.60045744       0.22496913      -0.37794202
C       -2.60294219      -0.20268354      -0.47907479
C       -1.05983409       1.45229532       0.15548770
O       -2.31930867       1.54786050       0.32033277
H        3.01861770      -0.16740679       1.33962937
H        3.78563604       0.06193143      -0.25252794
H        2.98704801      -1.47887932       0.13274042
H        0.57767238      -0.21619794       1.36760684
H        0.59172460      -1.48397563       0.13595765
H       -0.54716966       0.16796801      -1.46285421
H       -2.92861058       0.24993945      -1.41675980
H       -2.37103323      -1.24373564      -0.72123454
H       -3.43289383      -0.35642216       0.21040598
H       -0.41070197       2.07335810       0.77989618
17
Frame=15 idx=006454 GeodesicLength=0.8062474474280907 rxn_smarts="[C:1]([O:2][C:3]([C@@:4]([C:5]([H:14])([H:15])[H:16])([C:6](=[O:7])[H:17])[H:13])([H:11])[H:12])([H:8])([H:9])[H:10]>>[C:1]([O:2][C:3](/[C:4](=[C:6](/[O:7][C:5]([H:14])([H:15])[H:16])[H:17])[H:13])([H:11])[H:12])([H:8])([H:9])[H:10]"
C        2.93421014      -0.38074447       0.27394300
O        1.76385854       0.15897718      -0.27826181
C        0.59281739      -0.40232404       0.26791985
C       -0.60590096       0.22006641      -0.39352625
C       -2.59128421      -0.19687736      -0.45896452
C       -1.05035595       1.45388971       0.14419245
O       -2.30706587       1.54173036       0.34418875
H        3.00044891      -0.16647409       1.34895408
H        3.77896019       0.08201178      -0.23465522
H        2.98919340      -1.46822746       0.13096001
H        0.56074216      -0.23780377       1.35596668
H        0.59088199      -1.49072203       0.10858236
H       -0.54498115       0.16347930      -1.47815921
H       -2.90035312       0.24343692      -1.40915267
H       -2.37786560      -1.24618282      -0.68638885
H       -3.44546211      -0.34254207       0.20371011
H       -0.38784376       2.06830643       0.76069124
17
Frame=16 idx=006454 GeodesicLength=0.8618699697184208 rxn_smarts="[C:1]([O:2][C:3]([C@@:4]([C:5]([H:14])([H:15])[H:16])([C:6](=[O:7])[H:17])[H:13])([H:11])[H:12])([H:8])([H:9])[H:10]>>[C:1]([O:2][C:3](/[C:4](=[C:6](/[O:7][C:5]([H:14])([H:15])[H:16])[H:17])[H:13])([H:11])[H:12])([H:8])([H:9])[H:10]"
C        2.92665451      -0.37180388       0.28090348
O        1.75678289       0.16341060      -0.27674054
C        0.58574218      -0.41097764       0.25460002
C       -0.61141075       0.21518701      -0.40886889
C       -2.57961846      -0.19103662      -0.43917481
C       -1.04113124       1.45520828       0.13323972
O       -2.29410963       1.53528415       0.36822089
H        2.98219186      -0.16535001       1.35801166
H        3.77184267       0.10169224      -0.21695420
H        2.99111873      -1.45759983       0.12965059
H        0.54413105      -0.25889765       1.34413709
H        0.59016199      -1.49716392       0.08174190
H       -0.54300687       0.15886286      -1.49317702
H       -2.87316406       0.23677505      -1.40103510
H       -2.38421361      -1.24781304      -0.65236289
H       -3.45668353      -0.32878428       0.19641567
H       -0.36528772       2.06300667       0.74139243
