12
Frame=0 idx=002803 GeodesicLength=0.0 rxn_smarts="[C:1]([C:2](=[O:3])[C@@:4]1([H:10])[C:5]([H:11])([H:12])[O:6]1)([H:7])([H:8])[H:9]>>[C:1]([C@@:2]12[O:3][C@:4]1([H:10])[C:5]([H:11])([H:12])[O:6]2)([H:7])([H:8])[H:9]"
C       -1.45139532      -0.55073786      -0.65911124
C       -0.54726482      -0.14885966       0.46105152
O       -0.86612438      -0.11150809       1.66678790
C        0.92690474      -0.37225705       0.60914377
C        1.47379816       0.77897192      -0.09843618
O        0.18459572       1.33986736       0.03281404
H       -0.94364492      -0.50556409      -1.62105431
H       -1.80417569      -1.56701693      -0.47726611
H       -2.31068529       0.11949429      -0.67096237
H        1.30051845      -0.90203313       1.48081694
H        1.77877744       0.57335563      -1.13456484
H        2.25869586       1.34628757       0.41078090
12
Frame=1 idx=002803 GeodesicLength=0.046681562808608794 rxn_smarts="[C:1]([C:2](=[O:3])[C@@:4]1([H:10])[C:5]([H:11])([H:12])[O:6]1)([H:7])([H:8])[H:9]>>[C:1]([C@@:2]12[O:3][C@:4]1([H:10])[C:5]([H:11])([H:12])[O:6]2)([H:7])([H:8])[H:9]"
C       -1.45248650      -0.54899059      -0.66396814
C       -0.55017903      -0.15477083       0.45854986
O       -0.86132874      -0.14320935       1.66955007
C        0.92048833      -0.35731514       0.62801733
C        1.47448035       0.77759590      -0.10120064
O        0.18712040       1.33958176       0.04343350
H       -0.94134251      -0.50560292      -1.62421770
H       -1.81404388      -1.56223853      -0.48381366
H       -2.30495722       0.13006158      -0.67916101
H        1.31225009      -0.88283166       1.49373567
H        1.76584459       0.56049076      -1.13803497
H        2.26415412       1.34722901       0.39710969
12
Frame=2 idx=002803 GeodesicLength=0.09329903055079639 rxn_smarts="[C:1]([C:2](=[O:3])[C@@:4]1([H:10])[C:5]([H:11])([H:12])[O:6]1)([H:7])([H:8])[H:9]>>[C:1]([C@@:2]12[O:3][C@:4]1([H:10])[C:5]([H:11])([H:12])[O:6]2)([H:7])([H:8])[H:9]"
C       -1.45359655      -0.54728582      -0.66859382
C       -0.55284537      -0.16056270       0.45602176
O       -0.85618525      -0.17479525       1.67173669
C        0.91393013      -0.34210260       0.64657277
C        1.47513767       0.77618119      -0.10377157
O        0.18964901       1.33936878       0.05336239
H       -0.93931269      -0.50590876      -1.62727731
H       -1.82390576      -1.55739390      -0.48994086
H       -2.29915631       0.14050963      -0.68700346
H        1.32357405      -0.86382146       1.50577378
H        1.75349957       0.54771592      -1.14087676
H        2.26921150       1.34809497       0.38399640
12
Frame=3 idx=002803 GeodesicLength=0.13982185712109757 rxn_smarts="[C:1]([C:2](=[O:3])[C@@:4]1([H:10])[C:5]([H:11])([H:12])[O:6]1)([H:7])([H:8])[H:9]>>[C:1]([C@@:2]12[O:3][C@:4]1([H:10])[C:5]([H:11])([H:12])[O:6]2)([H:7])([H:8])[H:9]"
C       -1.45474621      -0.54563766      -0.67297191
C       -0.55528551      -0.16619752       0.45345705
O       -0.85067436      -0.20617272       1.67335328
C        0.90719983      -0.32661022       0.66478998
C        1.47580796       0.77474858      -0.10613252
O        0.19218465       1.33924888       0.06250919
H       -0.93758574      -0.50646826      -1.63022645
H       -1.83372400      -1.55251508      -0.49559314
H       -2.29334472       0.15077079      -0.69447061
H        1.33443421      -0.84515568       1.51685193
H        1.74185495       0.53506908      -1.14308349
H        2.27387894       1.34891982       0.37151669
12
Frame=4 idx=002803 GeodesicLength=0.18626874387069986 rxn_smarts="[C:1]([C:2](=[O:3])[C@@:4]1([H:10])[C:5]([H:11])([H:12])[O:6]1)([H:7])([H:8])[H:9]>>[C:1]([C@@:2]12[O:3][C@:4]1([H:10])[C:5]([H:11])([H:12])[O:6]2)([H:7])([H:8])[H:9]"
C       -1.45592044      -0.54404221      -0.67711326
C       -0.55749888      -0.17165379       0.45086125
O       -0.84476092      -0.23732582       1.67441594
C        0.90027847      -0.31081410       0.68269795
C        1.47647708       0.77328658      -0.10827121
O        0.19471734       1.33924274       0.07090530
H       -0.93615654      -0.50726521      -1.63307565
H       -1.84344865      -1.54760476      -0.50080655
H       -2.28752242       0.16082999      -0.70156086
H        1.34480790      -0.82684240       1.52696105
H        1.73085541       0.52249821      -1.14467670
H        2.27817164       1.34969078       0.35966274
12
Frame=5 idx=002803 GeodesicLength=0.2326448872793005 rxn_smarts="[C:1]([C:2](=[O:3])[C@@:4]1([H:10])[C:5]([H:11])([H:12])[O:6]1)([H:7])([H:8])[H:9]>>[C:1]([C@@:2]12[O:3][C@:4]1([H:10])[C:5]([H:11])([H:12])[O:6]2)([H:7])([H:8])[H:9]"
C       -1.45712636      -0.54249825      -0.68102684
C       -0.55950148      -0.17695219       0.44824403
O       -0.83845280      -0.26832465       1.67493949
C        0.89315984      -0.29469838       0.70034694
C        1.47715712       0.77180577      -0.11019211
O        0.19723637       1.33937415       0.07857021
H       -0.93499875      -0.50828740      -1.63582480
H       -1.85311982      -1.54266384      -0.50558550
H       -2.28169664       0.17070404      -0.70831636
H        1.35470895      -0.80888286       1.53614922
H        1.72048527       0.50999465      -1.14568582
H        2.28214830       1.35042896       0.34838154
12
Frame=6 idx=002803 GeodesicLength=0.2789210479256775 rxn_smarts="[C:1]([C:2](=[O:3])[C@@:4]1([H:10])[C:5]([H:11])([H:12])[O:6]1)([H:7])([H:8])[H:9]>>[C:1]([C@@:2]12[O:3][C@:4]1([H:10])[C:5]([H:11])([H:12])[O:6]2)([H:7])([H:8])[H:9]"
C       -1.45837164      -0.54101481      -0.68470419
C       -0.56131472      -0.18203216       0.44560009
O       -0.83172724      -0.29903243       1.67493347
C        0.88580184      -0.27823706       0.71772512
C        1.47786789       0.77030777      -0.11187467
O        0.19974643       1.33966974       0.08544666
H       -0.93414292      -0.50949734      -1.63847506
H       -1.86263714      -1.53773955      -0.50991828
H       -2.27594214       0.18030850      -0.71470050
H        1.36409787      -0.79141586       1.54432304
H        1.71080394       0.49755518      -1.14610175
H        2.28581785       1.35112803       0.33774605
12
Frame=7 idx=002803 GeodesicLength=0.32511384365779183 rxn_smarts="[C:1]([C:2](=[O:3])[C@@:4]1([H:10])[C:5]([H:11])([H:12])[O:6]1)([H:7])([H:8])[H:9]>>[C:1]([C@@:2]12[O:3][C@:4]1([H:10])[C:5]([H:11])([H:12])[O:6]2)([H:7])([H:8])[H:9]"
C       -1.45964944      -0.53959264      -0.68815299
C       -0.56294391      -0.18689234       0.44293829
O       -0.82456167      -0.32947172       1.67440649
C        0.87818883      -0.26139765       0.73487779
C        1.47860159       0.76879620      -0.11330811
O        0.20223942       1.34015558       0.09156314
H       -0.93356352      -0.51091010      -1.64102061
H       -1.87201632      -1.53283000      -0.51380760
H       -2.27024369       0.18966042      -0.72075403
H        1.37297608      -0.77447171       1.55146004
H        1.70176857       0.48515082      -1.14593050
H        2.28920405       1.35180313       0.32772809
12
Frame=8 idx=002803 GeodesicLength=0.3712284490688398 rxn_smarts="[C:1]([C:2](=[O:3])[C@@:4]1([H:10])[C:5]([H:11])([H:12])[O:6]1)([H:7])([H:8])[H:9]>>[C:1]([C@@:2]12[O:3][C@:4]1([H:10])[C:5]([H:11])([H:12])[O:6]2)([H:7])([H:8])[H:9]"
C       -1.46095985      -0.53823140      -0.69138017
C       -0.56440392      -0.19152514       0.44027149
O       -0.81695369      -0.35966974       1.67337589
C        0.87029987      -0.24414020       0.75186254
C        1.47936343       0.76727747      -0.11448422
O        0.20470743       1.34085771       0.09693320
H       -0.93323841      -0.51251587      -1.64346207
H       -1.88125808      -1.52794250      -0.51725588
H       -2.26461527       0.19875793      -0.72650984
H        1.38134836      -0.75808622       1.55753313
H        1.69336035       0.47274865      -1.14518095
H        2.29234979       1.35246931       0.31829688
12
Frame=9 idx=002803 GeodesicLength=0.41727935919270637 rxn_smarts="[C:1]([C:2](=[O:3])[C@@:4]1([H:10])[C:5]([H:11])([H:12])[O:6]1)([H:7])([H:8])[H:9]>>[C:1]([C@@:2]12[O:3][C@:4]1([H:10])[C:5]([H:11])([H:12])[O:6]2)([H:7])([H:8])[H:9]"
C       -1.46229203      -0.53692562      -0.69439000
C       -0.56569628      -0.19594038       0.43760260
O       -0.80887043      -0.38966053       1.67184041
C        0.86211209      -0.22643450       0.76870155
C        1.48013599       0.76574512      -0.11539542
O        0.20713159       1.34177874       0.10158030
H       -0.93313880      -0.51432318      -1.64579294
H       -1.89038018      -1.52305442      -0.52026384
H       -2.25903098       0.20762401      -0.73199532
H        1.38922804      -0.74225160       1.56253218
H        1.68555015       0.46031768      -1.14384963
H        2.29525087       1.35312466       0.30943011
12
Frame=10 idx=002803 GeodesicLength=0.4632876494728603 rxn_smarts="[C:1]([C:2](=[O:3])[C@@:4]1([H:10])[C:5]([H:11])([H:12])[O:6]1)([H:7])([H:8])[H:9]>>[C:1]([C@@:2]12[O:3][C@:4]1([H:10])[C:5]([H:11])([H:12])[O:6]2)([H:7])([H:8])[H:9]"
C       -1.46364187      -0.53567326      -0.69718781
C       -0.56682625      -0.20013087       0.43494073
O       -0.80028659      -0.41946602       1.66980112
C        0.85359612      -0.20823722       0.78545069
C        1.48091395       0.76419775      -0.11602618
O        0.20951210       1.34294212       0.10551765
H       -0.93325206      -0.51632354      -1.64801079
H       -1.89937581      -1.51817380      -0.52284339
H       -2.25349175       0.21626015      -0.73722938
H        1.39660954      -0.72698219       1.56640805
H        1.67830977       0.44780887      -1.14192539
H        2.29793285       1.35377801       0.30110470
12
Frame=11 idx=002803 GeodesicLength=0.5092526288913088 rxn_smarts="[C:1]([C:2](=[O:3])[C@@:4]1([H:10])[C:5]([H:11])([H:12])[O:6]1)([H:7])([H:8])[H:9]>>[C:1]([C@@:2]12[O:3][C@:4]1([H:10])[C:5]([H:11])([H:12])[O:6]2)([H:7])([H:8])[H:9]"
C       -1.46500573      -0.53447095      -0.69978059
C       -0.56779136      -0.20411389       0.43228712
O       -0.79115881      -0.44912757       1.66725269
C        0.84473573      -0.18953007       0.80213535
C        1.48168753       0.76262764      -0.11636451
O        0.21183406       1.34434932       0.10876887
H       -0.93355791      -0.51853335      -1.65011671
H       -1.90827496      -1.51327996      -0.52499087
H       -2.24797920       0.22469448      -0.74223886
H        1.40349300      -0.71224307       1.56914430
H        1.67161797       0.43520129      -1.13940295
H        2.30039969       1.35442613       0.29330616
12
Frame=12 idx=002803 GeodesicLength=0.5551859050006009 rxn_smarts="[C:1]([C:2](=[O:3])[C@@:4]1([H:10])[C:5]([H:11])([H:12])[O:6]1)([H:7])([H:8])[H:9]>>[C:1]([C@@:2]12[O:3][C@:4]1([H:10])[C:5]([H:11])([H:12])[O:6]2)([H:7])([H:8])[H:9]"
C       -1.46638700      -0.53331520      -0.70217532
C       -0.56859014      -0.20790392       0.42964083
O       -0.78144216      -0.47869519       1.66418127
C        0.83550672      -0.17029682       0.81878390
C        1.48245258       0.76102528      -0.11639647
O        0.21409547       1.34600422       0.11135566
H       -0.93405062      -0.52094958      -1.65211324
H       -1.91710180      -1.50836398      -0.52671148
H       -2.24248828       0.23294427      -0.74704390
H        1.40987782      -0.69797889       1.57073314
H        1.66545727       0.42246433      -1.13627196
H        2.30267014       1.35506547       0.28601758
12
Frame=13 idx=002803 GeodesicLength=0.6011223395743647 rxn_smarts="[C:1]([C:2](=[O:3])[C@@:4]1([H:10])[C:5]([H:11])([H:12])[O:6]1)([H:7])([H:8])[H:9]>>[C:1]([C@@:2]12[O:3][C@:4]1([H:10])[C:5]([H:11])([H:12])[O:6]2)([H:7])([H:8])[H:9]"
C       -1.46778027      -0.53219985      -0.70437818
C       -0.56921036      -0.21151607       0.42699274
O       -0.77106479      -0.50821566       1.66054990
C        0.82588330      -0.15053460       0.83540247
C        1.48319241       0.75937096      -0.11610449
O        0.21630458       1.34789905       0.11331746
H       -0.93473030      -0.52357531      -1.65399882
H       -1.92587306      -1.50340669      -0.52801716
H       -2.23699227       0.24102752      -0.75165002
H        1.41573901      -0.68408852       1.57117480
H        1.65978238       0.40956902      -1.13251771
H        2.30474936       1.35567016       0.27922904
12
Frame=14 idx=002803 GeodesicLength=0.6470377843244939 rxn_smarts="[C:1]([C:2](=[O:3])[C@@:4]1([H:10])[C:5]([H:11])([H:12])[O:6]1)([H:7])([H:8])[H:9]>>[C:1]([C@@:2]12[O:3][C@:4]1([H:10])[C:5]([H:11])([H:12])[O:6]2)([H:7])([H:8])[H:9]"
C       -1.46921052      -0.53111388      -0.70640970
C       -0.56963250      -0.21503048       0.42431580
O       -0.75993414      -0.53780773       1.65631779
C        0.81587853      -0.13033712       0.85194502
C        1.48391283       0.75762745      -0.11549421
O        0.21845564       1.34998767       0.11470374
H       -0.93562873      -0.52638641      -1.65580856
H       -1.93466453      -1.49837467      -0.52893329
H       -2.23149290       0.24900018      -0.75605115
H        1.42107038      -0.67028923       1.57065947
H        1.65458862       0.39653429      -1.12817473
H        2.30665731       1.35618991       0.27292982
12
Frame=15 idx=002803 GeodesicLength=0.692925866076218 rxn_smarts="[C:1]([C:2](=[O:3])[C@@:4]1([H:10])[C:5]([H:11])([H:12])[O:6]1)([H:7])([H:8])[H:9]>>[C:1]([C@@:2]12[O:3][C@:4]1([H:10])[C:5]([H:11])([H:12])[O:6]2)([H:7])([H:8])[H:9]"
C       -1.47069671      -0.53006669      -0.70827065
C       -0.56986582      -0.21841904       0.42158618
O       -0.74800712      -0.56733919       1.65145978
C        0.80545692      -0.10974609       0.86836760
C        1.48463850       0.75577261      -0.11454402
O        0.22059715       1.35226771       0.11550171
H       -0.93680581      -0.52929586      -1.65755549
H       -1.94337740      -1.49334162      -0.52947457
H       -2.22608109       0.25678021      -0.76018224
H        1.42580214      -0.65656328       1.56916584
H        1.64990663       0.38337584      -1.12323449
H        2.30843259       1.35657540       0.26718036
12
Frame=16 idx=002803 GeodesicLength=0.7388008821718739 rxn_smarts="[C:1]([C:2](=[O:3])[C@@:4]1([H:10])[C:5]([H:11])([H:12])[O:6]1)([H:7])([H:8])[H:9]>>[C:1]([C@@:2]12[O:3][C@:4]1([H:10])[C:5]([H:11])([H:12])[O:6]2)([H:7])([H:8])[H:9]"
C       -1.47226840      -0.52903622      -0.70999317
C       -0.56986912      -0.22180715       0.41873952
O       -0.73513678      -0.59696387       1.64588062
C        0.79465490      -0.08896817       0.88452112
C        1.48536565       0.75373483      -0.11328236
O        0.22274343       1.35463398       0.11581770
H       -0.93833586      -0.53225262      -1.65929652
H       -1.95210237      -1.48824735      -0.52970131
H       -2.22073534       0.26444595      -0.76398687
H        1.42991308      -0.64239963       1.56711038
H        1.64569098       0.37014416      -1.11778391
H        2.31007984       1.35671608       0.26197480
