18
Frame=0 idx=008124 GeodesicLength=0.0 rxn_smarts="[C:1]([N:2]([C:3](=[O:4])[C:5]([C:6]([H:13])([H:14])[H:15])([C:7]([H:16])([H:17])[H:18])[H:12])[H:11])([H:8])([H:9])[H:10]>>[C+:1]([N:2]([C:3]([O-:4])=[C:5]([C:6]([H:13])([H:14])[H:15])[C:7]([H:16])([H:17])[H:18])[H:11])([H:9])[H:10].[H:8][H:12]"
C        2.40183333       0.14060327      -0.49035437
N        1.55606874      -0.68309952       0.10468691
C        0.57656503      -0.01918556       0.94268233
O        0.98444373       0.75554639       1.79132880
C       -0.67418442      -0.04941708       0.28553582
C       -1.24635014      -1.25106886      -0.42383585
C       -1.70378749       0.94140781       0.75217416
H        1.08314170       1.09432704      -1.18695564
H        2.95243333      -0.20732234      -1.35439122
H        2.77967739       0.97003085       0.08932299
H        1.21138246      -1.44202323      -0.46179748
H        0.29340111       0.90002594      -0.86968523
H       -2.05558634      -1.68060998       0.17665385
H       -0.54229228      -2.06422198      -0.60919207
H       -1.68496193      -0.97314390      -1.38615688
H       -2.41686599       1.16679850      -0.04487119
H       -2.27512375       0.53511991       1.59504778
H       -1.23979443       1.86623266       1.08980730
18
Frame=1 idx=008124 GeodesicLength=0.07966001812305158 rxn_smarts="[C:1]([N:2]([C:3](=[O:4])[C:5]([C:6]([H:13])([H:14])[H:15])([C:7]([H:16])([H:17])[H:18])[H:12])[H:11])([H:8])([H:9])[H:10]>>[C+:1]([N:2]([C:3]([O-:4])=[C:5]([C:6]([H:13])([H:14])[H:15])[C:7]([H:16])([H:17])[H:18])[H:11])([H:9])[H:10].[H:8][H:12]"
C        2.40645267       0.15329240      -0.48820810
N        1.56099279      -0.68094390       0.09921910
C        0.57331245      -0.03034092       0.93682481
O        0.98036599       0.73226329       1.79751847
C       -0.67477124      -0.04263964       0.26920603
C       -1.25614126      -1.25208275      -0.41947022
C       -1.70185859       0.94558205       0.74884121
H        1.09051759       1.09492609      -1.20671128
H        2.98561014      -0.20095940      -1.33096515
H        2.77659991       0.97214261       0.11215408
H        1.22230675      -1.43680428      -0.47511535
H        0.28009623       0.89221737      -0.88998451
H       -2.04384329      -1.68755154       0.20476931
H       -0.55183311      -2.06027145      -0.62451737
H       -1.72300445      -0.97988339      -1.37008047
H       -2.42179741       1.17217070      -0.04179217
H       -2.26696838       0.53812914       1.59507718
H       -1.23603679       1.87075363       1.08323443
18
Frame=2 idx=008124 GeodesicLength=0.15907790367088198 rxn_smarts="[C:1]([N:2]([C:3](=[O:4])[C:5]([C:6]([H:13])([H:14])[H:15])([C:7]([H:16])([H:17])[H:18])[H:12])[H:11])([H:8])([H:9])[H:10]>>[C+:1]([N:2]([C:3]([O-:4])=[C:5]([C:6]([H:13])([H:14])[H:15])[C:7]([H:16])([H:17])[H:18])[H:11])([H:9])[H:10].[H:8][H:12]"
C        2.41084449       0.16622751      -0.48603000
N        1.56589325      -0.67873886       0.09359921
C        0.57002062      -0.04175385       0.93075794
O        0.97612500       0.70833158       1.80356681
C       -0.67535833      -0.03620349       0.25309715
C       -1.26591683      -1.25306017      -0.41491093
C       -1.69964667       0.94973201       0.74544827
H        1.09821235       1.09544974      -1.22692779
H        3.01821809      -0.19378588      -1.30646304
H        2.77283670       0.97416095       0.13480397
H        1.23341817      -1.43148344      -0.48859333
H        0.26630330       0.88386195      -0.91072277
H       -2.03153528      -1.69406115       0.23235074
H       -0.56201861      -2.05634904      -0.63971133
H       -1.76056478      -0.98650580      -1.35300693
H       -2.42626253       1.17766471      -0.03878627
H       -2.25870230       0.54132219       1.59497737
H       -1.23186664       1.87519106       1.07655091
18
Frame=3 idx=008124 GeodesicLength=0.23829295377714999 rxn_smarts="[C:1]([N:2]([C:3](=[O:4])[C:5]([C:6]([H:13])([H:14])[H:15])([C:7]([H:16])([H:17])[H:18])[H:12])[H:11])([H:8])([H:9])[H:10]>>[C+:1]([N:2]([C:3]([O-:4])=[C:5]([C:6]([H:13])([H:14])[H:15])[C:7]([H:16])([H:17])[H:18])[H:11])([H:9])[H:10].[H:8][H:12]"
C        2.41501095       0.17940315      -0.48379526
N        1.57077626      -0.67648487       0.08784243
C        0.56670466      -0.05343058       0.92449683
O        0.97173229       0.68375152       1.80946084
C       -0.67593934      -0.03012395       0.23721843
C       -1.27567890      -1.25400954      -0.41016026
C       -1.69713815       0.95385794       0.74199693
H        1.10628444       1.09591780      -1.24758160
H        3.05013430      -0.18574609      -1.28094608
H        2.76837816       0.97610274       0.15726184
H        1.24472707      -1.42605844      -0.50221193
H        0.25199851       0.87491137      -0.93188986
H       -2.01875339      -1.70013049       0.25934534
H       -0.57286534      -2.05249578      -0.65469751
H       -1.79755244      -0.99298856      -1.33498981
H       -2.43024499       1.18328351      -0.03585787
H       -2.25031629       0.54470239       1.59475203
H       -1.22725781       1.87953790       1.06975551
18
Frame=4 idx=008124 GeodesicLength=0.31739215858126435 rxn_smarts="[C:1]([N:2]([C:3](=[O:4])[C:5]([C:6]([H:13])([H:14])[H:15])([C:7]([H:16])([H:17])[H:18])[H:12])[H:11])([H:8])([H:9])[H:10]>>[C+:1]([N:2]([C:3]([O-:4])=[C:5]([C:6]([H:13])([H:14])[H:15])[C:7]([H:16])([H:17])[H:18])[H:11])([H:9])[H:10].[H:8][H:12]"
C        2.41895688       0.19281507      -0.48147508
N        1.57564597      -0.67417750       0.08195755
C        0.56337782      -0.06537690       0.91805048
O        0.96719735       0.65852277       1.81518269
C       -0.67650866      -0.02441500       0.22157253
C       -1.28543232      -1.25494188      -0.40521716
C       -1.69432071       0.95796007       0.73848691
H        1.11481505       1.09637398      -1.26864337
H        3.08125523      -0.17679671      -1.25447143
H        2.76321949       0.97798002       0.17952879
H        1.25624202      -1.42051791      -0.51596283
H        0.23715028       0.86531204      -0.95348115
H       -2.00558420      -1.70576085       0.28571959
H       -0.58438682      -2.04875375      -0.66940706
H       -1.83390967      -0.99931282      -1.31607927
H       -2.43373437       1.18902803      -0.03300942
H       -2.24179734       0.54827320       1.59440737
H       -1.22218600       1.88378813       1.06284088
18
Frame=5 idx=008124 GeodesicLength=0.39636792858805947 rxn_smarts="[C:1]([N:2]([C:3](=[O:4])[C:5]([C:6]([H:13])([H:14])[H:15])([C:7]([H:16])([H:17])[H:18])[H:12])[H:11])([H:8])([H:9])[H:10]>>[C+:1]([N:2]([C:3]([O-:4])=[C:5]([C:6]([H:13])([H:14])[H:15])[C:7]([H:16])([H:17])[H:18])[H:11])([H:9])[H:10].[H:8][H:12]"
C        2.42268496       0.20646534      -0.47904113
N        1.58050874      -0.67181723       0.07595966
C        0.56005139      -0.07760387       0.91143243
O        0.96252883       0.63264722       1.82072394
C       -0.67706032      -0.01908870       0.20616164
C       -1.29518261      -1.25586701      -0.40008039
C       -1.69118018       0.96203851       0.73491676
H        1.12386711       1.09684628      -1.29008213
H        3.11147958      -0.16689681      -1.22711614
H        2.75735525       0.97981416       0.20160550
H        1.26797575      -1.41485623      -0.52983336
H        0.22173903       0.85501748      -0.97548193
H       -1.99212111      -1.71095208       0.31143667
H       -0.59659577      -2.04516255      -0.68377295
H       -1.86957655      -1.00545721      -1.29632962
H       -2.43671761       1.19489809      -0.03024560
H       -2.23313051       0.55203850       1.59394772
H       -1.21662599       1.88793610       1.05579893
18
Frame=6 idx=008124 GeodesicLength=0.4753201460420854 rxn_smarts="[C:1]([N:2]([C:3](=[O:4])[C:5]([C:6]([H:13])([H:14])[H:15])([C:7]([H:16])([H:17])[H:18])[H:12])[H:11])([H:8])([H:9])[H:10]>>[C+:1]([N:2]([C:3]([O-:4])=[C:5]([C:6]([H:13])([H:14])[H:15])[C:7]([H:16])([H:17])[H:18])[H:11])([H:9])[H:10].[H:8][H:12]"
C        2.42620217       0.22035470      -0.47645854
N        1.58536693      -0.66939397       0.06984692
C        0.55673556      -0.09011923       0.90464115
O        0.95773147       0.60611786       1.82605972
C       -0.67759050      -0.01415908       0.19097677
C       -1.30494097      -1.25679978      -0.39474605
C       -1.68770305       0.96609311       0.73127997
H        1.13354879       1.09741932      -1.31185061
H        3.14072738      -0.15601627      -1.19893867
H        2.75078429       0.98160926       0.22351216
H        1.27993546      -1.40904820      -0.54383390
H        0.20572702       0.84397021      -0.99789158
H       -1.97845041      -1.71571281       0.33649040
H       -0.60950539      -2.04176926      -0.69772963
H       -1.90453433      -1.01141897      -1.27577743
H       -2.43918954       1.20089187      -0.02756886
H       -2.22429464       0.55600524       1.59337853
H       -1.21055022       1.89197599       1.04860968
18
Frame=7 idx=008124 GeodesicLength=0.5542912340241594 rxn_smarts="[C:1]([N:2]([C:3](=[O:4])[C:5]([C:6]([H:13])([H:14])[H:15])([C:7]([H:16])([H:17])[H:18])[H:12])[H:11])([H:8])([H:9])[H:10]>>[C+:1]([N:2]([C:3]([O-:4])=[C:5]([C:6]([H:13])([H:14])[H:15])[C:7]([H:16])([H:17])[H:18])[H:11])([H:9])[H:10].[H:8][H:12]"
C        2.42951468       0.23448641      -0.47369365
N        1.59022188      -0.66689863       0.06362022
C        0.55343841      -0.10292796       0.89767656
O        0.95280816       0.57893081       1.83116540
C       -0.67809770      -0.00963833       0.17600973
C       -1.31472030      -1.25775231      -0.38920588
C       -1.68387803       0.97012322       0.72756996
H        1.14396319       1.09817482      -1.33389308
H        3.16892650      -0.14413053      -1.17001390
H        2.74351527       0.98336663       0.24527116
H        1.29212696      -1.40306861      -0.55797395
H        0.18907775       0.83211234      -1.02070747
H       -1.96465702      -1.72005359       0.36087495
H       -0.62312498      -2.03862034      -0.71121185
H       -1.93876383      -1.01719134      -1.25446210
H       -2.44114557       1.20700688      -0.02498337
H       -2.21526961       0.56017930       1.59270410
H       -1.20393577       1.89590124       1.04125318
18
Frame=8 idx=008124 GeodesicLength=0.6333468093760957 rxn_smarts="[C:1]([N:2]([C:3](=[O:4])[C:5]([C:6]([H:13])([H:14])[H:15])([C:7]([H:16])([H:17])[H:18])[H:12])[H:11])([H:8])([H:9])[H:10]>>[C+:1]([N:2]([C:3]([O-:4])=[C:5]([C:6]([H:13])([H:14])[H:15])[C:7]([H:16])([H:17])[H:18])[H:11])([H:9])[H:10].[H:8][H:12]"
C        2.43263883       0.24886651      -0.47070935
N        1.59507230      -0.66432506       0.05726948
C        0.55016625      -0.11603894       0.89052718
O        0.94776230       0.55108850       1.83602405
C       -0.67858453      -0.00554011       0.16124509
C       -1.32453759      -1.25874623      -0.38344501
C       -1.67969773       0.97412641       0.72377378
H        1.15523800       1.09923612      -1.35613765
H        3.19600952      -0.13121781      -1.14042612
H        2.73557608       0.98507292       0.26692153
H        1.30455518      -1.39688885      -0.57228359
H        0.17175276       0.81938827      -1.04392553
H       -1.95083219      -1.72398590       0.38459713
H       -0.63747499      -2.03576444      -0.72415050
H       -1.97225594      -1.02278434      -1.23240751
H       -2.44259144       1.21323029      -0.02249534
H       -2.20603228       0.56457122       1.59193036
H       -1.19676452       1.89971143       1.03369202
18
Frame=9 idx=008124 GeodesicLength=0.7130102458512458 rxn_smarts="[C:1]([N:2]([C:3](=[O:4])[C:5]([C:6]([H:13])([H:14])[H:15])([C:7]([H:16])([H:17])[H:18])[H:12])[H:11])([H:8])([H:9])[H:10]>>[C+:1]([N:2]([C:3]([O-:4])=[C:5]([C:6]([H:13])([H:14])[H:15])[C:7]([H:16])([H:17])[H:18])[H:11])([H:9])[H:10].[H:8][H:12]"
C        2.43561893       0.26352902      -0.46746241
N        1.59989214      -0.66161822       0.05070205
C        0.54691759      -0.12943587       0.88312383
O        0.94258352       0.52258867       1.84057099
C       -0.67908208      -0.00188888       0.14664873
C       -1.33444382      -1.25983634      -0.37741283
C       -1.67516350       0.97808848       0.71985297
H        1.16769438       1.10098483      -1.37842924
H        3.22205357      -0.11736814      -1.11019599
H        2.72707739       0.98666199       0.28858657
H        1.31719391      -1.39038604      -0.58691662
H        0.15363160       0.80570568      -1.06757432
H       -1.93705477      -1.72755975       0.40774507
H       -0.65262094      -2.03325599      -0.73646419
H       -2.00517812      -1.02832235      -1.20954179
H       -2.44355732       1.21951591      -0.02012803
H       -2.19653840       0.56920145       1.59106367
H       -1.18902407       1.90339554       1.02583154
18
Frame=10 idx=008124 GeodesicLength=0.7927688755373445 rxn_smarts="[C:1]([N:2]([C:3](=[O:4])[C:5]([C:6]([H:13])([H:14])[H:15])([C:7]([H:16])([H:17])[H:18])[H:12])[H:11])([H:8])([H:9])[H:10]>>[C+:1]([N:2]([C:3]([O-:4])=[C:5]([C:6]([H:13])([H:14])[H:15])[C:7]([H:16])([H:17])[H:18])[H:11])([H:9])[H:10].[H:8][H:12]"
C        2.43841824       0.27846135      -0.46392150
N        1.60469940      -0.65879766       0.04396927
C        0.54370386      -0.14315053       0.87549950
O        0.93728202       0.49340587       1.84480141
C       -0.67956844       0.00130772       0.13221071
C       -1.34442936      -1.26100695      -0.37112579
C       -1.67024873       0.98201941       0.71581306
H        1.18126284       1.10333565      -1.40076942
H        3.24692678      -0.10251005      -1.07938654
H        2.71792498       0.98817196       0.31021971
H        1.33006738      -1.38358089      -0.60180138
H        0.13472345       0.79101558      -1.09164079
H       -1.92337495      -1.73076686       0.43031741
H       -0.66852539      -2.03113675      -0.74812782
H       -2.03740711      -1.03368647      -1.18597186
H       -2.44401427       1.22589458      -0.01787159
H       -2.18676864       0.57407323       1.59010175
H       -1.18067203       1.90695081       1.01768387
18
Frame=11 idx=008124 GeodesicLength=0.872617406723484 rxn_smarts="[C:1]([N:2]([C:3](=[O:4])[C:5]([C:6]([H:13])([H:14])[H:15])([C:7]([H:16])([H:17])[H:18])[H:12])[H:11])([H:8])([H:9])[H:10]>>[C+:1]([N:2]([C:3]([O-:4])=[C:5]([C:6]([H:13])([H:14])[H:15])[C:7]([H:16])([H:17])[H:18])[H:11])([H:9])[H:10].[H:8][H:12]"
C        2.44104713       0.29368467      -0.46004655
N        1.60949013      -0.65584707       0.03704524
C        0.54052822      -0.15719727       0.86762732
O        0.93185232       0.46352385       1.84868339
C       -0.68005159       0.00402735       0.11790375
C       -1.35451862      -1.26228308      -0.36456064
C       -1.66493891       0.98591718       0.71163271
H        1.19607340       1.10645024      -1.42307290
H        3.27062625      -0.08665121      -1.04804290
H        2.70813857       0.98958789       0.33187576
H        1.34317755      -1.37641954      -0.61699366
H        0.11496420       0.77524616      -1.11613735
H       -1.90986180      -1.73362143       0.45237507
H       -0.68520885      -2.02946204      -0.75908661
H       -2.06898950      -1.03888374      -1.16171096
H       -2.44396314       1.23235519      -0.01573490
H       -2.17668637       0.57920250       1.58904771
H       -1.17167899       1.91037033       1.00919552
18
Frame=12 idx=008124 GeodesicLength=0.9525088773525666 rxn_smarts="[C:1]([N:2]([C:3](=[O:4])[C:5]([C:6]([H:13])([H:14])[H:15])([C:7]([H:16])([H:17])[H:18])[H:12])[H:11])([H:8])([H:9])[H:10]>>[C+:1]([N:2]([C:3]([O-:4])=[C:5]([C:6]([H:13])([H:14])[H:15])[C:7]([H:16])([H:17])[H:18])[H:11])([H:9])[H:10].[H:8][H:12]"
C        2.44351561       0.30921147      -0.45579834
N        1.61425612      -0.65275093       0.02990214
C        0.53739044      -0.17158474       0.85947942
O        0.92628695       0.43293092       1.85218940
C       -0.68054429       0.00625229       0.10370135
C       -1.36474088      -1.26368641      -0.35769087
C       -1.65922656       0.98977711       0.70728758
H        1.21226121       1.11051299      -1.44523071
H        3.29313433      -0.06980207      -1.01623823
H        2.69775719       0.99087248       0.35361090
H        1.35651909      -1.36885011      -0.63255056
H        0.09429015       0.75833222      -1.14107302
H       -1.89657923      -1.73613562       0.47397516
H       -0.70270083      -2.02828025      -0.76927619
H       -2.09992680      -1.04394028      -1.13676534
H       -2.44341150       1.23888184      -0.01373081
H       -2.16625781       0.58460890       1.58790198
H       -1.16202320       1.91365020       1.00030615
18
Frame=13 idx=008124 GeodesicLength=1.0324392483641778 rxn_smarts="[C:1]([N:2]([C:3](=[O:4])[C:5]([C:6]([H:13])([H:14])[H:15])([C:7]([H:16])([H:17])[H:18])[H:12])[H:11])([H:8])([H:9])[H:10]>>[C+:1]([N:2]([C:3]([O-:4])=[C:5]([C:6]([H:13])([H:14])[H:15])[C:7]([H:16])([H:17])[H:18])[H:11])([H:9])[H:10].[H:8][H:12]"
C        2.44583594       0.32505584      -0.45112982
N        1.61898766      -0.64948511       0.02249617
C        0.53429326      -0.18632019       0.85101409
O        0.92058155       0.40160287       1.85526990
C       -0.68106060       0.00795566       0.08956804
C       -1.37512475      -1.26524924      -0.35047962
C       -1.65309894       0.99359615       0.70274559
H        1.22998791       1.11576403      -1.46712195
H        3.31445358      -0.05198829      -0.98400296
H        2.68680805       0.99197923       0.37548911
H        1.37008218      -1.36078974      -0.64855370
H        0.07261794       0.74017884      -1.16647034
H       -1.88358440      -1.73832642       0.49520293
H       -0.72102588      -2.02765548      -0.77862964
H       -2.13027344      -1.04887621      -1.11112527
H       -2.44236541       1.24545882      -0.01187481
H       -2.15543999       0.59031420       1.58666129
H       -1.15167467       1.91678505       0.99094099
18
Frame=14 idx=008124 GeodesicLength=1.1123658072104103 rxn_smarts="[C:1]([N:2]([C:3](=[O:4])[C:5]([C:6]([H:13])([H:14])[H:15])([C:7]([H:16])([H:17])[H:18])[H:12])[H:11])([H:8])([H:9])[H:10]>>[C+:1]([N:2]([C:3]([O-:4])=[C:5]([C:6]([H:13])([H:14])[H:15])[C:7]([H:16])([H:17])[H:18])[H:11])([H:9])[H:10].[H:8][H:12]"
C        2.44801551       0.34124839      -0.44599499
N        1.62367489      -0.64602002       0.01478036
C        0.53123834      -0.20141619       0.84218573
O        0.91472808       0.36951131       1.85787883
C       -0.68161664       0.00910898       0.07546275
C       -1.38569992      -1.26700242      -0.34289004
C       -1.64654025       0.99736892       0.69797078
H        1.24940535       1.12244753      -1.48863004
H        3.33460072      -0.03324857      -0.95135749
H        2.67532090       0.99286132       0.39758164
H        1.38386000      -1.35215470      -0.66508739
H        0.04985984       0.72068847      -1.19235088
H       -1.87092455      -1.74020877       0.51614241
H       -0.74021624      -2.02765165      -0.78707865
H       -2.16009629      -1.05371241      -1.08476710
H       -2.44082804       1.25207067      -0.01018421
H       -2.14418370       0.59634376       1.58531941
H       -1.14059801       1.91976538       0.98101890
18
Frame=15 idx=008124 GeodesicLength=1.1922220525287508 rxn_smarts="[C:1]([N:2]([C:3](=[O:4])[C:5]([C:6]([H:13])([H:14])[H:15])([C:7]([H:16])([H:17])[H:18])[H:12])[H:11])([H:8])([H:9])[H:10]>>[C+:1]([N:2]([C:3]([O-:4])=[C:5]([C:6]([H:13])([H:14])[H:15])[C:7]([H:16])([H:17])[H:18])[H:11])([H:9])[H:10].[H:8][H:12]"
C        2.45006094       0.35781405      -0.44034598
N        1.62830550      -0.64232351       0.00669768
C        0.52822737      -0.21688504       0.83294064
O        0.90872120       0.33661958       1.85995987
C       -0.68223154       0.00968052       0.06134140
C       -1.39650163      -1.26897474      -0.33487944
C       -1.63953186       1.00109188       0.69292164
H        1.27066476       1.13083112      -1.50962953
H        3.35359753      -0.01363135      -0.91829196
H        2.66331725       0.99346626       0.41995331
H        1.39783947      -1.34284644      -0.68224941
H        0.02592074       0.69975529      -1.21873624
H       -1.85863367      -1.74179878       0.53688658
H       -0.76030729      -2.02833590      -0.79455383
H       -2.18945826      -1.05847340      -1.05765075
H       -2.43880073       1.25870261      -0.00868046
H       -2.13243520       0.60272611       1.58386629
H       -1.12875456       1.92258173       0.97045018
18
Frame=16 idx=008124 GeodesicLength=1.271942463728149 rxn_smarts="[C:1]([N:2]([C:3](=[O:4])[C:5]([C:6]([H:13])([H:14])[H:15])([C:7]([H:16])([H:17])[H:18])[H:12])[H:11])([H:8])([H:9])[H:10]>>[C+:1]([N:2]([C:3]([O-:4])=[C:5]([C:6]([H:13])([H:14])[H:15])[C:7]([H:16])([H:17])[H:18])[H:11])([H:9])[H:10].[H:8][H:12]"
C        2.45198477       0.37477752      -0.43412814
N        1.63286566      -0.63835985      -0.00181413
C        0.52526210      -0.23273714       0.82321768
O        0.90255336       0.30289202       1.86145131
C       -0.68292853       0.00963333       0.04715416
C       -1.40756372      -1.27120188      -0.32639828
C       -1.63205640       1.00475859       0.68754898
H        1.29393377       1.14122083      -1.52997205
H        3.37145881       0.00681350      -0.88480495
H        2.65083610       0.99372119       0.44267934
H        1.41200520      -1.33275485      -0.70014774
H        0.00069742       0.67726526      -1.24565334
H       -1.84675042      -1.74310759       0.55753299
H       -0.78133903      -2.02978553      -0.80097135
H       -2.21842994      -1.06318838      -1.02972032
H       -2.43628693       1.26533528      -0.00739128
H       -2.12013684       0.60949298       1.58228805
H       -1.11610537       1.92522471       0.95912907
