13
Frame=0 idx=010031 GeodesicLength=0.0 rxn_smarts="[N:1]([c:2]1[c:3]([H:10])[c:4]([H:11])[c:5]([O:6][H:12])[n:7]1[H:13])([H:8])[H:9]>>[N:1]([C:2]1=[C:3]([H:10])[C:4]([H:11])([H:12])[C:5](=[O:6])[N:7]1[H:13])([H:8])[H:9]"
N       -2.17122532      -0.39996584       0.32405942
C       -0.84498712      -0.04397273       0.07182528
C       -0.19006037       1.13322908       0.07807096
C        1.23373067       0.85535012      -0.15388055
C        1.30090228      -0.55740867      -0.23403508
O        2.45194492      -1.10746707      -0.04580996
N        0.07014168      -1.09900607      -0.15528822
H       -2.62717043      -0.82739698      -0.47078154
H       -2.71477363       0.38284925       0.65174364
H       -0.65784016       2.10258127       0.15190619
H        1.84127331       1.45647145      -0.82012498
H        2.40497632       0.14217969       0.43394395
H       -0.09691218      -2.03744347       0.16837086
13
Frame=1 idx=010031 GeodesicLength=0.04280428043451302 rxn_smarts="[N:1]([c:2]1[c:3]([H:10])[c:4]([H:11])[c:5]([O:6][H:12])[n:7]1[H:13])([H:8])[H:9]>>[N:1]([C:2]1=[C:3]([H:10])[C:4]([H:11])([H:12])[C:5](=[O:6])[N:7]1[H:13])([H:8])[H:9]"
N       -2.17227998      -0.40189202       0.31988225
C       -0.84474718      -0.04570777       0.07475397
C       -0.18927077       1.13143435       0.07911022
C        1.23408452       0.85432459      -0.15542834
C        1.30096782      -0.56022277      -0.24501403
O        2.44917774      -1.10875839      -0.03750936
N        0.06946212      -1.09989730      -0.15057217
H       -2.62944603      -0.81218141      -0.48305702
H       -2.71398300       0.37427390       0.66580971
H       -0.65716993       2.10109772       0.14803873
H        1.83590617       1.45725646      -0.82550901
H        2.41376732       0.14956701       0.43913687
H       -0.09646880      -2.03929437       0.17035818
13
Frame=2 idx=010031 GeodesicLength=0.08560557122430688 rxn_smarts="[N:1]([c:2]1[c:3]([H:10])[c:4]([H:11])[c:5]([O:6][H:12])[n:7]1[H:13])([H:8])[H:9]>>[N:1]([C:2]1=[C:3]([H:10])[C:4]([H:11])([H:12])[C:5](=[O:6])[N:7]1[H:13])([H:8])[H:9]"
N       -2.17334494      -0.40368760       0.31557860
C       -0.84452746      -0.04741274       0.07754430
C       -0.18838681       1.12960677       0.08035001
C        1.23445138       0.85316980      -0.15716106
C        1.30094657      -0.56318658      -0.25580143
O        2.44617080      -1.10985697      -0.02883427
N        0.06878745      -1.10078536      -0.14579445
H       -2.63158287      -0.79694597      -0.49504539
H       -2.71329277       0.36552213       0.67922719
H       -0.65626448       2.09958139       0.14500476
H        1.83030956       1.45778137      -0.83133836
H        2.42291532       0.15737945       0.44404116
H       -0.09618177      -2.04116569       0.17222895
13
Frame=3 idx=010031 GeodesicLength=0.128411122719896 rxn_smarts="[N:1]([c:2]1[c:3]([H:10])[c:4]([H:11])[c:5]([O:6][H:12])[n:7]1[H:13])([H:8])[H:9]>>[N:1]([C:2]1=[C:3]([H:10])[C:4]([H:11])([H:12])[C:5](=[O:6])[N:7]1[H:13])([H:8])[H:9]"
N       -2.17441932      -0.40537639       0.31115367
C       -0.84431797      -0.04910404       0.08026470
C       -0.18739999       1.12773241       0.08185801
C        1.23483371       0.85187967      -0.15904810
C        1.30084494      -0.56631251      -0.26638513
O        2.44292727      -1.11074387      -0.01973410
N        0.06811299      -1.10167755      -0.14098460
H       -2.63359433      -0.78155306      -0.50682576
H       -2.71267536       0.35653019       0.69217321
H       -0.65516353       2.09802523       0.14255696
H        1.82446895       1.45804458      -0.83758432
H        2.43244419       0.16563620       0.44865529
H       -0.09606154      -2.04308088       0.17390017
13
Frame=4 idx=010031 GeodesicLength=0.17122726196512303 rxn_smarts="[N:1]([c:2]1[c:3]([H:10])[c:4]([H:11])[c:5]([O:6][H:12])[n:7]1[H:13])([H:8])[H:9]>>[N:1]([C:2]1=[C:3]([H:10])[C:4]([H:11])([H:12])[C:5](=[O:6])[N:7]1[H:13])([H:8])[H:9]"
N       -2.17553119      -0.40696418       0.30649742
C       -0.84410919      -0.05079920       0.08302521
C       -0.18629524       1.12579039       0.08373710
C        1.23521817       0.85043815      -0.16113782
C        1.30065631      -0.56962926      -0.27674517
O        2.43945803      -1.11138936      -0.01020813
N        0.06743843      -1.10260013      -0.13603201
H       -2.63542412      -0.76585906      -0.51862801
H       -2.71217691       0.34725539       0.70461150
H       -0.65384041       2.09641126       0.14088856
H        1.81828310       1.45799519      -0.84438891
H        2.44241994       0.17439656       0.45283659
H       -0.09609691      -2.04504576       0.17554366
13
Frame=5 idx=010031 GeodesicLength=0.21404577924703225 rxn_smarts="[N:1]([c:2]1[c:3]([H:10])[c:4]([H:11])[c:5]([O:6][H:12])[n:7]1[H:13])([H:8])[H:9]>>[N:1]([C:2]1=[C:3]([H:10])[C:4]([H:11])([H:12])[C:5](=[O:6])[N:7]1[H:13])([H:8])[H:9]"
N       -2.17664015      -0.40845198       0.30176099
C       -0.84391058      -0.05249150       0.08570908
C       -0.18508725       1.12379066       0.08584819
C        1.23562344       0.84885156      -0.16334562
C        1.30039057      -0.57312956      -0.28690832
O        2.43574397      -1.11177535      -0.00020349
N        0.06675018      -1.10353754      -0.13110709
H       -2.63715350      -0.74998358      -0.53017680
H       -2.71172990       0.33774065       0.71666349
H       -0.65233651       2.09475355       0.13965744
H        1.81187582       1.45768691      -0.85152307
H        2.45279039       0.18361955       0.45673400
H       -0.09631648      -2.04707339       0.17689120
13
Frame=6 idx=010031 GeodesicLength=0.2568762628445902 rxn_smarts="[N:1]([c:2]1[c:3]([H:10])[c:4]([H:11])[c:5]([O:6][H:12])[n:7]1[H:13])([H:8])[H:9]>>[N:1]([C:2]1=[C:3]([H:10])[C:4]([H:11])([H:12])[C:5](=[O:6])[N:7]1[H:13])([H:8])[H:9]"
N       -2.17776728      -0.40984012       0.29686759
C       -0.84371994      -0.05419079       0.08837067
C       -0.18376461       1.12171895       0.08825170
C        1.23604314       0.84710765      -0.16570100
C        1.30004394      -0.57683667      -0.29686378
O        2.43179278      -1.11187178       0.01027628
N        0.06604477      -1.10450944      -0.12613643
H       -2.63875075      -0.73384830      -0.54161282
H       -2.71136959       0.32796209       0.72829132
H       -0.65062571       2.09304133       0.13901431
H        1.80518362       1.45708640      -0.85907086
H        2.46360530       0.19334502       0.46024283
H       -0.09671569      -2.04916433       0.17807017
13
Frame=7 idx=010031 GeodesicLength=0.29970772792081685 rxn_smarts="[N:1]([c:2]1[c:3]([H:10])[c:4]([H:11])[c:5]([O:6][H:12])[n:7]1[H:13])([H:8])[H:9]>>[N:1]([C:2]1=[C:3]([H:10])[C:4]([H:11])([H:12])[C:5](=[O:6])[N:7]1[H:13])([H:8])[H:9]"
N       -2.17889230      -0.41112185       0.29190578
C       -0.84354897      -0.05588826       0.09090732
C       -0.18233936       1.11958381       0.09082847
C        1.23649055       0.84520869      -0.16814635
C        1.29961846      -0.58074768      -0.30664572
O        2.42759569      -1.11165615       0.02119790
N        0.06531080      -1.10550961      -0.12120775
H       -2.64026822      -0.71760093      -0.55274821
H       -2.71106928       0.31799112       0.73949619
H       -0.64871476       2.09128907       0.13883722
H        1.79829527       1.45623386      -0.86686619
H        2.47482676       0.20352937       0.46344872
H       -0.09730465      -2.05131145       0.17899262
13
Frame=8 idx=010031 GeodesicLength=0.34255331052821836 rxn_smarts="[N:1]([c:2]1[c:3]([H:10])[c:4]([H:11])[c:5]([O:6][H:12])[n:7]1[H:13])([H:8])[H:9]>>[N:1]([C:2]1=[C:3]([H:10])[C:4]([H:11])([H:12])[C:5](=[O:6])[N:7]1[H:13])([H:8])[H:9]"
N       -2.18003907      -0.41230222       0.28677410
C       -0.84339327      -0.05759938       0.09339234
C       -0.18079805       1.11736290       0.09367528
C        1.23695448       0.84313955      -0.17071540
C        1.29910973      -0.58488896      -0.31623115
O        2.42316434      -1.11109668       0.03255739
N        0.06454740      -1.10656106      -0.11623392
H       -2.64166546      -0.70109579      -0.56377802
H       -2.71086387       0.30777202       0.75026371
H       -0.64658329       2.08947822       0.13927174
H        1.79112492       1.45508652      -0.87501674
H        2.48651226       0.21421966       0.46622323
H       -0.09807013      -2.05351478       0.17981743
13
Frame=9 idx=010031 GeodesicLength=0.38539932475940186 rxn_smarts="[N:1]([c:2]1[c:3]([H:10])[c:4]([H:11])[c:5]([O:6][H:12])[n:7]1[H:13])([H:8])[H:9]>>[N:1]([C:2]1=[C:3]([H:10])[C:4]([H:11])([H:12])[C:5](=[O:6])[N:7]1[H:13])([H:8])[H:9]"
N       -2.18120744      -0.41336953       0.28150105
C       -0.84326121      -0.05931650       0.09580407
C       -0.17914559       1.11506287       0.09675397
C        1.23744125       0.84089932      -0.17336148
C        1.29850299      -0.58926076      -0.32566015
O        2.41850319      -1.11017045       0.04421906
N        0.06374507      -1.10766458      -0.11120862
H       -2.64293299      -0.68446616      -0.57463189
H       -2.71078152       0.29738910       0.76049213
H       -0.64422338       2.08762091       0.14031646
H        1.78371101       1.45367558      -0.88340911
H        2.49865074       0.22535968       0.46857277
H       -0.09900213      -2.05575948       0.18061175
13
Frame=10 idx=010031 GeodesicLength=0.4282571573093433 rxn_smarts="[N:1]([c:2]1[c:3]([H:10])[c:4]([H:11])[c:5]([O:6][H:12])[n:7]1[H:13])([H:8])[H:9]>>[N:1]([C:2]1=[C:3]([H:10])[C:4]([H:11])([H:12])[C:5](=[O:6])[N:7]1[H:13])([H:8])[H:9]"
N       -2.18239144      -0.41433740       0.27608620
C       -0.84314867      -0.06105213       0.09813974
C       -0.17738167       1.11266938       0.10003478
C        1.23795221       0.83848248      -0.17608529
C        1.29781018      -0.59387327      -0.33490316
O        2.41361130      -1.10884710       0.05626071
N        0.06289815      -1.10882545      -0.10617586
H       -2.64410274      -0.66759795      -0.58532600
H       -2.71078091       0.28677066       0.77031555
H       -0.64164886       2.08570023       0.14187010
H        1.77606169       1.45198376      -0.89203560
H        2.51123529       0.23698022       0.47051295
H       -0.10011452      -2.05805344       0.18130589
13
Frame=11 idx=010031 GeodesicLength=0.471120077706 rxn_smarts="[N:1]([c:2]1[c:3]([H:10])[c:4]([H:11])[c:5]([O:6][H:12])[n:7]1[H:13])([H:8])[H:9]>>[N:1]([C:2]1=[C:3]([H:10])[C:4]([H:11])([H:12])[C:5](=[O:6])[N:7]1[H:13])([H:8])[H:9]"
N       -2.18358823      -0.41519754       0.27057116
C       -0.84306442      -0.06279796       0.10036264
C       -0.17551701       1.11019206       0.10346145
C        1.23849493       0.83589249      -0.17883563
C        1.29702320      -0.59872384      -0.34399932
O        2.40850070      -1.10711283       0.06854617
N        0.06199995      -1.11004363      -0.10115376
H       -2.64518684      -0.65061678      -0.59577667
H       -2.71087399       0.27599328       0.77967995
H       -0.63886587       2.08373111       0.14387561
H        1.76823472       1.45005075      -0.90076663
H        2.52423537       0.24901553       0.47209081
H       -0.10139250      -2.06038265       0.18194421
13
Frame=12 idx=010031 GeodesicLength=0.5139795647763731 rxn_smarts="[N:1]([c:2]1[c:3]([H:10])[c:4]([H:11])[c:5]([O:6][H:12])[n:7]1[H:13])([H:8])[H:9]>>[N:1]([C:2]1=[C:3]([H:10])[C:4]([H:11])([H:12])[C:5](=[O:6])[N:7]1[H:13])([H:8])[H:9]"
N       -2.18478332      -0.41595228       0.26504459
C       -0.84301686      -0.06454550       0.10239867
C       -0.17357105       1.10764409       0.10691867
C        1.23908443       0.83313826      -0.18154372
C        1.29614155      -0.60379506      -0.35299039
O        2.40317949      -1.10496204       0.08095477
N        0.06104202      -1.11130916      -0.09622116
H       -2.64624255      -0.63365070      -0.60583020
H       -2.71102631       0.26511692       0.78862724
H       -0.63590344       2.08172696       0.14612958
H        1.76034372       1.44793303      -0.90941433
H        2.53758083       0.26138548       0.47344659
H       -0.10282851      -2.06273000       0.18247969
13
Frame=13 idx=010031 GeodesicLength=0.5568319512266898 rxn_smarts="[N:1]([c:2]1[c:3]([H:10])[c:4]([H:11])[c:5]([O:6][H:12])[n:7]1[H:13])([H:8])[H:9]>>[N:1]([C:2]1=[C:3]([H:10])[C:4]([H:11])([H:12])[C:5](=[O:6])[N:7]1[H:13])([H:8])[H:9]"
N       -2.18596167      -0.41660799       0.25960706
C       -0.84301415      -0.06628433       0.10416398
C       -0.17156774       1.10504392       0.11027279
C        1.23973830       0.83023266      -0.18414171
C        1.29516804      -0.60906328      -0.36192382
O        2.39765457      -1.10239750       0.09335990
N        0.06001664      -1.11260937      -0.09147192
H       -2.64734180      -0.61683501      -0.61532520
H       -2.71118609       0.25420008       0.79723645
H       -0.63279915       2.07970402       0.14839226
H        1.75252188       1.44569328      -0.91778573
H        2.55118440       0.27400145       0.47476705
H       -0.10441323      -2.06507793       0.18284889
13
Frame=14 idx=010031 GeodesicLength=0.599664258448014 rxn_smarts="[N:1]([c:2]1[c:3]([H:10])[c:4]([H:11])[c:5]([O:6][H:12])[n:7]1[H:13])([H:8])[H:9]>>[N:1]([C:2]1=[C:3]([H:10])[C:4]([H:11])([H:12])[C:5](=[O:6])[N:7]1[H:13])([H:8])[H:9]"
N       -2.18714642      -0.41716740       0.25415775
C       -0.84305639      -0.06802028       0.10570594
C       -0.16950098       1.10237986       0.11358164
C        1.24044507       0.82716670      -0.18667525
C        1.29409003      -0.61454278      -0.37078818
O        2.39195609      -1.09939830       0.10567449
N        0.05892526      -1.11395705      -0.08681093
H       -2.64843962      -0.60009635      -0.62443581
H       -2.71140125       0.24322300       0.80542623
H       -0.62952028       2.07765266       0.15090498
H        1.74470411       1.44329510      -0.92598619
H        2.56506095       0.28687272       0.47596237
H       -0.10611658      -2.06740788       0.18328297
13
Frame=15 idx=010031 GeodesicLength=0.6424946253620383 rxn_smarts="[N:1]([c:2]1[c:3]([H:10])[c:4]([H:11])[c:5]([O:6][H:12])[n:7]1[H:13])([H:8])[H:9]>>[N:1]([C:2]1=[C:3]([H:10])[C:4]([H:11])([H:12])[C:5](=[O:6])[N:7]1[H:13])([H:8])[H:9]"
N       -2.18831893      -0.41763787       0.24881215
C       -0.84313949      -0.06975067       0.10701913
C       -0.16739145       1.09966562       0.11675781
C        1.24121999       0.82395944      -0.18905115
C        1.29290640      -0.62019983      -0.37962906
O        2.38610548      -1.09600611       0.11773800
N        0.05776404      -1.11533829      -0.08232081
H       -2.64959011      -0.58349550      -0.63301051
H       -2.71161843       0.23220683       0.81332895
H       -0.62614077       2.07557709       0.15323930
H        1.73702122       1.44082252      -0.93379445
H        2.57911264       0.29991118       0.47725096
H       -0.10793060      -2.06971440       0.18365965
13
Frame=16 idx=010031 GeodesicLength=0.68532172845834 rxn_smarts="[N:1]([c:2]1[c:3]([H:10])[c:4]([H:11])[c:5]([O:6][H:12])[n:7]1[H:13])([H:8])[H:9]>>[N:1]([C:2]1=[C:3]([H:10])[C:4]([H:11])([H:12])[C:5](=[O:6])[N:7]1[H:13])([H:8])[H:9]"
N       -2.18949316      -0.41802616       0.24350963
C       -0.84326374      -0.07147680       0.10812847
C       -0.16524158       1.09690320       0.11982000
C        1.24205631       0.82061050      -0.19131137
C        1.29161385      -0.62604186      -0.38843949
O        2.38012652      -1.09221986       0.12949520
N        0.05653540      -1.11676037      -0.07795281
H       -2.65077128      -0.56697927      -0.64115880
H       -2.71185899       0.22112605       0.82092336
H       -0.62264735       2.07348284       0.15554220
H        1.72944913       1.43825375      -0.94129016
H        2.59332885       0.31311886       0.47861513
H       -0.10983396      -2.07199088       0.18411861
