15
Frame=0 idx=011590 GeodesicLength=0.0 rxn_smarts="[C:1]([C@@:2]1([H:11])[N:3]([H:12])[C:4]([H:13])([H:14])/[C:5]1=[N:6]\[O:7][H:15])([H:8])([H:9])[H:10]>>[C:1]([C@@:2]([N:3]([C:4][H:13])[H:12])(/[C:5](=[N:6]/[O:7][H:15])[H:14])[H:11])([H:8])([H:9])[H:10]"
C       -1.74077431      -0.64234196      -0.28595248
C       -0.62790420       0.33148237      -0.57278517
N       -0.51356099       1.47917017       0.36221945
C        0.64472409       1.14242466       0.88347422
C        0.79451520      -0.08324615      -0.13649561
N        1.09997177      -1.36705311       0.00644591
O        2.43644929      -1.36925900       0.54347840
H       -2.71981317      -0.19814066      -0.47845684
H       -1.69021914      -0.98034121       0.74842788
H       -1.61546828      -1.51595127      -0.92503217
H       -0.66347294       0.70419912      -1.60051956
H       -0.90809820       2.40234941       0.24533712
H        1.29085077       1.82722163       1.42939478
H        1.54079830       0.56521998      -0.71282907
H        2.67200176      -2.29573399       0.49329314
15
Frame=1 idx=011590 GeodesicLength=0.08512678538179613 rxn_smarts="[C:1]([C@@:2]1([H:11])[N:3]([H:12])[C:4]([H:13])([H:14])/[C:5]1=[N:6]\[O:7][H:15])([H:8])([H:9])[H:10]>>[C:1]([C@@:2]([N:3]([C:4][H:13])[H:12])(/[C:5](=[N:6]/[O:7][H:15])[H:14])[H:11])([H:8])([H:9])[H:10]"
C       -1.74062027      -0.64329172      -0.28014543
C       -0.62551958       0.32694455      -0.57268564
N       -0.51475187       1.47745432       0.35923060
C        0.65622861       1.15980955       0.87386681
C        0.79529270      -0.09148674      -0.14291159
N        1.10379351      -1.37057159      -0.00730304
O        2.43493091      -1.38367062       0.53341132
H       -2.71816136      -0.19504511      -0.47082340
H       -1.68949331      -0.97817370       0.75529819
H       -1.62099888      -1.51937715      -0.91699487
H       -0.66219667       0.69404062      -1.60254421
H       -0.90849513       2.39788274       0.22012891
H        1.26768944       1.84417062       1.45821854
H        1.55676066       0.59271862      -0.68789439
H        2.66554125      -2.31140441       0.48114819
15
Frame=2 idx=011590 GeodesicLength=0.1700939829642573 rxn_smarts="[C:1]([C@@:2]1([H:11])[N:3]([H:12])[C:4]([H:13])([H:14])/[C:5]1=[N:6]\[O:7][H:15])([H:8])([H:9])[H:10]>>[C:1]([C@@:2]([N:3]([C:4][H:13])[H:12])(/[C:5](=[N:6]/[O:7][H:15])[H:14])[H:11])([H:8])([H:9])[H:10]"
C       -1.74011661      -0.64390243      -0.27384736
C       -0.62289866       0.32254133      -0.57288775
N       -0.51535291       1.47637124       0.35520826
C        0.66783842       1.17795680       0.86349849
C        0.79652331      -0.09925971      -0.15006804
N        1.10772142      -1.37367556      -0.02101917
O        2.43363936      -1.39758066       0.52282180
H       -2.71617094      -0.19169163      -0.46267695
H       -1.68809070      -0.97506636       0.76280347
H       -1.62634441      -1.52276061      -0.90800263
H       -0.66109411       0.68354636      -1.60496774
H       -0.90858751       2.39345266       0.19427152
H        1.24152951       1.85764690       1.48957568
H        1.57237841       0.61906246      -0.66377746
H        2.65902544      -2.32664079       0.46906787
15
Frame=3 idx=011590 GeodesicLength=0.25499715425454 rxn_smarts="[C:1]([C@@:2]1([H:11])[N:3]([H:12])[C:4]([H:13])([H:14])/[C:5]1=[N:6]\[O:7][H:15])([H:8])([H:9])[H:10]>>[C:1]([C@@:2]([N:3]([C:4][H:13])[H:12])(/[C:5](=[N:6]/[O:7][H:15])[H:14])[H:11])([H:8])([H:9])[H:10]"
C       -1.73930171      -0.64416506      -0.26703582
C       -0.62005704       0.31829381      -0.57338337
N       -0.51538859       1.47596237       0.35014499
C        0.67956933       1.19698888       0.85241637
C        0.79817613      -0.10655127      -0.15787715
N        1.11176939      -1.37635550      -0.03467908
O        2.43257865      -1.41092536       0.51185879
H       -2.71389430      -0.18808645      -0.45402503
H       -1.68605423      -0.97100744       0.77098789
H       -1.63154743      -1.52610039      -0.89802396
H       -0.66016268       0.67271665      -1.60780742
H       -0.90835053       2.38913442       0.16770320
H        1.21236584       1.86701290       1.52316239
H        1.58775470       0.64443437      -0.64049486
H        2.65254248      -2.34135192       0.45705306
15
Frame=4 idx=011590 GeodesicLength=0.3398791220104526 rxn_smarts="[C:1]([C@@:2]1([H:11])[N:3]([H:12])[C:4]([H:13])([H:14])/[C:5]1=[N:6]\[O:7][H:15])([H:8])([H:9])[H:10]>>[C:1]([C@@:2]([N:3]([C:4][H:13])[H:12])(/[C:5](=[N:6]/[O:7][H:15])[H:14])[H:11])([H:8])([H:9])[H:10]"
C       -1.73819833      -0.64406319      -0.25971427
C       -0.61700746       0.31422135      -0.57413257
N       -0.51492564       1.47625637       0.34409104
C        0.69134208       1.21696737       0.84077963
C        0.80021438      -0.11335649      -0.16621367
N        1.11596964      -1.37860702      -0.04828932
O        2.43174498      -1.42366958       0.50066051
H       -2.71136706      -0.18422005      -0.44489280
H       -1.68343047      -0.96598347       0.77984433
H       -1.63660413      -1.52938138      -0.88707228
H       -0.65936984       0.66155724      -1.61102072
H       -0.90780386       2.38498871       0.14044825
H        1.18031489       1.87175670       1.55831431
H        1.60296219       0.66901958      -0.61792523
H        2.64615862      -2.35548613       0.44512279
15
Frame=5 idx=011590 GeodesicLength=0.4246770995379932 rxn_smarts="[C:1]([C@@:2]1([H:11])[N:3]([H:12])[C:4]([H:13])([H:14])/[C:5]1=[N:6]\[O:7][H:15])([H:8])([H:9])[H:10]>>[C:1]([C@@:2]([N:3]([C:4][H:13])[H:12])(/[C:5](=[N:6]/[O:7][H:15])[H:14])[H:11])([H:8])([H:9])[H:10]"
C       -1.73675640      -0.64366083      -0.25202081
C       -0.61379249       0.31039093      -0.57499140
N       -0.51413665       1.47708580       0.33741098
C        0.70295423       1.23772497       0.82899494
C        0.80252904      -0.11965434      -0.17493473
N        1.12032575      -1.38039438      -0.06199361
O        2.43104417      -1.43576701       0.48923284
H       -2.70852721      -0.18018455      -0.43539696
H       -1.68021216      -0.96030402       0.78913571
H       -1.64136365      -1.53249692      -0.87544064
H       -0.65871766       0.65037341      -1.61436089
H       -0.90711234       2.38087667       0.11296035
H        1.14630769       1.87195716       1.59328402
H        1.61791315       0.69312596      -0.59579019
H        2.63954452      -2.36907287       0.43391038
15
Frame=6 idx=011590 GeodesicLength=0.5093543661034852 rxn_smarts="[C:1]([C@@:2]1([H:11])[N:3]([H:12])[C:4]([H:13])([H:14])/[C:5]1=[N:6]\[O:7][H:15])([H:8])([H:9])[H:10]>>[C:1]([C@@:2]([N:3]([C:4][H:13])[H:12])(/[C:5](=[N:6]/[O:7][H:15])[H:14])[H:11])([H:8])([H:9])[H:10]"
C       -1.73504011      -0.64300250      -0.24414369
C       -0.61040634       0.30675071      -0.57578310
N       -0.51320668       1.47828593       0.33039655
C        0.71397067       1.25886991       0.81785199
C        0.80499121      -0.12559818      -0.18355648
N        1.12471896      -1.38188082      -0.07551017
O        2.43030568      -1.44751413       0.47793369
H       -2.70538271      -0.17595839      -0.42585243
H       -1.67667459      -0.95415427       0.79862806
H       -1.64577952      -1.53540627      -0.86339540
H       -0.65794586       0.63924392      -1.61760065
H       -0.90637278       2.37669797       0.08554386
H        1.11125226       1.86905928       1.62614802
H        1.63257574       0.71682846      -0.57320852
H        2.63299409      -2.38222162       0.42254828
15
Frame=7 idx=011590 GeodesicLength=0.5940600522775478 rxn_smarts="[C:1]([C@@:2]1([H:11])[N:3]([H:12])[C:4]([H:13])([H:14])/[C:5]1=[N:6]\[O:7][H:15])([H:8])([H:9])[H:10]>>[C:1]([C@@:2]([N:3]([C:4][H:13])[H:12])(/[C:5](=[N:6]/[O:7][H:15])[H:14])[H:11])([H:8])([H:9])[H:10]"
C       -1.73316362      -0.64218031      -0.23619919
C       -0.60691149       0.30326851      -0.57645292
N       -0.51229108       1.47977485       0.32325258
C        0.72416931       1.28017710       0.80780659
C        0.80755898      -0.13125229      -0.19197991
N        1.12916503      -1.38313245      -0.08892993
O        2.42956059      -1.45899769       0.46674148
H       -2.70207785      -0.17164065      -0.41639069
H       -1.67299325      -0.94770090       0.80819701
H       -1.64990401      -1.53816803      -0.85114757
H       -0.65703703       0.62820543      -1.62067784
H       -0.90554846       2.37244399       0.05828690
H        1.07597877       1.86396915       1.65622330
H        1.64698840       0.74027527      -0.54975030
H        2.62650573      -2.39504198       0.41102050
15
Frame=8 idx=011590 GeodesicLength=0.6787957734227796 rxn_smarts="[C:1]([C@@:2]1([H:11])[N:3]([H:12])[C:4]([H:13])([H:14])/[C:5]1=[N:6]\[O:7][H:15])([H:8])([H:9])[H:10]>>[C:1]([C@@:2]([N:3]([C:4][H:13])[H:12])(/[C:5](=[N:6]/[O:7][H:15])[H:14])[H:11])([H:8])([H:9])[H:10]"
C       -1.73117712      -0.64129057      -0.22832270
C       -0.60333914       0.29990304      -0.57693315
N       -0.51150236       1.48139170       0.31619597
C        0.73336774       1.30135746       0.79923586
C        0.81016436      -0.13671901      -0.20010649
N        1.13361237      -1.38424051      -0.10226143
O        2.42877757      -1.47035548       0.45557221
H       -2.69864924      -0.16731786      -0.40715873
H       -1.66929611      -0.94117158       0.81767236
H       -1.65373386      -1.54079762      -0.83893203
H       -0.65594350       0.61734861      -1.62348848
H       -0.90464073       2.36800815       0.03140249
H        1.04125642       1.85804714       1.68288016
H        1.66110351       0.76351581      -0.52500482
H        2.62000007      -2.40767927       0.39924877
15
Frame=9 idx=011590 GeodesicLength=0.7635574120212472 rxn_smarts="[C:1]([C@@:2]1([H:11])[N:3]([H:12])[C:4]([H:13])([H:14])/[C:5]1=[N:6]\[O:7][H:15])([H:8])([H:9])[H:10]>>[C:1]([C@@:2]([N:3]([C:4][H:13])[H:12])(/[C:5](=[N:6]/[O:7][H:15])[H:14])[H:11])([H:8])([H:9])[H:10]"
C       -1.72910496      -0.64038464      -0.22056257
C       -0.59970917       0.29661968      -0.57722279
N       -0.51087329       1.48306052       0.30927989
C        0.74153895       1.32229521       0.79220650
C        0.81277791      -0.14207640      -0.20796373
N        1.13803671      -1.38527280      -0.11552394
O        2.42799042      -1.48166276       0.44425755
H       -2.69511830      -0.16303420      -0.39819409
H       -1.66561979      -0.93466147       0.82699354
H       -1.65728955      -1.54332402      -0.82683134
H       -0.65468094       0.60668382      -1.62602041
H       -0.90360571       2.36335411       0.00492186
H        1.00735411       1.85210632       1.70625280
H        1.67488751       0.78653493      -0.49883453
H        2.61341610      -2.42023830       0.38724124
15
Frame=10 idx=011590 GeodesicLength=0.8483486346407618 rxn_smarts="[C:1]([C@@:2]1([H:11])[N:3]([H:12])[C:4]([H:13])([H:14])/[C:5]1=[N:6]\[O:7][H:15])([H:8])([H:9])[H:10]>>[C:1]([C@@:2]([N:3]([C:4][H:13])[H:12])(/[C:5](=[N:6]/[O:7][H:15])[H:14])[H:11])([H:8])([H:9])[H:10]"
C       -1.72696606      -0.63948819      -0.21293260
C       -0.59602507       0.29338212      -0.57733600
N       -0.51039583       1.48474402       0.30249313
C        0.74871102       1.34295380       0.78669102
C        0.81538095      -0.14740325      -0.21557652
N        1.14240280      -1.38630638      -0.12867313
O        2.42723084      -1.49299236       0.43267868
H       -2.69149399      -0.15880000      -0.38951654
H       -1.66199523      -0.92819791       0.83615094
H       -1.66060392      -1.54578099      -0.81485799
H       -0.65325218       0.59617825      -1.62829348
H       -0.90238036       2.35847555      -0.02118918
H        0.97428709       1.84675605       1.72667041
H        1.68831827       0.80927341      -0.47117124
H        2.60678165      -2.43279410       0.37486249
15
Frame=11 idx=011590 GeodesicLength=0.9331626888005242 rxn_smarts="[C:1]([C@@:2]1([H:11])[N:3]([H:12])[C:4]([H:13])([H:14])/[C:5]1=[N:6]\[O:7][H:15])([H:8])([H:9])[H:10]>>[C:1]([C@@:2]([N:3]([C:4][H:13])[H:12])(/[C:5](=[N:6]/[O:7][H:15])[H:14])[H:11])([H:8])([H:9])[H:10]"
C       -1.72477591      -0.63858455      -0.20539374
C       -0.59229158       0.29016965      -0.57731518
N       -0.51003836       1.48645744       0.29573807
C        0.75496940       1.36340353       0.78251321
C        0.81797530      -0.15273793      -0.22302115
N        1.14670285      -1.38736454      -0.14167808
O        2.42656066      -1.50432489       0.42072763
H       -2.68779543      -0.15460007      -0.38108837
H       -1.65841850      -0.92170577       0.84519659
H       -1.66372182      -1.54818565      -0.80292833
H       -0.65169359       0.58575311      -1.63036586
H       -0.90088590       2.35339349      -0.04708486
H        0.94186614       1.84198353       1.74470426
H        1.70140095       0.83167112      -0.44207685
H        2.60014580      -2.44532847       0.36207266
15
Frame=12 idx=011590 GeodesicLength=1.0179974283354893 rxn_smarts="[C:1]([C@@:2]1([H:11])[N:3]([H:12])[C:4]([H:13])([H:14])/[C:5]1=[N:6]\[O:7][H:15])([H:8])([H:9])[H:10]>>[C:1]([C@@:2]([N:3]([C:4][H:13])[H:12])(/[C:5](=[N:6]/[O:7][H:15])[H:14])[H:11])([H:8])([H:9])[H:10]"
C       -1.72254538      -0.63766121      -0.19792057
C       -0.58850618       0.28696211      -0.57718587
N       -0.50976900       1.48820645       0.28894742
C        0.76037632       1.38369613       0.77955366
C        0.82055488      -0.15812688      -0.23033263
N        1.15091518      -1.38849032      -0.15447953
O        2.42602725      -1.51566682       0.40831889
H       -2.68402747      -0.15041371      -0.37289577
H       -1.65489788      -0.91513269       0.85416677
H       -1.66667780      -1.55055225      -0.79098211
H       -0.65001662       0.57534997      -1.63227544
H       -0.89905660       2.34812211      -0.07286243
H        0.90992173       1.83787800       1.76073582
H        1.71412564       0.85367167      -0.41156135
H        2.59357593      -2.45784255       0.34877314
15
Frame=13 idx=011590 GeodesicLength=1.1028517213657596 rxn_smarts="[C:1]([C@@:2]1([H:11])[N:3]([H:12])[C:4]([H:13])([H:14])/[C:5]1=[N:6]\[O:7][H:15])([H:8])([H:9])[H:10]>>[C:1]([C@@:2]([N:3]([C:4][H:13])[H:12])(/[C:5](=[N:6]/[O:7][H:15])[H:14])[H:11])([H:8])([H:9])[H:10]"
C       -1.72029305      -0.63669120      -0.19047938
C       -0.58466562       0.28374048      -0.57697054
N       -0.50955572       1.49000918       0.28203872
C        0.76498622       1.40390077       0.77769068
C        0.82311192      -0.16361344      -0.23752348
N        1.15501168      -1.38972397      -0.16698132
O        2.42566469      -1.52701294       0.39542981
H       -2.68020058      -0.14620591      -0.36493208
H       -1.65145796      -0.90839409       0.86310977
H       -1.66951339      -1.55288798      -0.77893543
H       -0.64822255       0.56489357      -1.63406072
H       -0.89682026       2.34267827      -0.09865311
H        0.87826294       1.83439457       1.77510770
H        1.72648705       0.87521488      -0.37962086
H        2.58720464      -2.47030219       0.33478021
15
Frame=14 idx=011590 GeodesicLength=1.1877242201820595 rxn_smarts="[C:1]([C@@:2]1([H:11])[N:3]([H:12])[C:4]([H:13])([H:14])/[C:5]1=[N:6]\[O:7][H:15])([H:8])([H:9])[H:10]>>[C:1]([C@@:2]([N:3]([C:4][H:13])[H:12])(/[C:5](=[N:6]/[O:7][H:15])[H:14])[H:11])([H:8])([H:9])[H:10]"
C       -1.71805588      -0.63563451      -0.18303793
C       -0.58076023       0.28047135      -0.57667324
N       -0.50936823       1.49188717       0.27492055
C        0.76881608       1.42406959       0.77685613
C        0.82562485      -0.16926945      -0.24452898
N        1.15893169      -1.39114152      -0.17898101
O        2.42546682      -1.53839683       0.38215632
H       -2.67632870      -0.14191665      -0.35723350
H       -1.64817955      -0.90137119       0.87207810
H       -1.67228292      -1.55519939      -0.76668360
H       -0.64626579       0.55427287      -1.63574707
H       -0.89407407       2.33707798      -0.12462302
H        0.84667874       1.83159667       1.78805723
H        1.73847439       0.89620701      -0.34615937
H        2.58132280      -2.48265309       0.31959939
15
Frame=15 idx=011590 GeodesicLength=1.2725977050299073 rxn_smarts="[C:1]([C@@:2]1([H:11])[N:3]([H:12])[C:4]([H:13])([H:14])/[C:5]1=[N:6]\[O:7][H:15])([H:8])([H:9])[H:10]>>[C:1]([C@@:2]([N:3]([C:4][H:13])[H:12])(/[C:5](=[N:6]/[O:7][H:15])[H:14])[H:11])([H:8])([H:9])[H:10]"
C       -1.71576732      -0.63455427      -0.17564190
C       -0.57682110       0.27721254      -0.57633975
N       -0.50918102       1.49375753       0.26773599
C        0.77202779       1.44424571       0.77684115
C        0.82812350      -0.17502989      -0.25165804
N        1.16278639      -1.39266092      -0.19087053
O        2.42564880      -1.54963932       0.36791265
H       -2.67239401      -0.13764149      -0.34966824
H       -1.64486389      -0.89427960       0.88097593
H       -1.67493846      -1.55745661      -0.75441815
H       -0.64434036       0.54370602      -1.63732820
H       -0.89096543       2.33126515      -0.15040015
H        0.81539523       1.82929024       1.79969429
H        1.75002231       0.91677888      -0.31150444
H        2.57526757      -2.49499396       0.30466939
15
Frame=16 idx=011590 GeodesicLength=1.357471594906907 rxn_smarts="[C:1]([C@@:2]1([H:11])[N:3]([H:12])[C:4]([H:13])([H:14])/[C:5]1=[N:6]\[O:7][H:15])([H:8])([H:9])[H:10]>>[C:1]([C@@:2]([N:3]([C:4][H:13])[H:12])(/[C:5](=[N:6]/[O:7][H:15])[H:14])[H:11])([H:8])([H:9])[H:10]"
C       -1.71346086      -0.63341730      -0.16826700
C       -0.57284206       0.27393766      -0.57597448
N       -0.50896843       1.49563474       0.26041758
C        0.77462753       1.46446655       0.77760046
C        0.83058892      -0.18095499      -0.25886317
N        1.16652680      -1.39434711      -0.20248720
O        2.42622180      -1.56075723       0.35274984
H       -2.66841271      -0.13332880      -0.34226476
H       -1.64157873      -0.88702617       0.88984499
H       -1.67752847      -1.55966211      -0.74205943
H       -0.64241250       0.53310838      -1.63882689
H       -0.88741359       2.32525583      -0.17611209
H        0.78426427       1.82750412       1.81017222
H        1.76111636       0.93685835      -0.27555950
H        2.56927167      -2.50727193       0.28962943
