9
Frame=0 idx=002874 GeodesicLength=0.0 rxn_smarts="[C:1]([C:2](=[O:3])[C:4]#[C:5][H:9])([H:6])([H:7])[H:8]>>[C:1](=[C:2]([O:3][H:6])[C:4]#[C:5][H:9])([H:7])[H:8]"
C       -1.31458989       0.39811231       0.27502466
C       -0.20305975      -0.28462401      -0.26996029
O       -0.60828508      -1.17497485      -1.09373473
C        1.19093274      -0.06780679      -0.05314112
C        2.35368530       0.14398318       0.14122570
H       -1.65735971      -0.50010540      -0.85628290
H       -1.24042619       1.41703767       0.63585028
H       -1.91067094      -0.25676494       0.91041133
H        3.38977349       0.32514283       0.31060710
9
Frame=1 idx=002874 GeodesicLength=0.04179425053547959 rxn_smarts="[C:1]([C:2](=[O:3])[C:4]#[C:5][H:9])([H:6])([H:7])[H:8]>>[C:1](=[C:2]([O:3][H:6])[C:4]#[C:5][H:9])([H:7])[H:8]"
C       -1.31113644       0.39390991       0.27774822
C       -0.20267565      -0.31897239      -0.23533837
O       -0.60521821      -1.18306443      -1.08866836
C        1.19156308      -0.07344477      -0.04719432
C        2.35302543       0.16384625       0.12465484
H       -1.65656046      -0.48027270      -0.87632363
H       -1.21364370       1.40766469       0.64773071
H       -1.94459853      -0.24412033       0.89345336
H        3.38924447       0.33445377       0.30393755
9
Frame=2 idx=002874 GeodesicLength=0.08293994488656145 rxn_smarts="[C:1]([C:2](=[O:3])[C:4]#[C:5][H:9])([H:6])([H:7])[H:8]>>[C:1](=[C:2]([O:3][H:6])[C:4]#[C:5][H:9])([H:7])[H:8]"
C       -1.30730543       0.38996820       0.27985652
C       -0.20278921      -0.35008334      -0.20394455
O       -0.60143523      -1.19082932      -1.08281753
C        1.19095124      -0.08135899      -0.03770709
C        2.35022671       0.17682672       0.11745882
H       -1.65377069      -0.45959199      -0.89667970
H       -1.18837187       1.39771757       0.65979130
H       -1.97517359      -0.23121372       0.87563894
H        3.38766808       0.34856488       0.28840330
9
Frame=3 idx=002874 GeodesicLength=0.12415780195110265 rxn_smarts="[C:1]([C:2](=[O:3])[C:4]#[C:5][H:9])([H:6])([H:7])[H:8]>>[C:1](=[C:2]([O:3][H:6])[C:4]#[C:5][H:9])([H:7])[H:8]"
C       -1.30346923       0.38618254       0.28163239
C       -0.20333070      -0.37787574      -0.17618980
O       -0.59755043      -1.19851833      -1.07675669
C        1.18979257      -0.08983461      -0.02725354
C        2.34655307       0.18720214       0.11318755
H       -1.65042166      -0.43960537      -0.91614035
H       -1.16507236       1.38769794       0.67141422
H       -2.00183571      -0.21847896       0.85872311
H        3.38533445       0.36323039       0.27138311
9
Frame=4 idx=002874 GeodesicLength=0.16531383187229035 rxn_smarts="[C:1]([C:2](=[O:3])[C:4]#[C:5][H:9])([H:6])([H:7])[H:8]>>[C:1](=[C:2]([O:3][H:6])[C:4]#[C:5][H:9])([H:7])[H:8]"
C       -1.29985079       0.38234755       0.28325179
C       -0.20391503      -0.40175186      -0.15266486
O       -0.59372023      -1.20588338      -1.07092540
C        1.18827779      -0.09532650      -0.02003680
C        2.34263323       0.19627883       0.11005074
H       -1.64798096      -0.42196347      -0.93329267
H       -1.14455324       1.37814658       0.68132824
H       -2.02336158      -0.20682976       0.84471946
H        3.38247081       0.37498201       0.25756949
9
Frame=5 idx=002874 GeodesicLength=0.20633576831470116 rxn_smarts="[C:1]([C:2](=[O:3])[C:4]#[C:5][H:9])([H:6])([H:7])[H:8]>>[C:1](=[C:2]([O:3][H:6])[C:4]#[C:5][H:9])([H:7])[H:8]"
C       -1.29640704       0.37851880       0.28468768
C       -0.20456065      -0.42317962      -0.13173425
O       -0.58985473      -1.21292126      -1.06531808
C        1.18644874      -0.09977680      -0.01379208
C        2.33851819       0.20409849       0.10831612
H       -1.64592194      -0.40548493      -0.94920188
H       -1.12582901       1.36884775       0.69018845
H       -2.04177365      -0.19578090       0.83231300
H        3.37938009       0.38567847       0.24454104
9
Frame=6 idx=002874 GeodesicLength=0.24735095973674964 rxn_smarts="[C:1]([C:2](=[O:3])[C:4]#[C:5][H:9])([H:6])([H:7])[H:8]>>[C:1](=[C:2]([O:3][H:6])[C:4]#[C:5][H:9])([H:7])[H:8]"
C       -1.29332093       0.37474226       0.28583042
C       -0.20532572      -0.44291690      -0.11216614
O       -0.58554063      -1.21953399      -1.05983292
C        1.18441965      -0.10405679      -0.00632489
C        2.33422641       0.21027239       0.11029237
H       -1.64358760      -0.38935222      -0.96487236
H       -1.10871673       1.35959377       0.69859103
H       -2.05868117      -0.18509150       0.82022038
H        3.37652672       0.39634297       0.22826212
9
Frame=7 idx=002874 GeodesicLength=0.28823183291867266 rxn_smarts="[C:1]([C:2](=[O:3])[C:4]#[C:5][H:9])([H:6])([H:7])[H:8]>>[C:1](=[C:2]([O:3][H:6])[C:4]#[C:5][H:9])([H:7])[H:8]"
C       -1.29024760       0.37096278       0.28684355
C       -0.20614965      -0.46140265      -0.09399467
O       -0.58125147      -1.22590834      -1.05453424
C        1.18225739      -0.10827686       0.00103971
C        2.32990094       0.21540225       0.11306725
H       -1.64136030      -0.37360394      -0.97990625
H       -1.09249748       1.35045988       0.70632776
H       -2.07376484      -0.17465816       0.80898437
H        3.37311299       0.40702503       0.21217252
9
Frame=8 idx=002874 GeodesicLength=0.3291440238483294 rxn_smarts="[C:1]([C:2](=[O:3])[C:4]#[C:5][H:9])([H:6])([H:7])[H:8]>>[C:1](=[C:2]([O:3][H:6])[C:4]#[C:5][H:9])([H:7])[H:8]"
C       -1.28739950       0.36724642       0.28760490
C       -0.20715986      -0.47916615      -0.07619614
O       -0.57643540      -1.23192088      -1.04929286
C        1.17997218      -0.11342374       0.01073837
C        2.32546454       0.21889464       0.11952031
H       -1.63832449      -0.35740624      -0.99528221
H       -1.07724373       1.34118231       0.71408069
H       -2.08839331      -0.16418272       0.79723199
H        3.36951957       0.41877635       0.19159495
9
Frame=9 idx=002874 GeodesicLength=0.3699717309612683 rxn_smarts="[C:1]([C:2](=[O:3])[C:4]#[C:5][H:9])([H:6])([H:7])[H:8]>>[C:1](=[C:2]([O:3][H:6])[C:4]#[C:5][H:9])([H:7])[H:8]"
C       -1.28438582       0.36345958       0.28839817
C       -0.20804091      -0.49568789      -0.06028819
O       -0.57226110      -1.23791551      -1.04442606
C        1.17771917      -0.11721145       0.01737634
C        2.32152918       0.22141203       0.12414252
H       -1.63656793      -0.34230459      -1.00924025
H       -1.06250905       1.33235791       0.72051838
H       -2.10048318      -0.15416898       0.78766578
H        3.36499964       0.43005891       0.17585331
9
Frame=10 idx=002874 GeodesicLength=0.4107235256688806 rxn_smarts="[C:1]([C:2](=[O:3])[C:4]#[C:5][H:9])([H:6])([H:7])[H:8]>>[C:1](=[C:2]([O:3][H:6])[C:4]#[C:5][H:9])([H:7])[H:8]"
C       -1.28169840       0.35950460       0.28915489
C       -0.20871710      -0.51083790      -0.04556392
O       -0.56785792      -1.24364491      -1.03967327
C        1.17534186      -0.11903769       0.02249076
C        2.31759701       0.22487478       0.12851591
H       -1.63554650      -0.32818259      -1.02229882
H       -1.04922135       1.32386447       0.72596539
H       -2.11097382      -0.14504293       0.77949215
H        3.36107623       0.43850218       0.16191691
9
Frame=11 idx=002874 GeodesicLength=0.45147021985412045 rxn_smarts="[C:1]([C:2](=[O:3])[C:4]#[C:5][H:9])([H:6])([H:7])[H:8]>>[C:1](=[C:2]([O:3][H:6])[C:4]#[C:5][H:9])([H:7])[H:8]"
C       -1.27845243       0.35571344       0.28979351
C       -0.20957574      -0.52611492      -0.03163948
O       -0.56426616      -1.24947231      -1.03533088
C        1.17309763      -0.12278947       0.02747254
C        2.31440472       0.22402198       0.13394067
H       -1.63476744      -0.31348599      -1.03514782
H       -1.03499743       1.31546186       0.73090033
H       -2.12035957      -0.13520665       0.77184518
H        3.35491642       0.45187206       0.14816596
9
Frame=12 idx=002874 GeodesicLength=0.4921409081638377 rxn_smarts="[C:1]([C:2](=[O:3])[C:4]#[C:5][H:9])([H:6])([H:7])[H:8]>>[C:1](=[C:2]([O:3][H:6])[C:4]#[C:5][H:9])([H:7])[H:8]"
C       -1.27607690       0.35139313       0.29062289
C       -0.20969692      -0.53905422      -0.01927259
O       -0.56013187      -1.25509177      -1.03078936
C        1.17065607      -0.12127540       0.02838349
C        2.31054427       0.23057688       0.13329048
H       -1.63598301      -0.30133721      -1.04618560
H       -1.02354061       1.30768185       0.73427306
H       -2.12765689      -0.12765871       0.76707027
H        3.35188586       0.45476545       0.14260736
9
Frame=13 idx=002874 GeodesicLength=0.5327875195614417 rxn_smarts="[C:1]([C:2](=[O:3])[C:4]#[C:5][H:9])([H:6])([H:7])[H:8]>>[C:1](=[C:2]([O:3][H:6])[C:4]#[C:5][H:9])([H:7])[H:8]"
C       -1.27384504       0.34694248       0.29142301
C       -0.20960568      -0.55127543      -0.00756400
O       -0.55594458      -1.26060974      -1.02630943
C        1.16816556      -0.11895563       0.02849052
C        2.30665240       0.23781612       0.13183975
H       -1.63783887      -0.28958759      -1.05674170
H       -1.01277729       1.30012407       0.73696520
H       -2.13405094      -0.12064324       0.76322254
H        3.34924445       0.45618896       0.13867411
9
Frame=14 idx=002874 GeodesicLength=0.5734172313908104 rxn_smarts="[C:1]([C:2](=[O:3])[C:4]#[C:5][H:9])([H:6])([H:7])[H:8]>>[C:1](=[C:2]([O:3][H:6])[C:4]#[C:5][H:9])([H:7])[H:8]"
C       -1.27165095       0.34241590       0.29216036
C       -0.20939257      -0.56308730       0.00371675
O       -0.55174970      -1.26607039      -1.02188257
C        1.16565255      -0.11654369       0.02839502
C        2.30279975       0.24482514       0.13039248
H       -1.64004408      -0.27783562      -1.06707726
H       -1.00237904       1.29268948       0.73918097
H       -2.13982244      -0.11386588       0.75989976
H        3.34658647       0.45747237       0.13521449
9
Frame=15 idx=002874 GeodesicLength=0.6140362616477387 rxn_smarts="[C:1]([C:2](=[O:3])[C:4]#[C:5][H:9])([H:6])([H:7])[H:8]>>[C:1](=[C:2]([O:3][H:6])[C:4]#[C:5][H:9])([H:7])[H:8]"
C       -1.26946113       0.33782358       0.29282489
C       -0.20909034      -0.57461738       0.01467382
O       -0.54756427      -1.27151198      -1.01748553
C        1.16313074      -0.11426533       0.02827714
C        2.29897929       0.25146931       0.12907789
H       -1.64249927      -0.26594021      -1.07728117
H       -0.99222645       1.28533069       0.74100554
H       -2.14508675      -0.10722676       0.75695799
H        3.34381817       0.45893809       0.13194942
9
Frame=16 idx=002874 GeodesicLength=0.6546510433111833 rxn_smarts="[C:1]([C:2](=[O:3])[C:4]#[C:5][H:9])([H:6])([H:7])[H:8]>>[C:1](=[C:2]([O:3][H:6])[C:4]#[C:5][H:9])([H:7])[H:8]"
C       -1.26723807       0.33318584       0.29339594
C       -0.20876941      -0.58603733       0.02545784
O       -0.54338790      -1.27696198      -1.01309813
C        1.16061535      -0.11248705       0.02851869
C        2.29520534       0.25736282       0.12838903
H       -1.64499461      -0.25366549      -1.08750973
H       -0.98218224       1.27797643       0.74256591
H       -2.15001416      -0.10057180       0.75414532
H        3.34076571       0.46119856       0.12813513
