14
Frame=0 idx=007796 GeodesicLength=0.0 rxn_smarts="[C:1]([C:2]1=[C:3]([H:11])[N:4]([H:12])[C:5](=[O:6])[C:7]1([H:13])[H:14])([H:8])([H:9])[H:10]>>[C:1]([C@:2]1([H:11])[C-:3]=[N+:4]([H:12])[C:5](=[O:6])[C:7]1([H:13])[H:14])([H:8])([H:9])[H:10]"
C       -1.84194630       0.65103697      -0.32592494
C       -0.41407355       0.31782636      -0.03405460
C        0.61438907       1.26008602       0.09713747
N        1.77820179       0.50778735       0.23185411
C        1.63200155      -0.86143439       0.12102457
O        2.50544124      -1.68507326       0.19161402
C        0.13878360      -1.08082120      -0.09160712
H       -2.05196482       0.43497313      -1.37601697
H       -2.02622250       1.71214755      -0.15735478
H       -2.53193306       0.05706239       0.27636816
H       -0.18154852       1.06512108       1.07447044
H        2.67758432       0.92090543       0.40622771
H       -0.26721273      -1.76317208       0.65633964
H       -0.03150015      -1.53644534      -1.07007772
14
Frame=1 idx=007796 GeodesicLength=0.03371808510482274 rxn_smarts="[C:1]([C:2]1=[C:3]([H:11])[N:4]([H:12])[C:5](=[O:6])[C:7]1([H:13])[H:14])([H:8])([H:9])[H:10]>>[C:1]([C@:2]1([H:11])[C-:3]=[N+:4]([H:12])[C:5](=[O:6])[C:7]1([H:13])[H:14])([H:8])([H:9])[H:10]"
C       -1.84121998       0.65039223      -0.32996865
C       -0.41749928       0.31660308      -0.01785890
C        0.61479051       1.25724653       0.10091326
N        1.77919917       0.50782206       0.22618950
C        1.63175668      -0.86247396       0.11525130
O        2.50698207      -1.68459856       0.17831137
C        0.13721036      -1.08157688      -0.08534474
H       -2.03836125       0.43846827      -1.38352852
H       -2.02972509       1.71046042      -0.15945052
H       -2.53799599       0.05366076       0.26195436
H       -0.18323172       1.07651990       1.08961651
H        2.67884646       0.91997316       0.40234731
H       -0.26138550      -1.76607104       0.66472592
H       -0.03936645      -1.53642596      -1.06315821
14
Frame=2 idx=007796 GeodesicLength=0.06751586677977729 rxn_smarts="[C:1]([C:2]1=[C:3]([H:11])[N:4]([H:12])[C:5](=[O:6])[C:7]1([H:13])[H:14])([H:8])([H:9])[H:10]>>[C:1]([C@:2]1([H:11])[C-:3]=[N+:4]([H:12])[C:5](=[O:6])[C:7]1([H:13])[H:14])([H:8])([H:9])[H:10]"
C       -1.84011427       0.64964458      -0.33395015
C       -0.42092213       0.31545386      -0.00169603
C        0.61505598       1.25439209       0.10475032
N        1.77994955       0.50790552       0.22033809
C        1.63123667      -0.86346783       0.10939454
O        2.50813375      -1.68410524       0.16498892
C        0.13554361      -1.08221902      -0.07909792
H       -2.02436405       0.44181415      -1.39057687
H       -2.03312733       1.70859229      -0.16167198
H       -2.54339655       0.05017707       0.24747553
H       -0.18499082       1.08812501       1.10477558
H        2.67982914       0.91898722       0.39854377
H       -0.25557148      -1.76890883       0.67288559
H       -0.04726207      -1.53639089      -1.05615940
14
Frame=3 idx=007796 GeodesicLength=0.10112437579981713 rxn_smarts="[C:1]([C:2]1=[C:3]([H:11])[N:4]([H:12])[C:5](=[O:6])[C:7]1([H:13])[H:14])([H:8])([H:9])[H:10]>>[C:1]([C@:2]1([H:11])[C-:3]=[N+:4]([H:12])[C:5](=[O:6])[C:7]1([H:13])[H:14])([H:8])([H:9])[H:10]"
C       -1.83891318       0.64888228      -0.33796466
C       -0.42437179       0.31434180       0.01458140
C        0.61525975       1.25147856       0.10868655
N        1.78069009       0.50798568       0.21437895
C        1.63070496      -0.86446260       0.10346337
O        2.50928194      -1.68355503       0.15152941
C        0.13384082      -1.08288903      -0.07282512
H       -2.01018847       0.44527082      -1.39764635
H       -2.03657432       1.70666564      -0.16387578
H       -2.54875951       0.04666792       0.23285804
H       -0.18674212       1.09971352       1.11990240
H        2.68078336       0.91803672       0.39477541
H       -0.24975505      -1.77172013       0.68121668
H       -0.05525648      -1.53641614      -1.04908029
14
Frame=4 idx=007796 GeodesicLength=0.13508916366196208 rxn_smarts="[C:1]([C:2]1=[C:3]([H:11])[N:4]([H:12])[C:5](=[O:6])[C:7]1([H:13])[H:14])([H:8])([H:9])[H:10]>>[C:1]([C@:2]1([H:11])[C-:3]=[N+:4]([H:12])[C:5](=[O:6])[C:7]1([H:13])[H:14])([H:8])([H:9])[H:10]"
C       -1.83754577       0.64800418      -0.34181627
C       -0.42781492       0.31325579       0.03064954
C        0.61542248       1.24857674       0.11250442
N        1.78123009       0.50809262       0.20817589
C        1.62995007      -0.86543997       0.09746652
O        2.51004319      -1.68303066       0.13814619
C        0.13214798      -1.08348684      -0.06667144
H       -1.99591720       0.44850019      -1.40428683
H       -2.03994411       1.70465319      -0.16620783
H       -2.55348226       0.04314711       0.21844517
H       -0.18852610       1.11165950       1.13488990
H        2.68148493       0.91696668       0.39150188
H       -0.24386627      -1.77449498       0.68924881
H       -0.06318212      -1.53640355      -1.04204596
14
Frame=5 idx=007796 GeodesicLength=0.1692242565756112 rxn_smarts="[C:1]([C:2]1=[C:3]([H:11])[N:4]([H:12])[C:5](=[O:6])[C:7]1([H:13])[H:14])([H:8])([H:9])[H:10]>>[C:1]([C@:2]1([H:11])[C-:3]=[N+:4]([H:12])[C:5](=[O:6])[C:7]1([H:13])[H:14])([H:8])([H:9])[H:10]"
C       -1.83606020       0.64712164      -0.34568109
C       -0.43124582       0.31220305       0.04677291
C        0.61554011       1.24566576       0.11640909
N        1.78175313       0.50825126       0.20186790
C        1.62916339      -0.86639894       0.09143699
O        2.51080241      -1.68250511       0.12473678
C        0.13041807      -1.08402585      -0.06047426
H       -1.98150492       0.45175891      -1.41089570
H       -2.04329900       1.70259548      -0.16860065
H       -2.55817835       0.03962712       0.20393926
H       -0.19036475       1.12345990       1.14999707
H        2.68213165       0.91589807       0.38811307
H       -0.23799837      -1.77724251       0.69730398
H       -0.07115735      -1.53640876      -1.03492535
14
Frame=6 idx=007796 GeodesicLength=0.20266192725309967 rxn_smarts="[C:1]([C:2]1=[C:3]([H:11])[N:4]([H:12])[C:5](=[O:6])[C:7]1([H:13])[H:14])([H:8])([H:9])[H:10]>>[C:1]([C@:2]1([H:11])[C-:3]=[N+:4]([H:12])[C:5](=[O:6])[C:7]1([H:13])[H:14])([H:8])([H:9])[H:10]"
C       -1.83417175       0.64612696      -0.34955298
C       -0.43470714       0.31122517       0.06297440
C        0.61546930       1.24270653       0.12066869
N        1.78204863       0.50844117       0.19549397
C        1.62811538      -0.86730037       0.08525404
O        2.51110697      -1.68189784       0.11108632
C        0.12858478      -1.08449400      -0.05421246
H       -1.96660506       0.45501501      -1.41719111
H       -2.04657368       1.70032670      -0.17101062
H       -2.56221198       0.03591923       0.18915788
H       -0.19229422       1.13551441       1.16495358
H        2.68258786       0.91478294       0.38464028
H       -0.23208103      -1.77988228       0.70533222
H       -0.07926806      -1.53648364      -1.02759421
14
Frame=7 idx=007796 GeodesicLength=0.236768812670815 rxn_smarts="[C:1]([C:2]1=[C:3]([H:11])[N:4]([H:12])[C:5](=[O:6])[C:7]1([H:13])[H:14])([H:8])([H:9])[H:10]>>[C:1]([C@:2]1([H:11])[C-:3]=[N+:4]([H:12])[C:5](=[O:6])[C:7]1([H:13])[H:14])([H:8])([H:9])[H:10]"
C       -1.83225031       0.64514397      -0.35342234
C       -0.43815217       0.31024345       0.07907931
C        0.61542437       1.23975711       0.12480752
N        1.78227923       0.50863838       0.18905983
C        1.62703164      -0.86818330       0.07906321
O        2.51146862      -1.68130478       0.09730095
C        0.12674372      -1.08495278      -0.04797554
H       -1.95169234       0.45825556      -1.42340712
H       -2.04983087       1.69805677      -0.17353349
H       -2.56614627       0.03226169       0.17447418
H       -0.19429108       1.14754381       1.18000941
H        2.68293372       0.91362895       0.38136856
H       -0.22616645      -1.78248294       0.71341951
H       -0.08735181      -1.53660589      -1.02024398
14
Frame=8 idx=007796 GeodesicLength=0.2702782845370387 rxn_smarts="[C:1]([C:2]1=[C:3]([H:11])[N:4]([H:12])[C:5](=[O:6])[C:7]1([H:13])[H:14])([H:8])([H:9])[H:10]>>[C:1]([C@:2]1([H:11])[C-:3]=[N+:4]([H:12])[C:5](=[O:6])[C:7]1([H:13])[H:14])([H:8])([H:9])[H:10]"
C       -1.83002660       0.64406160      -0.35723235
C       -0.44159449       0.30936442       0.09510622
C        0.61526827       1.23676796       0.12931237
N        1.78236812       0.50887898       0.18264851
C        1.62572105      -0.86905739       0.07280770
O        2.51138063      -1.68058157       0.08335283
C        0.12487640      -1.08534967      -0.04165767
H       -1.93645342       0.46138443      -1.42934979
H       -2.05298056       1.69564870      -0.17613274
H       -2.56953530       0.02851115       0.15965348
H       -0.19641966       1.15965852       1.19490839
H        2.68317585       0.91246216       0.37795663
H       -0.22023288      -1.78498740       0.72135027
H       -0.09554742      -1.53676188      -1.01272386
14
Frame=9 idx=007796 GeodesicLength=0.30474380259138506 rxn_smarts="[C:1]([C:2]1=[C:3]([H:11])[N:4]([H:12])[C:5](=[O:6])[C:7]1([H:13])[H:14])([H:8])([H:9])[H:10]>>[C:1]([C@:2]1([H:11])[C-:3]=[N+:4]([H:12])[C:5](=[O:6])[C:7]1([H:13])[H:14])([H:8])([H:9])[H:10]"
C       -1.82779707       0.64300675      -0.36106161
C       -0.44502348       0.30848657       0.11098720
C        0.61514654       1.23379122       0.13366181
N        1.78238182       0.50911180       0.17613152
C        1.62442775      -0.86991122       0.06652292
O        2.51137300      -1.67994542       0.06945524
C        0.12297330      -1.08573500      -0.03542833
H       -1.92133190       0.46450613      -1.43514590
H       -2.05612220       1.69325358      -0.17883924
H       -2.57283195       0.02484426       0.14493578
H       -0.19864111       1.17175429       1.21000435
H        2.68335856       0.91127963       0.37471532
H       -0.21426806      -1.78748661       0.72932806
H       -0.10364519      -1.53695600      -1.00526712
14
Frame=10 idx=007796 GeodesicLength=0.33815595484724703 rxn_smarts="[C:1]([C:2]1=[C:3]([H:11])[N:4]([H:12])[C:5](=[O:6])[C:7]1([H:13])[H:14])([H:8])([H:9])[H:10]>>[C:1]([C@:2]1([H:11])[C-:3]=[N+:4]([H:12])[C:5](=[O:6])[C:7]1([H:13])[H:14])([H:8])([H:9])[H:10]"
C       -1.82515344       0.64184429      -0.36484847
C       -0.44845463       0.30770561       0.12678635
C        0.61485615       1.23077922       0.13855768
N        1.78218710       0.50941290       0.16961585
C        1.62285275      -0.87069439       0.06010774
O        2.51088609      -1.67920516       0.05542980
C        0.12100748      -1.08601522      -0.02914987
H       -1.90578452       0.46763701      -1.44065519
H       -2.05914632       1.69066211      -0.18158384
H       -2.57541121       0.02100111       0.13004759
H       -0.20106286       1.18389123       1.22487203
H        2.68337081       0.91002426       0.37118914
H       -0.20830057      -1.78980588       0.73721740
H       -0.11184683      -1.53723709      -0.99758621
14
Frame=11 idx=007796 GeodesicLength=0.3715473778746737 rxn_smarts="[C:1]([C:2]1=[C:3]([H:11])[N:4]([H:12])[C:5](=[O:6])[C:7]1([H:13])[H:14])([H:8])([H:9])[H:10]>>[C:1]([C@:2]1([H:11])[C-:3]=[N+:4]([H:12])[C:5](=[O:6])[C:7]1([H:13])[H:14])([H:8])([H:9])[H:10]"
C       -1.82238249       0.64067039      -0.36866332
C       -0.45188056       0.30695721       0.14258976
C        0.61456613       1.22779606       0.14346327
N        1.78200588       0.50974979       0.16294757
C        1.62124627      -0.87145158       0.05367200
O        2.51036421      -1.67845295       0.04144363
C        0.11902766      -1.08627079      -0.02288158
H       -1.89017708       0.47085603      -1.44614749
H       -2.06218037       1.68806236      -0.18436483
H       -2.57798474       0.01719653       0.11521361
H       -0.20363283       1.19574559       1.23973627
H        2.68338724       0.90877968       0.36764025
H       -0.20233016      -1.79211449       0.74511828
H       -0.12002917      -1.53752383      -0.98976742
14
Frame=12 idx=007796 GeodesicLength=0.40600390131208064 rxn_smarts="[C:1]([C:2]1=[C:3]([H:11])[N:4]([H:12])[C:5](=[O:6])[C:7]1([H:13])[H:14])([H:8])([H:9])[H:10]>>[C:1]([C@:2]1([H:11])[C-:3]=[N+:4]([H:12])[C:5](=[O:6])[C:7]1([H:13])[H:14])([H:8])([H:9])[H:10]"
C       -1.81958910       0.63946486      -0.37232791
C       -0.45524470       0.30625459       0.15784945
C        0.61431372       1.22474141       0.14836950
N        1.78156261       0.51006379       0.15646147
C        1.61946596      -0.87221887       0.04726315
O        2.50958107      -1.67769271       0.02749146
C        0.11708872      -1.08650129      -0.01675653
H       -1.87476185       0.47363847      -1.45109931
H       -2.06499745       1.68540354      -0.18739849
H       -2.57985805       0.01347545       0.10068046
H       -0.20625256       1.20810160       1.25468478
H        2.68315143       0.90744331       0.36436078
H       -0.19639120      -1.79432623       0.75271527
H       -0.12806860      -1.53784793      -0.98229408
14
Frame=13 idx=007796 GeodesicLength=0.44027742182186164 rxn_smarts="[C:1]([C:2]1=[C:3]([H:11])[N:4]([H:12])[C:5](=[O:6])[C:7]1([H:13])[H:14])([H:8])([H:9])[H:10]>>[C:1]([C@:2]1([H:11])[C-:3]=[N+:4]([H:12])[C:5](=[O:6])[C:7]1([H:13])[H:14])([H:8])([H:9])[H:10]"
C       -1.81669620       0.63827967      -0.37601016
C       -0.45861249       0.30556922       0.17312807
C        0.61404092       1.22172369       0.15334265
N        1.78112389       0.51042451       0.14994529
C        1.61766234      -0.87295189       0.04074966
O        2.50881340      -1.67692026       0.01339208
C        0.11511690      -1.08671813      -0.01061502
H       -1.85925200       0.47645527      -1.45609964
H       -2.06780533       1.68277146      -0.19056928
H       -2.58171631       0.00980051       0.08620118
H       -0.20900129       1.22016586       1.26963978
H        2.68291741       0.90612457       0.36111026
H       -0.19042356      -1.79649624       0.76040679
H       -0.13616769      -1.53822825      -0.97462166
14
Frame=14 idx=007796 GeodesicLength=0.4738797140514421 rxn_smarts="[C:1]([C:2]1=[C:3]([H:11])[N:4]([H:12])[C:5](=[O:6])[C:7]1([H:13])[H:14])([H:8])([H:9])[H:10]>>[C:1]([C@:2]1([H:11])[C-:3]=[N+:4]([H:12])[C:5](=[O:6])[C:7]1([H:13])[H:14])([H:8])([H:9])[H:10]"
C       -1.81344480       0.63701537      -0.37967078
C       -0.46196264       0.30497351       0.18811858
C        0.61368553       1.21867115       0.15886514
N        1.78048279       0.51083923       0.14345226
C        1.61561665      -0.87361560       0.03419471
O        2.50757303      -1.67604782      -0.00067051
C        0.11311948      -1.08685173      -0.00449075
H       -1.84355101       0.47927235      -1.46075761
H       -2.07045273       1.67999238      -0.19380465
H       -2.58289263       0.00605100       0.07170329
H       -0.21208200       1.23216899       1.28444831
H        2.68258335       0.90473863       0.35747852
H       -0.18445448      -1.79849978       0.76795229
H       -0.14422054      -1.53870768      -0.96681880
14
Frame=15 idx=007796 GeodesicLength=0.5080592434509663 rxn_smarts="[C:1]([C:2]1=[C:3]([H:11])[N:4]([H:12])[C:5](=[O:6])[C:7]1([H:13])[H:14])([H:8])([H:9])[H:10]>>[C:1]([C@:2]1([H:11])[C-:3]=[N+:4]([H:12])[C:5](=[O:6])[C:7]1([H:13])[H:14])([H:8])([H:9])[H:10]"
C       -1.81022142       0.63574694      -0.38330702
C       -0.46530152       0.30439565       0.20304801
C        0.61336364       1.21563118       0.16424954
N        1.77981786       0.51124737       0.13692512
C        1.61354127      -0.87428265       0.02756255
O        2.50639421      -1.67519472      -0.01482837
C        0.11115258      -1.08700479       0.00162270
H       -1.82792160       0.48195632      -1.46533485
H       -2.07306163       1.67722473      -0.19715382
H       -2.58406653       0.00236801       0.05729109
H       -0.21515639       1.24428597       1.29935835
H        2.68219798       0.90331503       0.35413141
H       -0.17848029      -1.80048603       0.77545138
H       -0.15225816      -1.53920300      -0.95901610
14
Frame=16 idx=007796 GeodesicLength=0.5418725903308955 rxn_smarts="[C:1]([C:2]1=[C:3]([H:11])[N:4]([H:12])[C:5](=[O:6])[C:7]1([H:13])[H:14])([H:8])([H:9])[H:10]>>[C:1]([C@:2]1([H:11])[C-:3]=[N+:4]([H:12])[C:5](=[O:6])[C:7]1([H:13])[H:14])([H:8])([H:9])[H:10]"
C       -1.80668814       0.63447176      -0.38694533
C       -0.46863467       0.30384908       0.21763135
C        0.61300287       1.21253340       0.17013123
N        1.77896326       0.51171617       0.13048820
C        1.61130619      -0.87490510       0.02111062
O        2.50483666      -1.67426972      -0.02892813
C        0.10912559      -1.08708317       0.00768548
H       -1.81211707       0.48471350      -1.46964574
H       -2.07551129       1.67439971      -0.20063058
H       -2.58462034      -0.00131148       0.04296246
H       -0.21867567       1.25609658       1.31426429
H        2.68174218       0.90194913       0.35013853
H       -0.17252556      -1.80238330       0.78291532
H       -0.16020401      -1.53977656      -0.95117770
