14
Frame=0 idx=007288 GeodesicLength=0.0 rxn_smarts="[O:1]([C@@:2]1([H:9])[C:3]([H:10])([H:11])[N:4]([H:12])[C:5]([H:13])([H:14])[C:6]1=[O:7])[H:8]>>[O:1]1[C@@:2]2([H:9])[C:3]([H:10])([H:11])[N:4]([H:12])[C:5]([H:13])([H:14])[C@@:6]12[O:7][H:8]"
O        2.06982386      -0.11101295      -0.13638522
C        0.97013530       0.24285036       0.57714654
C        0.06007156       1.35977593       0.00034835
N       -1.27700674       0.74899306      -0.01364400
C       -1.10940071      -0.63548301      -0.42494205
C        0.18631506      -0.95470968       0.20790489
O        0.68333737      -2.12922201       0.26660297
H        1.64928503      -1.91048550       0.40646685
H        1.10414966       0.38017908       1.66876980
H        0.05492498       2.26199120       0.61057454
H        0.44546689       1.59808166      -0.99886614
H       -1.93701055       1.25146925      -0.58763063
H       -0.99903416      -0.80327925      -1.50982580
H       -1.90105755      -1.29914816      -0.06652007
14
Frame=1 idx=007288 GeodesicLength=0.09076900828225443 rxn_smarts="[O:1]([C@@:2]1([H:9])[C:3]([H:10])([H:11])[N:4]([H:12])[C:5]([H:13])([H:14])[C:6]1=[O:7])[H:8]>>[O:1]1[C@@:2]2([H:9])[C:3]([H:10])([H:11])[N:4]([H:12])[C:5]([H:13])([H:14])[C@@:6]12[O:7][H:8]"
O        2.05347705      -0.12716263      -0.14106883
C        0.96316938       0.24446251       0.58385258
C        0.05999111       1.36203329       0.00626054
N       -1.27664017       0.75354860      -0.02927088
C       -1.11189616      -0.63705971      -0.41933732
C        0.18595853      -0.95638679       0.21186728
O        0.68401555      -2.13133724       0.27436233
H        1.67041010      -1.89707822       0.37491983
H        1.10464314       0.37651502       1.67390887
H        0.04814459       2.25794556       0.62600994
H        0.45184701       1.61500761      -0.98671078
H       -1.91862863       1.25105576      -0.62754113
H       -1.01099122      -0.81960058      -1.50225200
H       -1.90350028      -1.29194318      -0.04500043
14
Frame=2 idx=007288 GeodesicLength=0.18158088892744195 rxn_smarts="[O:1]([C@@:2]1([H:9])[C:3]([H:10])([H:11])[N:4]([H:12])[C:5]([H:13])([H:14])[C:6]1=[O:7])[H:8]>>[O:1]1[C@@:2]2([H:9])[C:3]([H:10])([H:11])[N:4]([H:12])[C:5]([H:13])([H:14])[C@@:6]12[O:7][H:8]"
O        2.03718040      -0.14252994      -0.14633303
C        0.95640846       0.24593788       0.59012826
C        0.05981371       1.36428394       0.01223373
N       -1.27599153       0.75794749      -0.04525271
C       -1.11448477      -0.63859315      -0.41375173
C        0.18573227      -0.95815200       0.21543132
O        0.68495763      -2.13351766       0.28123075
H        1.69045240      -1.88362845       0.34522971
H        1.10554501       0.37261005       1.67856370
H        0.04077538       2.25351438       0.64175207
H        0.45820509       1.63246380      -0.97405779
H       -1.89917448       1.24996672      -0.66753147
H       -1.02353537      -0.83605843      -1.49443724
H       -1.90588420      -1.28424463      -0.02320557
14
Frame=3 idx=007288 GeodesicLength=0.2722229219778068 rxn_smarts="[O:1]([C@@:2]1([H:9])[C:3]([H:10])([H:11])[N:4]([H:12])[C:5]([H:13])([H:14])[C:6]1=[O:7])[H:8]>>[O:1]1[C@@:2]2([H:9])[C:3]([H:10])([H:11])[N:4]([H:12])[C:5]([H:13])([H:14])[C@@:6]12[O:7][H:8]"
O        2.02063724      -0.15716186      -0.15217332
C        0.94973582       0.24733082       0.59594864
C        0.05953823       1.36645329       0.01830816
N       -1.27490782       0.76214105      -0.06154744
C       -1.11706547      -0.64008379      -0.40817573
C        0.18558441      -0.95994083       0.21858078
O        0.68592019      -2.13569195       0.28732635
H        1.70945526      -1.86997175       0.31711138
H        1.10674975       0.36863955       1.68261413
H        0.03286799       2.24862222       0.65779426
H        0.46447542       1.65024409      -0.96077101
H       -1.87840009       1.24811505      -0.70749198
H       -1.03653522      -0.85272410      -1.48627604
H       -1.90805571      -1.27597179      -0.00124819
14
Frame=4 idx=007288 GeodesicLength=0.3629429630423241 rxn_smarts="[O:1]([C@@:2]1([H:9])[C:3]([H:10])([H:11])[N:4]([H:12])[C:5]([H:13])([H:14])[C:6]1=[O:7])[H:8]>>[O:1]1[C@@:2]2([H:9])[C:3]([H:10])([H:11])[N:4]([H:12])[C:5]([H:13])([H:14])[C@@:6]12[O:7][H:8]"
O        2.00416132      -0.17113667      -0.15859194
C        0.94323958       0.24856883       0.60137555
C        0.05913047       1.36862956       0.02440560
N       -1.27357263       0.76621707      -0.07818391
C       -1.11977553      -0.64148262      -0.40263470
C        0.18555317      -0.96184212       0.22133601
O        0.68694141      -2.13806395       0.29269283
H        1.72794656      -1.85625101       0.29074600
H        1.10832158       0.36441005       1.68623218
H        0.02433175       2.24336007       0.67404932
H        0.47068020       1.66850680      -0.94702239
H       -1.85660875       1.24564530      -0.74744310
H       -1.05012976      -0.86943067      -1.47787810
H       -1.91021938      -1.26713064       0.02091663
14
Frame=5 idx=007288 GeodesicLength=0.45364321408912334 rxn_smarts="[O:1]([C@@:2]1([H:9])[C:3]([H:10])([H:11])[N:4]([H:12])[C:5]([H:13])([H:14])[C:6]1=[O:7])[H:8]>>[O:1]1[C@@:2]2([H:9])[C:3]([H:10])([H:11])[N:4]([H:12])[C:5]([H:13])([H:14])[C@@:6]12[O:7][H:8]"
O        1.98755606      -0.18442997      -0.16554961
C        0.93684834       0.24969923       0.60639310
C        0.05863832       1.37073325       0.03054936
N       -1.27184550       0.77009172      -0.09516709
C       -1.12256087      -0.64280871      -0.39713467
C        0.18556935      -0.96377689       0.22365161
O        0.68776614      -2.14048334       0.29735045
H        1.74590603      -1.84224532       0.26599228
H        1.11020429       0.36002936       1.68929910
H        0.01527201       2.23761148       0.69048161
H        0.47680016       1.68711731      -0.93265910
H       -1.83359350       1.24239483      -0.78726947
H       -1.06432132      -0.88622688      -1.46914134
H       -1.91223950      -1.25770609       0.04320376
14
Frame=6 idx=007288 GeodesicLength=0.5443122077873936 rxn_smarts="[O:1]([C@@:2]1([H:9])[C:3]([H:10])([H:11])[N:4]([H:12])[C:5]([H:13])([H:14])[C:6]1=[O:7])[H:8]>>[O:1]1[C@@:2]2([H:9])[C:3]([H:10])([H:11])[N:4]([H:12])[C:5]([H:13])([H:14])[C@@:6]12[O:7][H:8]"
O        1.97089622      -0.19712301      -0.17305990
C        0.93056365       0.25069018       0.61105758
C        0.05798917       1.37281723       0.03674495
N       -1.26980575       0.77385471      -0.11256769
C       -1.12547213      -0.64402089      -0.39162976
C        0.18566779      -0.96580085       0.22557607
O        0.68846983      -2.14310834       0.30143260
H        1.76364600      -1.82807480       0.24257523
H        1.11238201       0.35544207       1.69194037
H        0.00551673       2.23141977       0.70713167
H        0.48282145       1.70613702      -0.91771013
H       -1.80932091       1.23844827      -0.82720790
H       -1.07915554      -0.90312121      -1.46004382
H       -1.91419852      -1.24756016       0.06576072
14
Frame=7 idx=007288 GeodesicLength=0.6349746103552775 rxn_smarts="[O:1]([C@@:2]1([H:9])[C:3]([H:10])([H:11])[N:4]([H:12])[C:5]([H:13])([H:14])[C:6]1=[O:7])[H:8]>>[O:1]1[C@@:2]2([H:9])[C:3]([H:10])([H:11])[N:4]([H:12])[C:5]([H:13])([H:14])[C@@:6]12[O:7][H:8]"
O        1.95407323      -0.20919732      -0.18110335
C        0.92435298       0.25157687       0.61535388
C        0.05720115       1.37484830       0.04300791
N       -1.26737745       0.77744486      -0.13036652
C       -1.12849449      -0.64512877      -0.38612206
C        0.18579680      -0.96787791       0.22712092
O        0.68888316      -2.14587345       0.30506986
H        1.78118650      -1.81361880       0.22029887
H        1.11484818       0.35071653       1.69407012
H       -0.00488821       2.22473390       0.72395551
H        0.48874019       1.72549492      -0.90207986
H       -1.78365589       1.23369130      -0.86717460
H       -1.09458035      -0.92009967      -1.45051331
H       -1.91608580      -1.23671075       0.08848263
14
Frame=8 idx=007288 GeodesicLength=0.7256891795111329 rxn_smarts="[O:1]([C@@:2]1([H:9])[C:3]([H:10])([H:11])[N:4]([H:12])[C:5]([H:13])([H:14])[C:6]1=[O:7])[H:8]>>[O:1]1[C@@:2]2([H:9])[C:3]([H:10])([H:11])[N:4]([H:12])[C:5]([H:13])([H:14])[C@@:6]12[O:7][H:8]"
O        1.93721812      -0.22077413      -0.18968604
C        0.91824241       0.25231448       0.61933906
C        0.05622062       1.37686103       0.04929784
N       -1.26466163       0.78094833      -0.14857458
C       -1.13167021      -0.64608674      -0.38061837
C        0.18599037      -0.97005347       0.22831844
O        0.68907445      -2.14889056       0.30834343
H        1.79881686      -1.79897910       0.19911956
H        1.11760871       0.34578573       1.69582604
H       -0.01603553       2.21759850       0.74091852
H        0.49449727       1.74520344      -0.88588842
H       -1.75672442       1.22824738      -0.90718905
H       -1.11063309      -0.93707410      -1.44061628
H       -1.91794395      -1.22510080       0.11140986
14
Frame=9 idx=007288 GeodesicLength=0.8162600045562256 rxn_smarts="[O:1]([C@@:2]1([H:9])[C:3]([H:10])([H:11])[N:4]([H:12])[C:5]([H:13])([H:14])[C:6]1=[O:7])[H:8]>>[O:1]1[C@@:2]2([H:9])[C:3]([H:10])([H:11])[N:4]([H:12])[C:5]([H:13])([H:14])[C@@:6]12[O:7][H:8]"
O        1.92008457      -0.23176045      -0.19868087
C        0.91213819       0.25298226       0.62296510
C        0.05515424       1.37876185       0.05561087
N       -1.26143041       0.78420328      -0.16712784
C       -1.13490019      -0.64693817      -0.37514317
C        0.18614331      -0.97223172       0.22908488
O        0.68875612      -2.15195929       0.31114274
H        1.81627014      -1.78384305       0.17901903
H        1.12054304       0.34080041       1.69700112
H       -0.02768207       2.20990960       0.75786054
H        0.50007037       1.76507428      -0.86897590
H       -1.72832592       1.22185000      -0.94687998
H       -1.12728429      -0.95404550      -1.43022566
H       -1.91953710      -1.21280349       0.13434914
14
Frame=10 idx=007288 GeodesicLength=0.9068739021514423 rxn_smarts="[O:1]([C@@:2]1([H:9])[C:3]([H:10])([H:11])[N:4]([H:12])[C:5]([H:13])([H:14])[C:6]1=[O:7])[H:8]>>[O:1]1[C@@:2]2([H:9])[C:3]([H:10])([H:11])[N:4]([H:12])[C:5]([H:13])([H:14])[C@@:6]12[O:7][H:8]"
O        1.90286755      -0.24228760      -0.20815793
C        0.90610287       0.25351332       0.62631052
C        0.05388196       1.38062426       0.06195351
N       -1.25786465       0.78735407      -0.18612320
C       -1.13829537      -0.64761901      -0.36964803
C        0.18632388      -0.97449757       0.22953392
O        0.68812201      -2.15527203       0.31369849
H        1.83395761      -1.76841696       0.15968335
H        1.12373024       0.33564477       1.69780487
H       -0.04011123       2.20172059       0.77488028
H        0.50544399       1.78521418      -0.85144130
H       -1.69848325       1.21465850      -0.98659851
H       -1.14458165      -0.97097242      -1.41937272
H       -1.92109396      -1.19966411       0.15747676
14
Frame=11 idx=007288 GeodesicLength=0.9974962489517584 rxn_smarts="[O:1]([C@@:2]1([H:9])[C:3]([H:10])([H:11])[N:4]([H:12])[C:5]([H:13])([H:14])[C:6]1=[O:7])[H:8]>>[O:1]1[C@@:2]2([H:9])[C:3]([H:10])([H:11])[N:4]([H:12])[C:5]([H:13])([H:14])[C@@:6]12[O:7][H:8]"
O        1.88548185      -0.25232917      -0.21808954
C        0.90010115       0.25392853       0.62937954
C        0.05241268       1.38242344       0.06835669
N       -1.25387832       0.79036192      -0.20564845
C       -1.14185215      -0.64813123      -0.36409474
C        0.18649294      -0.97682314       0.22964583
O        0.68708484      -2.15876694       0.31598272
H        1.85183913      -1.75256256       0.14091961
H        1.12713652       0.33034550       1.69819528
H       -0.05335090       2.19294484       0.79199126
H        0.51061801       1.80562079      -0.83314644
H       -1.66693561       1.20650167      -1.02642599
H       -1.16261158      -0.98791193      -1.40792717
H       -1.92253856      -1.18560172       0.18086140
14
Frame=12 idx=007288 GeodesicLength=1.0881765373112753 rxn_smarts="[O:1]([C@@:2]1([H:9])[C:3]([H:10])([H:11])[N:4]([H:12])[C:5]([H:13])([H:14])[C:6]1=[O:7])[H:8]>>[O:1]1[C@@:2]2([H:9])[C:3]([H:10])([H:11])[N:4]([H:12])[C:5]([H:13])([H:14])[C@@:6]12[O:7][H:8]"
O        1.86787813      -0.26189934      -0.22847298
C        0.89411521       0.25423695       0.63217808
C        0.05072324       1.38415390       0.07483464
N       -1.24940592       0.79321085      -0.22576534
C       -1.14557976      -0.64846373      -0.35846020
C        0.18662908      -0.97920454       0.22945028
O        0.68560090      -2.16243448       0.31805243
H        1.86995188      -1.73621737       0.12252299
H        1.13076124       0.32492280       1.69815622
H       -0.06748381       2.18353274       0.80917984
H        0.51555801       1.82629745      -0.81400778
H       -1.63346598       1.19727151      -1.06637623
H       -1.18140731      -1.00487016      -1.39581563
H       -1.92387493      -1.17053660       0.20452368
14
Frame=13 idx=007288 GeodesicLength=1.1788850481199038 rxn_smarts="[O:1]([C@@:2]1([H:9])[C:3]([H:10])([H:11])[N:4]([H:12])[C:5]([H:13])([H:14])[C:6]1=[O:7])[H:8]>>[O:1]1[C@@:2]2([H:9])[C:3]([H:10])([H:11])[N:4]([H:12])[C:5]([H:13])([H:14])[C@@:6]12[O:7][H:8]"
O        1.85009644      -0.27107156      -0.23924834
C        0.88815343       0.25443112       0.63472813
C        0.04881679       1.38579620       0.08133431
N       -1.24448370       0.79589434      -0.24635964
C       -1.14946626      -0.64858607      -0.35278495
C        0.18672136      -0.98164815       0.22896871
O        0.68364550      -2.16629717       0.31995415
H        1.88836351      -1.71933810       0.10451269
H        1.13458176       0.31939605       1.69772389
H       -0.08242879       2.17351681       0.82630862
H        0.52018302       1.84709649      -0.79416297
H       -1.59822012       1.18698087      -1.10617405
H       -1.20088747      -1.02166130      -1.38310069
H       -1.92507545      -1.15450953       0.22830014
14
Frame=14 idx=007288 GeodesicLength=1.2695977566006207 rxn_smarts="[O:1]([C@@:2]1([H:9])[C:3]([H:10])([H:11])[N:4]([H:12])[C:5]([H:13])([H:14])[C:6]1=[O:7])[H:8]>>[O:1]1[C@@:2]2([H:9])[C:3]([H:10])([H:11])[N:4]([H:12])[C:5]([H:13])([H:14])[C@@:6]12[O:7][H:8]"
O        1.83209965      -0.27988577      -0.25033762
C        0.88219438       0.25452272       0.63702572
C        0.04672060       1.38732133       0.08780495
N       -1.23908677       0.79837562      -0.26729055
C       -1.15346763      -0.64849255      -0.34710964
C        0.18673900      -0.98414734       0.22820915
O        0.68112820      -2.17034238       0.32170288
H        1.90706520      -1.70182878       0.08692874
H        1.13854169       0.31381314       1.69686292
H       -0.09804176       2.16292510       0.84321001
H        0.52440928       1.86786018      -0.77371716
H       -1.56129295       1.17561433      -1.14545656
H       -1.22093740      -1.03812360      -1.36982566
H       -1.92607148      -1.13761201       0.25199282
14
Frame=15 idx=007288 GeodesicLength=1.3603690873208194 rxn_smarts="[O:1]([C@@:2]1([H:9])[C:3]([H:10])([H:11])[N:4]([H:12])[C:5]([H:13])([H:14])[C:6]1=[O:7])[H:8]>>[O:1]1[C@@:2]2([H:9])[C:3]([H:10])([H:11])[N:4]([H:12])[C:5]([H:13])([H:14])[C@@:6]12[O:7][H:8]"
O        1.81391662      -0.28842229      -0.26174099
C        0.87625994       0.25450228       0.63909802
C        0.04440577       1.38873141       0.09423599
N       -1.23322546       0.80065271      -0.28854799
C       -1.15760357      -0.64815082      -0.34144793
C        0.18668166      -0.98671981       0.22724775
O        0.67805731      -2.17460154       0.32342931
H        1.92615974      -1.68368716       0.06960845
H        1.14269013       0.30818770       1.69562356
H       -0.11438179       2.15177110       0.85985027
H        0.52817988       1.88855048      -0.75272132
H       -1.52269104       1.16313839      -1.18413140
H       -1.24151278      -1.05416232      -1.35603176
H       -1.92693641      -1.11979013       0.27552805
14
Frame=16 idx=007288 GeodesicLength=1.4511732999467988 rxn_smarts="[O:1]([C@@:2]1([H:9])[C:3]([H:10])([H:11])[N:4]([H:12])[C:5]([H:13])([H:14])[C:6]1=[O:7])[H:8]>>[O:1]1[C@@:2]2([H:9])[C:3]([H:10])([H:11])[N:4]([H:12])[C:5]([H:13])([H:14])[C@@:6]12[O:7][H:8]"
O        1.79555258      -0.29672381      -0.27334003
C        0.87033057       0.25436945       0.64095198
C        0.04192208       1.38998854       0.10055489
N       -1.22691419       0.80270057      -0.30993737
C       -1.16182459      -0.64756396      -0.33585134
C        0.18652820      -0.98936247       0.22607860
O        0.67435079      -2.17906809       0.32513367
H        1.94565238      -1.66479051       0.05264546
H        1.14692473       0.30254162       1.69399812
H       -0.13122568       2.14011397       0.87602794
H        0.53142806       1.90896005      -0.73137221
H       -1.48264977       1.14962037      -1.22177410
H       -1.26247952      -1.06957886      -1.34181640
H       -1.92759563      -1.10120687       0.29870079
