13
Frame=0 idx=009671 GeodesicLength=0.0 rxn_smarts="[C:1]([c:2]1[n:3][c:4]([H:11])[c:5]([O:6][H:12])[n:7]1[H:13])([H:8])([H:9])[H:10]>>[C:1]([C@@:2]1([H:13])[N:3]=[C:4]([H:11])[C:5]([O:6][H:12])=[N:7]1)([H:8])([H:9])[H:10]"
C        2.11716758      -0.26104380       0.28493676
C        0.69807705       0.00103709      -0.10061535
N        0.09324126      -0.54247381      -1.16525024
C       -1.21429650      -0.42335154      -0.93111973
C       -1.42784915       0.21773263       0.28650519
O       -2.57011186       0.63562790       0.86790156
N       -0.25638616       0.47207001       0.87743727
H        2.74327291      -0.25153549      -0.60571299
H        2.19842686      -1.24234555       0.75619919
H        2.47608371       0.48629793       0.99118010
H       -1.95529595      -0.75505570      -1.64672916
H       -3.31211493       0.42989577       0.29611906
H        0.40978516       1.23314461       0.08914830
13
Frame=1 idx=009671 GeodesicLength=0.047590432009748065 rxn_smarts="[C:1]([c:2]1[n:3][c:4]([H:11])[c:5]([O:6][H:12])[n:7]1[H:13])([H:8])([H:9])[H:10]>>[C:1]([C@@:2]1([H:13])[N:3]=[C:4]([H:11])[C:5]([O:6][H:12])=[N:7]1)([H:8])([H:9])[H:10]"
C        2.11327883      -0.26610621       0.28447363
C        0.69937552       0.01834994      -0.10345928
N        0.09727100      -0.50607510      -1.18194963
C       -1.21053430      -0.41146610      -0.94205074
C       -1.42875466       0.20833018       0.28760776
O       -2.57311745       0.61504098       0.87225931
N       -0.25915186       0.46369492       0.87841577
H        2.73180409      -0.33316478      -0.60902371
H        2.17572169      -1.21771803       0.81542498
H        2.50614073       0.51307263       0.93625731
H       -1.94952299      -0.73641372      -1.66286312
H       -3.31524566       0.39686544       0.30524820
H        0.41273506       1.25558984       0.11965952
13
Frame=2 idx=009671 GeodesicLength=0.09515161499300631 rxn_smarts="[C:1]([c:2]1[n:3][c:4]([H:11])[c:5]([O:6][H:12])[n:7]1[H:13])([H:8])([H:9])[H:10]>>[C:1]([C@@:2]1([H:13])[N:3]=[C:4]([H:11])[C:5]([O:6][H:12])=[N:7]1)([H:8])([H:9])[H:10]"
C        2.10930318      -0.27103329       0.28375524
C        0.70058881       0.03565839      -0.10549150
N        0.10128754      -0.46860363      -1.19789038
C       -1.20649059      -0.39914703      -0.95299474
C       -1.42959216       0.19879707       0.28846376
O       -2.57616276       0.59486371       0.87558421
N       -0.26204748       0.45504920       0.87962744
H        2.71607039      -0.41453389      -0.60885265
H        2.15567169      -1.18884847       0.87250796
H        2.53678289       0.53548458       0.87815358
H       -1.94336980      -0.71940688      -1.67808309
H       -3.31788665       0.36457345       0.31276477
H        0.41584495       1.27714680       0.15245538
13
Frame=3 idx=009671 GeodesicLength=0.1426056524954747 rxn_smarts="[C:1]([c:2]1[n:3][c:4]([H:11])[c:5]([O:6][H:12])[n:7]1[H:13])([H:8])([H:9])[H:10]>>[C:1]([C@@:2]1([H:13])[N:3]=[C:4]([H:11])[C:5]([O:6][H:12])=[N:7]1)([H:8])([H:9])[H:10]"
C        2.10535852      -0.27561185       0.28268458
C        0.70165284       0.05271020      -0.10657168
N        0.10523815      -0.43050347      -1.21278312
C       -1.20219983      -0.38698447      -0.96364943
C       -1.43042875       0.18847145       0.28937918
O       -2.57933306       0.57417299       0.87837503
N       -0.26513825       0.44567669       0.88127712
H        2.69604580      -0.49502009      -0.60535840
H        2.13908753      -1.15561062       0.92725351
H        2.56764773       0.55381549       0.81667710
H       -1.93677929      -0.70368256      -1.69265437
H       -3.31996810       0.33517926       0.31763550
H        0.41881672       1.29738699       0.18773500
13
Frame=4 idx=009671 GeodesicLength=0.19001278410902672 rxn_smarts="[C:1]([c:2]1[n:3][c:4]([H:11])[c:5]([O:6][H:12])[n:7]1[H:13])([H:8])([H:9])[H:10]>>[C:1]([C@@:2]1([H:13])[N:3]=[C:4]([H:11])[C:5]([O:6][H:12])=[N:7]1)([H:8])([H:9])[H:10]"
C        2.10150907      -0.27977929       0.28128047
C        0.70257686       0.06949241      -0.10666548
N        0.10912679      -0.39178124      -1.22660328
C       -1.19769053      -0.37501039      -0.97406653
C       -1.43131608       0.17725027       0.29033623
O       -2.58269832       0.55272927       0.88071448
N       -0.26844311       0.43542986       0.88342546
H        2.67182774      -0.57422417      -0.59850933
H        2.12619445      -1.11811727       0.97947208
H        2.59860281       0.56809014       0.75180377
H       -1.92974751      -0.68948140      -1.70666363
H       -3.32168122       0.30927567       0.31974393
H        0.42173907       1.31612614       0.22573183
13
Frame=5 idx=009671 GeodesicLength=0.23680800920273554 rxn_smarts="[C:1]([c:2]1[n:3][c:4]([H:11])[c:5]([O:6][H:12])[n:7]1[H:13])([H:8])([H:9])[H:10]>>[C:1]([C@@:2]1([H:13])[N:3]=[C:4]([H:11])[C:5]([O:6][H:12])=[N:7]1)([H:8])([H:9])[H:10]"
C        2.09783002      -0.28327575       0.27932451
C        0.70319386       0.08572003      -0.10566488
N        0.11276974      -0.35297287      -1.23885682
C       -1.19290376      -0.36390748      -0.98371204
C       -1.43212956       0.16426793       0.29167006
O       -2.58600789       0.52925301       0.88317699
N       -0.27192918       0.42365340       0.88614286
H        2.64339086      -0.65115501      -0.58832768
H        2.11819407      -1.07607141       1.02867816
H        2.62852330       0.57829116       0.68347511
H       -1.92208736      -0.67647051      -1.71993875
H       -3.32271798       0.28994226       0.31751635
H        0.42387389       1.33272524       0.26651612
13
Frame=6 idx=009671 GeodesicLength=0.2837309583394213 rxn_smarts="[C:1]([c:2]1[n:3][c:4]([H:11])[c:5]([O:6][H:12])[n:7]1[H:13])([H:8])([H:9])[H:10]>>[C:1]([C@@:2]1([H:13])[N:3]=[C:4]([H:11])[C:5]([O:6][H:12])=[N:7]1)([H:8])([H:9])[H:10]"
C        2.09428862      -0.28650810       0.27706525
C        0.70373408       0.10191599      -0.10386762
N        0.11647630      -0.31350860      -1.25014556
C       -1.18784618      -0.35230577      -0.99346394
C       -1.43302267       0.15096278       0.29276403
O       -2.58955929       0.50598197       0.88487545
N       -0.27564801       0.41128292       0.88918803
H        2.61123349      -0.72622452      -0.57451321
H        2.11398679      -1.03037149       1.07486210
H        2.65781801       0.58385115       0.61229287
H       -1.91381719      -0.66546667      -1.73262064
H       -3.32378206       0.27255512       0.31354463
H        0.42613811       1.34783522       0.31001863
13
Frame=7 idx=009671 GeodesicLength=0.3304204449198838 rxn_smarts="[C:1]([c:2]1[n:3][c:4]([H:11])[c:5]([O:6][H:12])[n:7]1[H:13])([H:8])([H:9])[H:10]>>[C:1]([C@@:2]1([H:13])[N:3]=[C:4]([H:11])[C:5]([O:6][H:12])=[N:7]1)([H:8])([H:9])[H:10]"
C        2.09107287      -0.28870089       0.27429151
C        0.70392377       0.11734240      -0.10098912
N        0.11952030      -0.27499762      -1.25971046
C       -1.18279217      -0.34287233      -1.00222065
C       -1.43380616       0.13512579       0.29440489
O       -2.59285001       0.48042566       0.88679089
N       -0.27928635       0.39691593       0.89294949
H        2.57591658      -0.79687250      -0.55785445
H        2.11506151      -0.98112632       1.11689798
H        2.68498799       0.58598343       0.53922433
H       -1.90531135      -0.65598823      -1.74484672
H       -3.32411377       0.26448614       0.30476874
H        0.42767678       1.36027853       0.35629358
13
Frame=8 idx=009671 GeodesicLength=0.37652020888255266 rxn_smarts="[C:1]([c:2]1[n:3][c:4]([H:11])[c:5]([O:6][H:12])[n:7]1[H:13])([H:8])([H:9])[H:10]>>[C:1]([C@@:2]1([H:13])[N:3]=[C:4]([H:11])[C:5]([O:6][H:12])=[N:7]1)([H:8])([H:9])[H:10]"
C        2.08733508      -0.29162540       0.27170963
C        0.70430059       0.13355413      -0.09793889
N        0.12321958      -0.23585323      -1.26833861
C       -1.17697695      -0.33105692      -1.01154218
C       -1.43434136       0.12265271       0.29445102
O       -2.59606781       0.46007409       0.88591240
N       -0.28304737       0.38498220       0.89559676
H        2.53701884      -0.86601690      -0.53687971
H        2.11755877      -0.92992768       1.15566965
H        2.71077792       0.58134104       0.46509697
H       -1.89549775      -0.64659995      -1.75695221
H       -3.32479541       0.24615288       0.30001241
H        0.43051586       1.37232304       0.40320276
13
Frame=9 idx=009671 GeodesicLength=0.4227284824674696 rxn_smarts="[C:1]([c:2]1[n:3][c:4]([H:11])[c:5]([O:6][H:12])[n:7]1[H:13])([H:8])([H:9])[H:10]>>[C:1]([C@@:2]1([H:13])[N:3]=[C:4]([H:11])[C:5]([O:6][H:12])=[N:7]1)([H:8])([H:9])[H:10]"
C        2.08426281      -0.29328170       0.26874054
C        0.70447464       0.14905960      -0.09407447
N        0.12628812      -0.19865371      -1.27534597
C       -1.17135714      -0.32167462      -1.02003184
C       -1.43481377       0.10699906       0.29513687
O       -2.59924950       0.43534066       0.88613346
N       -0.28659992       0.37102584       0.89882207
H        2.49550434      -0.93155174      -0.51198748
H        2.12563048      -0.87415129       1.19096664
H        2.73433779       0.57367302       0.38849745
H       -1.88598339      -0.63631686      -1.76971373
H       -3.32495911       0.23804970       0.29060241
H        0.43246466       1.38148207       0.45225404
13
Frame=10 idx=009671 GeodesicLength=0.4695440047751312 rxn_smarts="[C:1]([c:2]1[n:3][c:4]([H:11])[c:5]([O:6][H:12])[n:7]1[H:13])([H:8])([H:9])[H:10]>>[C:1]([C@@:2]1([H:13])[N:3]=[C:4]([H:11])[C:5]([O:6][H:12])=[N:7]1)([H:8])([H:9])[H:10]"
C        2.08061980      -0.29538874       0.26614488
C        0.70480804       0.16530034      -0.09031207
N        0.12992705      -0.16245207      -1.28155171
C       -1.16504288      -0.31060664      -1.02910302
C       -1.43467448       0.09346332       0.29459798
O       -2.60183188       0.41192191       0.88534357
N       -0.28998551       0.35948887       0.90091671
H        2.45021405      -0.99668407      -0.48084857
H        2.13543587      -0.81459015       1.22378158
H        2.75600561       0.55948070       0.30941142
H       -1.87583387      -0.62184701      -1.78377422
H       -3.32476713       0.22144812       0.28427756
H        0.43512533       1.39046542       0.50111588
13
Frame=11 idx=009671 GeodesicLength=0.5157321843992804 rxn_smarts="[C:1]([c:2]1[n:3][c:4]([H:11])[c:5]([O:6][H:12])[n:7]1[H:13])([H:8])([H:9])[H:10]>>[C:1]([C@@:2]1([H:13])[N:3]=[C:4]([H:11])[C:5]([O:6][H:12])=[N:7]1)([H:8])([H:9])[H:10]"
C        2.07704513      -0.29649457       0.26305595
C        0.70502301       0.18153929      -0.08605746
N        0.13306157      -0.12760536      -1.28618853
C       -1.15868207      -0.30165305      -1.03706351
C       -1.43421986       0.07819291       0.29428900
O       -2.60394089       0.38754361       0.88418606
N       -0.29297816       0.34690288       0.90300921
H        2.40359467      -1.05428975      -0.44775975
H        2.14849180      -0.75467574       1.25001037
H        2.77421823       0.54148572       0.23263040
H       -1.86547050      -0.61084967      -1.79633003
H       -3.32370514       0.21294341       0.27464441
H        0.43756221       1.39696033       0.55157390
13
Frame=12 idx=009671 GeodesicLength=0.5621132530191626 rxn_smarts="[C:1]([c:2]1[n:3][c:4]([H:11])[c:5]([O:6][H:12])[n:7]1[H:13])([H:8])([H:9])[H:10]>>[C:1]([C@@:2]1([H:13])[N:3]=[C:4]([H:11])[C:5]([O:6][H:12])=[N:7]1)([H:8])([H:9])[H:10]"
C        2.07315728      -0.29789986       0.26029828
C        0.70549909       0.19857755      -0.08212193
N        0.13645655      -0.09436031      -1.29031398
C       -1.15203306      -0.29203304      -1.04515609
C       -1.43330875       0.06509664       0.29314133
O       -2.60553666       0.36650573       0.88174865
N       -0.29558526       0.33690527       0.90411815
H        2.35603701      -1.10722234      -0.41142879
H        2.16233158      -0.69560179       1.27163979
H        2.78981680       0.51786219       0.15817630
H       -1.85493017      -0.59914310      -1.80883379
H       -3.32271649       0.19795363       0.26751481
H        0.44081210       1.40335943       0.60121725
13
Frame=13 idx=009671 GeodesicLength=0.6087751940097804 rxn_smarts="[C:1]([c:2]1[n:3][c:4]([H:11])[c:5]([O:6][H:12])[n:7]1[H:13])([H:8])([H:9])[H:10]>>[C:1]([C@@:2]1([H:13])[N:3]=[C:4]([H:11])[C:5]([O:6][H:12])=[N:7]1)([H:8])([H:9])[H:10]"
C        2.06931984      -0.29889298       0.25743267
C        0.70607598       0.21599028      -0.07821280
N        0.13980866      -0.06286048      -1.29373444
C       -1.14519712      -0.28357273      -1.05285255
C       -1.43201307       0.05157964       0.29190295
O       -2.60683084       0.34446860       0.87948813
N       -0.29784962       0.32761966       0.90483510
H        2.30759351      -1.15528804      -0.37202392
H        2.17834676      -0.63586418       1.28867724
H        2.80255238       0.49015185       0.08527969
H       -1.84450154      -0.58696507      -1.82135502
H       -3.32128721       0.18509143       0.25960632
H        0.44398226       1.40854203       0.65095663
13
Frame=14 idx=009671 GeodesicLength=0.6558845185149542 rxn_smarts="[C:1]([c:2]1[n:3][c:4]([H:11])[c:5]([O:6][H:12])[n:7]1[H:13])([H:8])([H:9])[H:10]>>[C:1]([C@@:2]1([H:13])[N:3]=[C:4]([H:11])[C:5]([O:6][H:12])=[N:7]1)([H:8])([H:9])[H:10]"
C        2.06502070      -0.30024076       0.25498743
C        0.70704000       0.23431375      -0.07466827
N        0.14357131      -0.03276599      -1.29685234
C       -1.13811574      -0.27400137      -1.06087577
C       -1.43010911       0.03992748       0.28980871
O       -2.60746335       0.32398849       0.87639516
N       -0.29962469       0.32108969       0.90446901
H        2.25741561      -1.19993263      -0.32819181
H        2.19515524      -0.57544063       1.30199913
H        2.81298019       0.45639378       0.01358315
H       -1.83428644      -0.57172284      -1.83448100
H       -3.31988084       0.16470592       0.25412052
H        0.44829713       1.41368511       0.69970607
13
Frame=15 idx=009671 GeodesicLength=0.7032614492622429 rxn_smarts="[C:1]([c:2]1[n:3][c:4]([H:11])[c:5]([O:6][H:12])[n:7]1[H:13])([H:8])([H:9])[H:10]>>[C:1]([C@@:2]1([H:13])[N:3]=[C:4]([H:11])[C:5]([O:6][H:12])=[N:7]1)([H:8])([H:9])[H:10]"
C        2.06052890      -0.30129746       0.25230946
C        0.70803689       0.25308927      -0.07108221
N        0.14724787      -0.00377686      -1.29940271
C       -1.13073538      -0.26554539      -1.06836406
C       -1.42776561       0.02826892       0.28768283
O       -2.60764409       0.30419656       0.87291900
N       -0.30108463       0.31538276       0.90381754
H        2.20707278      -1.23872803      -0.28293168
H        2.21334833      -0.51650255       1.31023999
H        2.81996637       0.41939732      -0.05501348
H       -1.82381646      -0.55786683      -1.84682524
H       -3.31784294       0.14573573       0.24789242
H        0.45268795       1.41764657       0.74875813
13
Frame=16 idx=009671 GeodesicLength=0.7507165277284057 rxn_smarts="[C:1]([c:2]1[n:3][c:4]([H:11])[c:5]([O:6][H:12])[n:7]1[H:13])([H:8])([H:9])[H:10]>>[C:1]([C@@:2]1([H:13])[N:3]=[C:4]([H:11])[C:5]([O:6][H:12])=[N:7]1)([H:8])([H:9])[H:10]"
C        2.05534123      -0.30255661       0.24991250
C        0.70930911       0.27251260      -0.06788066
N        0.15108326       0.02369596      -1.30165133
C       -1.12321003      -0.25657061      -1.07581539
C       -1.42473506       0.01834108       0.28493124
O       -2.60688708       0.28620469       0.86868563
N       -0.30199700       0.31242708       0.90211454
H        2.15643164      -1.27234810      -0.23590818
H        2.23117244      -0.45958193       1.31432507
H        2.82399834       0.37808838      -0.11977946
H       -1.81355768      -0.54315551      -1.85880022
H       -3.31530639       0.12145442       0.24333641
H        0.45835724       1.42148857       0.79652985
