12
Frame=0 idx=004856 GeodesicLength=0.0 rxn_smarts="[C:1]([C:2]([C:3](=[O:4])[C:5](=[O:6])[H:12])([H:10])[H:11])([H:7])([H:8])[H:9]>>[C:1]([O:4][C:3](=[C:2]([H:10])[H:11])[C:5](=[O:6])[H:12])([H:7])([H:8])[H:9]"
C       -1.90456068      -0.04237008       0.11745994
C        0.32758376      -0.44700931       0.91692235
C        0.59460172       0.06251442      -0.33679441
O       -0.30152832       0.14800581      -1.21577954
C        1.96824181       0.52112449      -0.75386932
O        2.72509791       1.09996471      -0.02548413
H       -1.91402631       1.03583200       0.15303046
H       -2.33881044      -0.49690216      -0.75970221
H       -2.12784357      -0.54195418       1.04809390
H       -0.21513351      -1.38425426       0.91105193
H        0.98234239      -0.26696402       1.76026608
H        2.20403520       0.31201258      -1.81519503
12
Frame=1 idx=004856 GeodesicLength=0.05127232158037241 rxn_smarts="[C:1]([C:2]([C:3](=[O:4])[C:5](=[O:6])[H:12])([H:10])[H:11])([H:7])([H:8])[H:9]>>[C:1]([O:4][C:3](=[C:2]([H:10])[H:11])[C:5](=[O:6])[H:12])([H:7])([H:8])[H:9]"
C       -1.88836635      -0.04250626       0.11989130
C        0.31466763      -0.44655496       0.90976135
C        0.59367075       0.06301043      -0.34311079
O       -0.30551735       0.17637474      -1.21709092
C        1.97159396       0.51495143      -0.75204062
O        2.74628076       1.04728510      -0.00728664
H       -1.94275702       1.03545881       0.12428280
H       -2.31673368      -0.54337037      -0.73552579
H       -2.12489261      -0.50464299       1.06748620
H       -0.20300540      -1.39791539       0.90340610
H        0.96364118      -0.25512288       1.75525979
H        2.19141812       0.35303233      -1.82503277
12
Frame=2 idx=004856 GeodesicLength=0.10237726386432729 rxn_smarts="[C:1]([C:2]([C:3](=[O:4])[C:5](=[O:6])[H:12])([H:10])[H:11])([H:7])([H:8])[H:9]>>[C:1]([O:4][C:3](=[C:2]([H:10])[H:11])[C:5](=[O:6])[H:12])([H:7])([H:8])[H:9]"
C       -1.87257273      -0.04221453       0.12217897
C        0.30213458      -0.44596622       0.90296211
C        0.59265931       0.06269372      -0.34955790
O       -0.30953028       0.20380163      -1.21779909
C        1.97452936       0.50878632      -0.75064978
O        2.76678621       0.99202396       0.00888901
H       -1.97200856       1.03276198       0.09555530
H       -2.29350806      -0.58725144      -0.71061296
H       -2.12202767      -0.46812795       1.08440289
H       -0.19101266      -1.41036546       0.89762085
H        0.94563808      -0.24258500       1.75012151
H        2.17891243       0.39644298      -1.83311091
12
Frame=3 idx=004856 GeodesicLength=0.15350877807804764 rxn_smarts="[C:1]([C:2]([C:3](=[O:4])[C:5](=[O:6])[H:12])([H:10])[H:11])([H:7])([H:8])[H:9]>>[C:1]([O:4][C:3](=[C:2]([H:10])[H:11])[C:5](=[O:6])[H:12])([H:7])([H:8])[H:9]"
C       -1.85693134      -0.04121154       0.12427865
C        0.29002638      -0.44563311       0.89635615
C        0.59169409       0.06062077      -0.35643852
O       -0.31343689       0.22941996      -1.21813483
C        1.97684658       0.50271340      -0.74952302
O        2.78580487       0.93461868       0.02309807
H       -2.00105931       1.02802014       0.06627705
H       -2.26929413      -0.62871081      -0.68459155
H       -2.11903458      -0.43144679       1.09924357
H       -0.17943262      -1.42186804       0.89383330
H        0.92841382      -0.22981017       1.74454122
H        2.16640313       0.44328750      -1.83894008
12
Frame=4 idx=004856 GeodesicLength=0.20451841711496646 rxn_smarts="[C:1]([C:2]([C:3](=[O:4])[C:5](=[O:6])[H:12])([H:10])[H:11])([H:7])([H:8])[H:9]>>[C:1]([O:4][C:3](=[C:2]([H:10])[H:11])[C:5](=[O:6])[H:12])([H:7])([H:8])[H:9]"
C       -1.84160365      -0.03994465       0.12612308
C        0.27825236      -0.44488910       0.89013920
C        0.59056503       0.05786859      -0.36346676
O       -0.31728253       0.25409100      -1.21798119
C        1.97875803       0.49665869      -0.74873888
O        2.80437008       0.87385372       0.03478663
H       -2.03036003       1.02077181       0.03702210
H       -2.24450652      -0.66743766      -0.65817310
H       -2.11604916      -0.39592989       1.11181889
H       -0.16778566      -1.43211059       0.89200278
H        0.91179965      -0.21582987       1.73875030
H        2.15384241       0.49289797      -1.84228304
12
Frame=5 idx=004856 GeodesicLength=0.25578207577279277 rxn_smarts="[C:1]([C:2]([C:3](=[O:4])[C:5](=[O:6])[H:12])([H:10])[H:11])([H:7])([H:8])[H:9]>>[C:1]([O:4][C:3](=[C:2]([H:10])[H:11])[C:5](=[O:6])[H:12])([H:7])([H:8])[H:9]"
C       -1.82615672      -0.03784907       0.12781797
C        0.26693790      -0.44456463       0.88375288
C        0.58935642       0.05333340      -0.37111075
O       -0.32100555       0.27689349      -1.21758470
C        1.97958090       0.49154138      -0.74790308
O        2.82014072       0.81288278       0.04416796
H       -2.05865750       1.01170942       0.00774425
H       -2.21927301      -0.70321227      -0.63075552
H       -2.11252791      -0.36039392       1.12248033
H       -0.15650090      -1.44167906       0.89159535
H        0.89620714      -0.20217944       1.73187989
H        2.14189851       0.54351791      -1.84208458
12
Frame=6 idx=004856 GeodesicLength=0.30623261952613534 rxn_smarts="[C:1]([C:2]([C:3](=[O:4])[C:5](=[O:6])[H:12])([H:10])[H:11])([H:7])([H:8])[H:9]>>[C:1]([O:4][C:3](=[C:2]([H:10])[H:11])[C:5](=[O:6])[H:12])([H:7])([H:8])[H:9]"
C       -1.81124394      -0.03518175       0.12937563
C        0.25608042      -0.44453032       0.87753152
C        0.58824218       0.04722042      -0.37943181
O       -0.32461636       0.29787724      -1.21740882
C        1.98028844       0.48714418      -0.74717572
O        2.83469060       0.75144655       0.05114016
H       -2.08652947       1.00065376      -0.02140687
H       -2.19475541      -0.73624789      -0.60281075
H       -2.10922850      -0.32513353       1.13173997
H       -0.14571705      -1.45059207       0.89281276
H        0.88179264      -0.18853126       1.72463599
H        2.13099646       0.59587467      -1.83900206
12
Frame=7 idx=004856 GeodesicLength=0.3566333228867799 rxn_smarts="[C:1]([C:2]([C:3](=[O:4])[C:5](=[O:6])[H:12])([H:10])[H:11])([H:7])([H:8])[H:9]>>[C:1]([O:4][C:3](=[C:2]([H:10])[H:11])[C:5](=[O:6])[H:12])([H:7])([H:8])[H:9]"
C       -1.79663706      -0.03244369       0.13026660
C        0.24548547      -0.44370813       0.87194293
C        0.58712824       0.03960981      -0.38818314
O       -0.32788606       0.31710729      -1.21729684
C        1.98114588       0.48121865      -0.74683870
O        2.84969386       0.68354703       0.05445896
H       -2.11439741       0.98688321      -0.05161483
H       -2.17015370      -0.76761911      -0.57434885
H       -2.10603164      -0.29012992       1.13917294
H       -0.13491794      -1.45791799       0.89714240
H        0.86784402      -0.17263436       1.71721426
H        2.11872633       0.65608723      -1.83191573
12
Frame=8 idx=004856 GeodesicLength=0.40788332457640253 rxn_smarts="[C:1]([C:2]([C:3](=[O:4])[C:5](=[O:6])[H:12])([H:10])[H:11])([H:7])([H:8])[H:9]>>[C:1]([O:4][C:3](=[C:2]([H:10])[H:11])[C:5](=[O:6])[H:12])([H:7])([H:8])[H:9]"
C       -1.78147704      -0.02869698       0.13123104
C        0.23532970      -0.44381605       0.86543723
C        0.58561904       0.03076567      -0.39755980
O       -0.33103502       0.33473807      -1.21695044
C        1.98021362       0.47776003      -0.74562281
O        2.85985736       0.62036449       0.05585719
H       -2.13994795       0.97185656      -0.08072111
H       -2.14571534      -0.79564332      -0.54500249
H       -2.10146811      -0.25499195       1.14508503
H       -0.12465086      -1.46518693       0.90100464
H        0.85516557      -0.15859788       1.70784984
H        2.10810903       0.71144828      -1.82060832
12
Frame=9 idx=004856 GeodesicLength=0.4574578633701067 rxn_smarts="[C:1]([C:2]([C:3](=[O:4])[C:5](=[O:6])[H:12])([H:10])[H:11])([H:7])([H:8])[H:9]>>[C:1]([O:4][C:3](=[C:2]([H:10])[H:11])[C:5](=[O:6])[H:12])([H:7])([H:8])[H:9]"
C       -1.76747009      -0.02462315       0.13191880
C        0.22565880      -0.44399018       0.85932123
C        0.58423558       0.02132321      -0.40757488
O       -0.33423829       0.35145748      -1.21728349
C        1.97993392       0.47475740      -0.74451817
O        2.86981863       0.55715707       0.05453334
H       -2.16597305       0.95482248      -0.10946193
H       -2.12278207      -0.82135614      -0.51558947
H       -2.09769992      -0.22046544       1.15015237
H       -0.11446921      -1.47179177       0.90631724
H        0.84393596      -0.14475107       1.69858915
H        2.09904972       0.76746010      -1.80640418
12
Frame=10 idx=004856 GeodesicLength=0.5086653493637359 rxn_smarts="[C:1]([C:2]([C:3](=[O:4])[C:5](=[O:6])[H:12])([H:10])[H:11])([H:7])([H:8])[H:9]>>[C:1]([O:4][C:3](=[C:2]([H:10])[H:11])[C:5](=[O:6])[H:12])([H:7])([H:8])[H:9]"
C       -1.75274431      -0.02037080       0.13184108
C        0.21607118      -0.44332990       0.85308032
C        0.58241040       0.01064094      -0.41785335
O       -0.33685822       0.36598945      -1.21743713
C        1.97877391       0.47006221      -0.74334942
O        2.87779541       0.48991348       0.04886061
H       -2.19005606       0.93534379      -0.13875772
H       -2.09932260      -0.84564059      -0.48534822
H       -2.09266663      -0.18539795       1.15308636
H       -0.10454164      -1.47677032       0.91346745
H        0.83322195      -0.12923467       1.68773973
H        2.08791662       0.82879436      -1.78532972
12
Frame=11 idx=004856 GeodesicLength=0.5588275044036303 rxn_smarts="[C:1]([C:2]([C:3](=[O:4])[C:5](=[O:6])[H:12])([H:10])[H:11])([H:7])([H:8])[H:9]>>[C:1]([O:4][C:3](=[C:2]([H:10])[H:11])[C:5](=[O:6])[H:12])([H:7])([H:8])[H:9]"
C       -1.73863468      -0.01532373       0.13189627
C        0.20696564      -0.44382546       0.84641148
C        0.58039678       0.00032555      -0.42846975
O       -0.33959791       0.38131690      -1.21750684
C        1.97783307       0.46540019      -0.74222934
O        2.88250922       0.43175407       0.04295003
H       -2.21352591       0.91498951      -0.16587299
H       -2.07714793      -0.86658017      -0.45535799
H       -2.08755367      -0.15139017       1.15538335
H       -0.09482544      -1.48220143       0.91952126
H        0.82389404      -0.11649000       1.67639414
H        2.07968678       0.88202474      -1.76311963
12
Frame=12 idx=004856 GeodesicLength=0.6090605398437602 rxn_smarts="[C:1]([C:2]([C:3](=[O:4])[C:5](=[O:6])[H:12])([H:10])[H:11])([H:7])([H:8])[H:9]>>[C:1]([O:4][C:3](=[C:2]([H:10])[H:11])[C:5](=[O:6])[H:12])([H:7])([H:8])[H:9]"
C       -1.72467254      -0.00986640       0.13175129
C        0.19812334      -0.44472906       0.83940614
C        0.57804456      -0.00968302      -0.43921782
O       -0.34220662       0.39690510      -1.21721889
C        1.97678478       0.46001700      -0.74130957
O        2.88481476       0.37882634       0.03632185
H       -2.23580225       0.89338005      -0.19122583
H       -2.05566496      -0.88500981      -0.42567600
H       -2.08193109      -0.11815375       1.15662833
H       -0.08530931      -1.48741379       0.92506208
H        0.81534982      -0.10492672       1.66438728
H        2.07246952       0.93065406      -1.73890887
12
Frame=13 idx=004856 GeodesicLength=0.659129242778577 rxn_smarts="[C:1]([C:2]([C:3](=[O:4])[C:5](=[O:6])[H:12])([H:10])[H:11])([H:7])([H:8])[H:9]>>[C:1]([O:4][C:3](=[C:2]([H:10])[H:11])[C:5](=[O:6])[H:12])([H:7])([H:8])[H:9]"
C       -1.71114045      -0.00429455       0.13119109
C        0.18951994      -0.44532251       0.83241051
C        0.57541842      -0.01954305      -0.45020794
O       -0.34476723       0.41224737      -1.21698404
C        1.97586906       0.45342796      -0.74104543
O        2.88609231       0.32646031       0.02780944
H       -2.25748666       0.87000782      -0.21583562
H       -2.03475469      -0.90188670      -0.39598829
H       -2.07623389      -0.08535878       1.15683796
H       -0.07569884      -1.49175494       0.93119008
H        0.80757203      -0.09309652       1.65187306
H        2.06561000       0.97911359      -1.71125082
12
Frame=14 idx=004856 GeodesicLength=0.7091173446990846 rxn_smarts="[C:1]([C:2]([C:3](=[O:4])[C:5](=[O:6])[H:12])([H:10])[H:11])([H:7])([H:8])[H:9]>>[C:1]([O:4][C:3](=[C:2]([H:10])[H:11])[C:5](=[O:6])[H:12])([H:7])([H:8])[H:9]"
C       -1.69794016       0.00136263       0.13021854
C        0.18114348      -0.44583080       0.82533578
C        0.57250318      -0.02929671      -0.46148627
O       -0.34724462       0.42722589      -1.21689722
C        1.97493551       0.44602108      -0.74144541
O        2.88616638       0.27561902       0.01781173
H       -2.27823231       0.84513489      -0.23948518
H       -2.01455308      -0.91715776      -0.36629721
H       -2.07031139      -0.05283128       1.15610105
H       -0.06605992      -1.49542420       0.93768831
H        0.80046005      -0.08135618       1.63882700
H        2.05913286       1.02653342      -1.68037113
12
Frame=15 idx=004856 GeodesicLength=0.7593704369264442 rxn_smarts="[C:1]([C:2]([C:3](=[O:4])[C:5](=[O:6])[H:12])([H:10])[H:11])([H:7])([H:8])[H:9]>>[C:1]([O:4][C:3](=[C:2]([H:10])[H:11])[C:5](=[O:6])[H:12])([H:7])([H:8])[H:9]"
C       -1.68506477       0.00694890       0.12875748
C        0.17298012      -0.44570248       0.81820212
C        0.56918032      -0.03892411      -0.47310787
O       -0.34972448       0.44215406      -1.21681714
C        1.97403132       0.43681111      -0.74315006
O        2.88513551       0.22430071       0.00564225
H       -2.29826633       0.81833821      -0.26258245
H       -1.99466280      -0.93133195      -0.33644000
H       -2.06424229      -0.02057143       1.15423209
H       -0.05616594      -1.49792092       0.94498955
H        0.79409152      -0.06871329       1.62491970
H        2.05270782       1.07461119      -1.64464566
12
Frame=16 idx=004856 GeodesicLength=0.8101059149035231 rxn_smarts="[C:1]([C:2]([C:3](=[O:4])[C:5](=[O:6])[H:12])([H:10])[H:11])([H:7])([H:8])[H:9]>>[C:1]([O:4][C:3](=[C:2]([H:10])[H:11])[C:5](=[O:6])[H:12])([H:7])([H:8])[H:9]"
C       -1.67222435       0.01267161       0.12716680
C        0.16494492      -0.44612763       0.81059228
C        0.56544971      -0.04743352      -0.48453478
O       -0.35213938       0.45807616      -1.21589960
C        1.97248635       0.42860214      -0.74452626
O        2.88188119       0.17950584      -0.00523045
H       -2.31652016       0.79118974      -0.28288618
H       -1.97524226      -0.94336760      -0.30758467
H       -2.05759358       0.01037146       1.15157736
H       -0.04622856      -1.50052468       0.95057461
H        0.78775450      -0.05758010       1.61073163
H        2.04743159       1.11461658      -1.60998074
