10
Frame=0 idx=005476 GeodesicLength=0.0 rxn_smarts="[C:1]([c:2]1[n:3][o:4][c:5]([H:10])[n:6]1)([H:7])([H:8])[H:9]>>[C:1]1([H:7])([H:8])[C@:2]2([H:9])[N:3]1[O:4][C:5]([H:10])=[N:6]2"
C       -1.57854737      -0.43201262       0.19179736
C       -0.30281476       0.32347513       0.01426635
N        0.24235534       0.03059666      -1.21787161
O        1.52822046      -0.36435065      -0.91765632
C        1.73796238       0.00669622       0.37068661
N        0.73252021       0.43845611       1.00295463
H       -1.73915151      -1.26158178      -0.48684109
H       -2.45833181       0.11997527       0.50601900
H       -0.91206743       1.24840917      -0.19635298
H        2.74985449      -0.10966350       0.73299806
10
Frame=1 idx=005476 GeodesicLength=0.08220735133974431 rxn_smarts="[C:1]([c:2]1[n:3][o:4][c:5]([H:10])[n:6]1)([H:7])([H:8])[H:9]>>[C:1]1([H:7])([H:8])[C@:2]2([H:9])[N:3]1[O:4][C:5]([H:10])=[N:6]2"
C       -1.56611915      -0.41461941       0.17033205
C       -0.29600657       0.34727114       0.01825063
N        0.23397372       0.02682925      -1.21320323
O        1.52007601      -0.37564313      -0.91444006
C        1.73789532       0.00010651       0.36981826
N        0.73826394       0.44398853       1.00460859
H       -1.71372052      -1.27097571      -0.47670388
H       -2.45717381       0.10809787       0.50071019
H       -0.94642294       1.26139589      -0.18968879
H        2.74923400      -0.12645093       0.73031624
10
Frame=2 idx=005476 GeodesicLength=0.16444117780166084 rxn_smarts="[C:1]([c:2]1[n:3][o:4][c:5]([H:10])[n:6]1)([H:7])([H:8])[H:9]>>[C:1]1([H:7])([H:8])[C@:2]2([H:9])[N:3]1[O:4][C:5]([H:10])=[N:6]2"
C       -1.55346585      -0.39695004       0.14811476
C       -0.28927377       0.37150755       0.02058422
N        0.22618090       0.02371694      -1.20932485
O        1.51217044      -0.38671410      -0.91128826
C        1.73711208      -0.00713452       0.36922954
N        0.74310939       0.44950495       1.00554664
H       -1.68807747      -1.27950799      -0.46530068
H       -2.45443354       0.09522059       0.49700472
H       -0.98092873       1.27393651      -0.18313929
H        2.74760655      -0.14357987       0.72857320
10
Frame=3 idx=005476 GeodesicLength=0.2466703509353621 rxn_smarts="[C:1]([c:2]1[n:3][o:4][c:5]([H:10])[n:6]1)([H:7])([H:8])[H:9]>>[C:1]1([H:7])([H:8])[C@:2]2([H:9])[N:3]1[O:4][C:5]([H:10])=[N:6]2"
C       -1.54083024      -0.37897412       0.12504340
C       -0.28258699       0.39585282       0.02142618
N        0.21903159       0.02108647      -1.20613880
O        1.50444168      -0.39798622      -0.90804502
C        1.73547961      -0.01564669       0.36916345
N        0.74701356       0.45453430       1.00596923
H       -1.66262389      -1.28676534      -0.45299666
H       -2.45005267       0.08154039       0.49473960
H       -1.01527689       1.28593136      -0.17642893
H        2.74540424      -0.15957298       0.72726757
10
Frame=4 idx=005476 GeodesicLength=0.32890697149459946 rxn_smarts="[C:1]([c:2]1[n:3][o:4][c:5]([H:10])[n:6]1)([H:7])([H:8])[H:9]>>[C:1]1([H:7])([H:8])[C@:2]2([H:9])[N:3]1[O:4][C:5]([H:10])=[N:6]2"
C       -1.52828763      -0.36076599       0.10121950
C       -0.27592303       0.42011156       0.02088834
N        0.21251466       0.01882364      -1.20360319
O        1.49686143      -0.40954952      -0.90466392
C        1.73295418      -0.02546466       0.36966845
N        0.75000183       0.45907481       1.00589652
H       -1.63756439      -1.29247436      -0.43999934
H       -2.44390858       0.06710618       0.49375074
H       -1.04940094       1.29726103      -0.16943187
H        2.74275247      -0.17412269       0.72627478
10
Frame=5 idx=005476 GeodesicLength=0.411152921997956 rxn_smarts="[C:1]([c:2]1[n:3][o:4][c:5]([H:10])[n:6]1)([H:7])([H:8])[H:9]>>[C:1]1([H:7])([H:8])[C@:2]2([H:9])[N:3]1[O:4][C:5]([H:10])=[N:6]2"
C       -1.51579313      -0.34241774       0.07680343
C       -0.26935797       0.44438532       0.01891656
N        0.20650223       0.01705102      -1.20184745
O        1.48942501      -0.42093476      -0.90133580
C        1.72957926      -0.03583284       0.37049833
N        0.75216925       0.46394702       1.00508234
H       -1.61248692      -1.29660160      -0.42591433
H       -2.43554723       0.05149262       0.49393171
H       -1.08356816       1.30784122      -0.16223772
H        2.73907766      -0.18893027       0.72610292
10
Frame=6 idx=005476 GeodesicLength=0.4934272934026205 rxn_smarts="[C:1]([c:2]1[n:3][o:4][c:5]([H:10])[n:6]1)([H:7])([H:8])[H:9]>>[C:1]1([H:7])([H:8])[C@:2]2([H:9])[N:3]1[O:4][C:5]([H:10])=[N:6]2"
C       -1.50339486      -0.32410289       0.05221289
C       -0.26280760       0.46833805       0.01580885
N        0.20097326       0.01545172      -1.20063870
O        1.48206070      -0.43256919      -0.89786426
C        1.72538995      -0.04705991       0.37179791
N        0.75365010       0.46881870       1.00368711
H       -1.58799191      -1.29881035      -0.41154043
H       -2.42518566       0.03519233       0.49482038
H       -1.11761119       1.31743423      -0.15454411
H        2.73491722      -0.20269268       0.72626038
10
Frame=7 idx=005476 GeodesicLength=0.5757365601962956 rxn_smarts="[C:1]([c:2]1[n:3][o:4][c:5]([H:10])[n:6]1)([H:7])([H:8])[H:9]>>[C:1]1([H:7])([H:8])[C@:2]2([H:9])[N:3]1[O:4][C:5]([H:10])=[N:6]2"
C       -1.49101269      -0.30601101       0.02787413
C       -0.25626815       0.49191937       0.01169384
N        0.19581332       0.01394525      -1.19991390
O        1.47474499      -0.44435100      -0.89428122
C        1.72053993      -0.05868263       0.37340863
N        0.75463035       0.47410466       1.00164056
H       -1.56410497      -1.29908203      -0.39711414
H       -2.41287640       0.01831585       0.49608655
H       -1.15164694       1.32583838      -0.14625808
H        2.73018056      -0.21599684       0.72686364
10
Frame=8 idx=005476 GeodesicLength=0.6581094824894076 rxn_smarts="[C:1]([c:2]1[n:3][o:4][c:5]([H:10])[n:6]1)([H:7])([H:8])[H:9]>>[C:1]1([H:7])([H:8])[C@:2]2([H:9])[N:3]1[O:4][C:5]([H:10])=[N:6]2"
C       -1.47858334      -0.28828231       0.00416270
C       -0.24968894       0.51504895       0.00670864
N        0.19096118       0.01239166      -1.19956748
O        1.46746586      -0.45627344      -0.89055731
C        1.71515640      -0.07037428       0.37523198
N        0.75529687       0.47996508       0.99888999
H       -1.54098010      -1.29748856      -0.38303619
H       -2.39880386       0.00113215       0.49751643
H       -1.18569752       1.33287250      -0.13727350
H        2.72487344      -0.22899176       0.72792473
10
Frame=9 idx=005476 GeodesicLength=0.7404196404726889 rxn_smarts="[C:1]([c:2]1[n:3][o:4][c:5]([H:10])[n:6]1)([H:7])([H:8])[H:9]>>[C:1]1([H:7])([H:8])[C@:2]2([H:9])[N:3]1[O:4][C:5]([H:10])=[N:6]2"
C       -1.46614880      -0.27092421      -0.01861665
C       -0.24314499       0.53768673       0.00101618
N        0.18624162       0.01073748      -1.19952759
O        1.46013708      -0.46833686      -0.88671310
C        1.70932454      -0.08199285       0.37722081
N        0.75577290       0.48653457       0.99548231
H       -1.51856149      -1.29423061      -0.36953679
H       -2.38301215      -0.01616546       0.49879011
H       -1.21967479       1.33847218      -0.12753998
H        2.71906608      -0.24178096       0.72942470
10
Frame=10 idx=005476 GeodesicLength=0.822826382858014 rxn_smarts="[C:1]([c:2]1[n:3][o:4][c:5]([H:10])[n:6]1)([H:7])([H:8])[H:9]>>[C:1]1([H:7])([H:8])[C@:2]2([H:9])[N:3]1[O:4][C:5]([H:10])=[N:6]2"
C       -1.45359510      -0.25402578      -0.04039120
C       -0.23650374       0.55985010      -0.00540257
N        0.18175546       0.00890933      -1.19974028
O        1.45282836      -0.48052520      -0.88269189
C        1.70323684      -0.09314195       0.37923606
N        0.75622721       0.49399276       0.99137955
H       -1.49702527      -1.28940775      -0.35688961
H       -2.36597084      -0.03345465       0.50008561
H       -1.25367506       1.34249504      -0.11703003
H        2.71272214      -0.25469190       0.73144437
10
Frame=11 idx=005476 GeodesicLength=0.9052776369707991 rxn_smarts="[C:1]([c:2]1[n:3][o:4][c:5]([H:10])[n:6]1)([H:7])([H:8])[H:9]>>[C:1]1([H:7])([H:8])[C@:2]2([H:9])[N:3]1[O:4][C:5]([H:10])=[N:6]2"
C       -1.44098393      -0.23755219      -0.06111863
C       -0.22979438       0.58154061      -0.01249248
N        0.17742478       0.00688607      -1.20017324
O        1.44550759      -0.49282473      -0.87849942
C        1.69694055      -0.10377188       0.38126924
N        0.75671712       0.50233453       0.98660673
H       -1.47632671      -1.28319988      -0.34515753
H       -2.34774889      -0.05059348       0.50129208
H       -1.28762752       1.34491822      -0.10570057
H        2.70589139      -0.26773728       0.73397383
10
Frame=12 idx=005476 GeodesicLength=0.9877299549943699 rxn_smarts="[C:1]([c:2]1[n:3][o:4][c:5]([H:10])[n:6]1)([H:7])([H:8])[H:9]>>[C:1]1([H:7])([H:8])[C@:2]2([H:9])[N:3]1[O:4][C:5]([H:10])=[N:6]2"
C       -1.42836459      -0.22145481      -0.08081982
C       -0.22300561       0.60275530      -0.02021289
N        0.17322987       0.00464789      -1.20078598
O        1.43814958      -0.50526513      -0.87410519
C        1.69047107      -0.11388237       0.38332390
N        0.75729379       0.51150744       0.98121760
H       -1.45647203      -1.27576356      -0.33444231
H       -2.32849904      -0.06746014       0.50240451
H       -1.32144074       1.34572987      -0.09353630
H        2.69863770      -0.28081448       0.73695647
10
Frame=13 idx=005476 GeodesicLength=1.0702214114477426 rxn_smarts="[C:1]([c:2]1[n:3][o:4][c:5]([H:10])[n:6]1)([H:7])([H:8])[H:9]>>[C:1]1([H:7])([H:8])[C@:2]2([H:9])[N:3]1[O:4][C:5]([H:10])=[N:6]2"
C       -1.41579214      -0.20565574      -0.09954278
C       -0.21611770       0.62348442      -0.02850455
N        0.16914436       0.00218589      -1.20154109
O        1.43072513      -0.51787876      -0.86948017
C        1.68381134      -0.12358579       0.38545002
N        0.75798401       0.52138195       0.97523799
H       -1.43748991      -1.26722983      -0.32483245
H       -2.30827291      -0.08395027       0.50344087
H       -1.35503425       1.34494581      -0.08055776
H        2.69104206      -0.29369769       0.74032993
10
Frame=14 idx=005476 GeodesicLength=1.152720598902313 rxn_smarts="[C:1]([c:2]1[n:3][o:4][c:5]([H:10])[n:6]1)([H:7])([H:8])[H:9]>>[C:1]1([H:7])([H:8])[C@:2]2([H:9])[N:3]1[O:4][C:5]([H:10])=[N:6]2"
C       -1.40329736      -0.19010194      -0.11731194
C       -0.20913659       0.64376753      -0.03735010
N        0.16513946      -0.00047271      -1.20242108
O        1.42321962      -0.53060019      -0.86463375
C        1.67701057      -0.13278091       0.38760805
N        0.75883932       0.53197752       0.96870909
H       -1.41928818      -1.25777025      -0.31631311
H       -2.28717916      -0.10002230       0.50443124
H       -1.38838172       1.34256541      -0.06683512
H        2.68307404      -0.30656217       0.74411672
10
Frame=15 idx=005476 GeodesicLength=1.2352407571637936 rxn_smarts="[C:1]([c:2]1[n:3][o:4][c:5]([H:10])[n:6]1)([H:7])([H:8])[H:9]>>[C:1]1([H:7])([H:8])[C@:2]2([H:9])[N:3]1[O:4][C:5]([H:10])=[N:6]2"
C       -1.39091396      -0.17472942      -0.13416768
C       -0.20204766       0.66361809      -0.04670330
N        0.16119466      -0.00330568      -1.20339715
O        1.41561356      -0.54341030      -0.85955696
C        1.67007580      -0.14149776       0.38981123
N        0.75988967       0.54320441       0.96166516
H       -1.40185065      -1.24750438      -0.30890779
H       -2.26528048      -0.11562479       0.50542109
H       -1.42144071       1.33860464      -0.05245567
H        2.67475977      -0.31935481       0.74829108
10
Frame=16 idx=005476 GeodesicLength=1.3178202557610679 rxn_smarts="[C:1]([c:2]1[n:3][o:4][c:5]([H:10])[n:6]1)([H:7])([H:8])[H:9]>>[C:1]1([H:7])([H:8])[C@:2]2([H:9])[N:3]1[O:4][C:5]([H:10])=[N:6]2"
C       -1.37866785      -0.15947209      -0.15015167
C       -0.19483630       0.68305148      -0.05651418
N        0.15729294      -0.00628260      -1.20444282
O        1.40788627      -0.55628993      -0.85424302
C        1.66300213      -0.14979650       0.39208175
N        0.76116022       0.55496670       0.95415022
H       -1.38515982      -1.23653134      -0.30263887
H       -2.24261467      -0.13071927       0.50647598
H       -1.45419734       1.33308704      -0.03753868
H        2.66613442      -0.33201349       0.75282128
