13
Frame=0 idx=001832 GeodesicLength=0.0 rxn_smarts="[C:1]([C@@:2]1([H:10])[C:3]([H:11])([H:12])[N:4]([H:13])[C:5]1=[O:6])([H:7])([H:8])[H:9]>>[C-:1]([O+:6]=[C:5]1[C:2]([H:9])([H:10])[C:3]([H:11])([H:12])[N:4]1[H:13])([H:7])[H:8]"
C        2.39211456       0.64083844       1.23093216
C        0.23055278      -0.51320524      -0.48016717
C       -1.14762140      -1.18820852      -0.28994290
N       -1.71153119       0.15383811      -0.16821104
C       -0.52163310       0.80919219      -0.27855990
O       -0.21684138       1.96858349      -0.21450113
H        2.88702990       0.99735177       0.30485526
H        1.82173008       1.53769596       1.53977992
H        0.97181600      -0.73180785       0.29828669
H        0.67963199      -0.62244087      -1.46550739
H       -1.23614957      -1.79052753       0.61525678
H       -1.51580529      -1.74855692      -1.15032035
H       -2.63329332       0.48724694       0.05809907
13
Frame=1 idx=001832 GeodesicLength=0.12643322696989506 rxn_smarts="[C:1]([C@@:2]1([H:10])[C:3]([H:11])([H:12])[N:4]([H:13])[C:5]1=[O:6])([H:7])([H:8])[H:9]>>[C-:1]([O+:6]=[C:5]1[C:2]([H:9])([H:10])[C:3]([H:11])([H:12])[N:4]1[H:13])([H:7])[H:8]"
C        2.34247229       0.63124402       1.16916712
C        0.24063108      -0.51593745      -0.46808507
C       -1.14341763      -1.18319192      -0.28554473
N       -1.70132957       0.16220641      -0.17078534
C       -0.50833373       0.80950659      -0.28146333
O       -0.18840216       1.96457571      -0.19831612
H        2.85170063       1.04438985       0.27645823
H        1.79863057       1.50691792       1.56929718
H        0.99080136      -0.76584369       0.31627575
H        0.69047897      -0.63032528      -1.45278216
H       -1.24230457      -1.78258166       0.62058092
H       -1.50946288      -1.74345836      -1.14690916
H       -2.62146434       0.50249786       0.05210671
13
Frame=2 idx=001832 GeodesicLength=0.2530541435575734 rxn_smarts="[C:1]([C@@:2]1([H:10])[C:3]([H:11])([H:12])[N:4]([H:13])[C:5]1=[O:6])([H:7])([H:8])[H:9]>>[C-:1]([O+:6]=[C:5]1[C:2]([H:9])([H:10])[C:3]([H:11])([H:12])[N:4]1[H:13])([H:7])[H:8]"
C        2.29271927       0.62409926       1.11194549
C        0.25037371      -0.51687094      -0.45819183
C       -1.13825555      -1.17781852      -0.28011043
N       -1.69159164       0.17034568      -0.17344917
C       -0.49653423       0.81096697      -0.28716668
O       -0.16264628       1.96140144      -0.18319420
H        2.81684560       1.08475268       0.25326397
H        1.77621851       1.47250029       1.59546465
H        1.01130665      -0.79653221       0.33059089
H        0.69977026      -0.63677282      -1.44271884
H       -1.24516247      -1.77292120       0.62796914
H       -1.50283246      -1.73978061      -1.14101505
H       -2.61021136       0.51662998       0.04661206
13
Frame=3 idx=001832 GeodesicLength=0.3798847738597113 rxn_smarts="[C:1]([C@@:2]1([H:10])[C:3]([H:11])([H:12])[N:4]([H:13])[C:5]1=[O:6])([H:7])([H:8])[H:9]>>[C-:1]([O+:6]=[C:5]1[C:2]([H:9])([H:10])[C:3]([H:11])([H:12])[N:4]1[H:13])([H:7])[H:8]"
C        2.24312163       0.61873726       1.05896999
C        0.25978290      -0.51620784      -0.45023007
C       -1.13230129      -1.17211161      -0.27367754
N       -1.68232776       0.17829465      -0.17628895
C       -0.48608560       0.81343057      -0.29523550
O       -0.13930281       1.95886334      -0.16898218
H        2.78258737       1.11947624       0.23443966
H        1.75421815       1.43473599       1.61863290
H        1.03335626      -0.82408273       0.34166594
H        0.70770979      -0.64189486      -1.43497203
H       -1.24515628      -1.76165923       0.63733940
H       -1.49599099      -1.73738929      -1.13279741
H       -2.59961137       0.52980753       0.04113578
13
Frame=4 idx=001832 GeodesicLength=0.506876917172123 rxn_smarts="[C:1]([C@@:2]1([H:10])[C:3]([H:11])([H:12])[N:4]([H:13])[C:5]1=[O:6])([H:7])([H:8])[H:9]>>[C-:1]([O+:6]=[C:5]1[C:2]([H:9])([H:10])[C:3]([H:11])([H:12])[N:4]1[H:13])([H:7])[H:8]"
C        2.19390381       0.61467953       1.00997178
C        0.26885825      -0.51415301      -0.44396762
C       -1.12572447      -1.16611967      -0.26633546
N       -1.67356778       0.18607661      -0.17936594
C       -0.47685395       0.81676909      -0.30520567
O       -0.11812435       1.95682397      -0.15557352
H        2.74903912       1.14932149       0.21935817
H        1.73248851       1.39405908       1.63898496
H        1.05693489      -0.84869480       0.34991198
H        0.71452009      -0.64578426      -1.42921494
H       -1.24272498      -1.74897659       0.64850309
H       -1.48900825      -1.73615368      -1.12247603
H       -2.58974087       0.54215225       0.03540920
13
Frame=5 idx=001832 GeodesicLength=0.6340035378510944 rxn_smarts="[C:1]([C@@:2]1([H:10])[C:3]([H:11])([H:12])[N:4]([H:13])[C:5]1=[O:6])([H:7])([H:8])[H:9]>>[C-:1]([O+:6]=[C:5]1[C:2]([H:9])([H:10])[C:3]([H:11])([H:12])[N:4]1[H:13])([H:7])[H:8]"
C        2.14530779       0.61157177       0.96470622
C        0.27760504      -0.51089425      -0.43920322
C       -1.11866166      -1.15986963      -0.25818127
N       -1.66532933       0.19371203      -0.18273301
C       -0.46871433       0.82085355      -0.31663738
O       -0.09888577       1.95515450      -0.14288090
H        2.71619738       1.17488126       0.20747607
H        1.71084962       1.35078906       1.65666775
H        1.08208021      -0.87048068       0.35571182
H        0.72036440      -0.64855728      -1.42516147
H       -1.23821293      -1.73497050       0.66126124
H       -1.48196018      -1.73596109      -1.11027057
H       -2.58064024       0.55377128       0.02924470
13
Frame=6 idx=001832 GeodesicLength=0.7612818779099095 rxn_smarts="[C:1]([C@@:2]1([H:10])[C:3]([H:11])([H:12])[N:4]([H:13])[C:5]1=[O:6])([H:7])([H:8])[H:9]>>[C-:1]([O+:6]=[C:5]1[C:2]([H:9])([H:10])[C:3]([H:11])([H:12])[N:4]1[H:13])([H:7])[H:8]"
C        2.09734408       0.60912877       0.92293505
C        0.28598046      -0.50662139      -0.43571387
C       -1.11123419      -1.15338664      -0.24937835
N       -1.65760584       0.20117343      -0.18639887
C       -0.46157458       0.82552076      -0.32904033
O       -0.08140699       1.95368648      -0.13083744
H        2.68410532       1.19645563       0.19834765
H        1.68943046       1.30564609       1.67167133
H        1.10863195      -0.88960569       0.35953174
H        0.72542375      -0.65025003      -1.42250834
H       -1.23198878      -1.71985819       0.67528808
H       -1.47482672      -1.73656486      -1.09652134
H       -2.57227892       0.56467563       0.02262467
13
Frame=7 idx=001832 GeodesicLength=0.8887119620680104 rxn_smarts="[C:1]([C@@:2]1([H:10])[C:3]([H:11])([H:12])[N:4]([H:13])[C:5]1=[O:6])([H:7])([H:8])[H:9]>>[C-:1]([O+:6]=[C:5]1[C:2]([H:9])([H:10])[C:3]([H:11])([H:12])[N:4]1[H:13])([H:7])[H:8]"
C        2.05010700       0.60711285       0.88440195
C        0.29395597      -0.50150869      -0.43331091
C       -1.10354877      -1.14669487      -0.24006150
N       -1.65038895       0.20844578      -0.19038349
C       -0.45533711       0.83063887      -0.34202152
O       -0.06550904       1.95229792      -0.11934342
H        2.65271839       1.21438590       0.19153434
H        1.66828765       1.25911648       1.68407019
H        1.13648378      -0.90617565       0.36179280
H        0.72984183      -0.65093680      -1.42099063
H       -1.22436504      -1.70379559       0.69031066
H       -1.46761438      -1.73778625      -1.08149976
H       -2.56463133       0.57490005       0.01550131
13
Frame=8 idx=001832 GeodesicLength=1.0162170287140748 rxn_smarts="[C:1]([C@@:2]1([H:10])[C:3]([H:11])([H:12])[N:4]([H:13])[C:5]1=[O:6])([H:7])([H:8])[H:9]>>[C-:1]([O+:6]=[C:5]1[C:2]([H:9])([H:10])[C:3]([H:11])([H:12])[N:4]1[H:13])([H:7])[H:8]"
C        2.00371259       0.60534951       0.84884907
C        0.30151672      -0.49573704      -0.43184545
C       -1.09573236      -1.13984724      -0.23036518
N       -1.64369689       0.21551939      -0.19468981
C       -0.44990456       0.83610748      -0.35526617
O       -0.05100290       1.95093443      -0.10830205
H        2.62204771       1.22904547       0.18667104
H        1.64748330       1.21164545       1.69398161
H        1.16554907      -0.92030273       0.36287129
H        0.73378124      -0.65073655      -1.42039939
H       -1.21567173      -1.68696047       0.70606869
H       -1.46037251      -1.73951438      -1.06546779
H       -2.55770968       0.58449669       0.00789416
13
Frame=9 idx=001832 GeodesicLength=1.1439165260766408 rxn_smarts="[C:1]([C@@:2]1([H:10])[C:3]([H:11])([H:12])[N:4]([H:13])[C:5]1=[O:6])([H:7])([H:8])[H:9]>>[C-:1]([O+:6]=[C:5]1[C:2]([H:9])([H:10])[C:3]([H:11])([H:12])[N:4]1[H:13])([H:7])[H:8]"
C        1.95821414       0.60363695       0.81603702
C        0.30865955      -0.48943645      -0.43119746
C       -1.08783726      -1.13283253      -0.22038150
N       -1.63748428       0.22239737      -0.19932008
C       -0.44518140       0.84181809      -0.36857784
O       -0.03772214       1.94950129      -0.09770452
H        2.59194660       1.24075010       0.18344215
H        1.62686973       1.16339355       1.70149730
H        1.19581923      -0.93200774       0.36309051
H        0.73732548      -0.64974967      -1.42054544
H       -1.20607449      -1.66940047       0.72237411
H       -1.45312321      -1.74159389      -1.04859781
H       -2.55141194       0.59352340      -0.00011643
13
Frame=10 idx=001832 GeodesicLength=1.2716768238902791 rxn_smarts="[C:1]([C@@:2]1([H:10])[C:3]([H:11])([H:12])[N:4]([H:13])[C:5]1=[O:6])([H:7])([H:8])[H:9]>>[C-:1]([O+:6]=[C:5]1[C:2]([H:9])([H:10])[C:3]([H:11])([H:12])[N:4]1[H:13])([H:7])[H:8]"
C        1.91362768       0.60189411       0.78574889
C        0.31534649      -0.48278081      -0.43121554
C       -1.07999258      -1.12572931      -0.21029366
N       -1.63176721       0.22904890      -0.20420617
C       -0.44110403       0.84768769      -0.38170163
O       -0.02551683       1.94796145      -0.08745383
H        2.56249181       1.24966647       0.18153250
H        1.60671414       1.11507669       1.70670546
H        1.22710706      -0.94144172       0.36287687
H        0.74064048      -0.64808319      -1.42124327
H       -1.19591113      -1.65141732       0.73888995
H       -1.44590094      -1.74387459      -1.03125942
H       -2.54573493       0.60199163      -0.00838016
13
Frame=11 idx=001832 GeodesicLength=1.399531613631458 rxn_smarts="[C:1]([C@@:2]1([H:10])[C:3]([H:11])([H:12])[N:4]([H:13])[C:5]1=[O:6])([H:7])([H:8])[H:9]>>[C-:1]([O+:6]=[C:5]1[C:2]([H:9])([H:10])[C:3]([H:11])([H:12])[N:4]1[H:13])([H:7])[H:8]"
C        1.86997608       0.59999218       0.75775813
C        0.32156213      -0.47588213      -0.43180232
C       -1.07226218      -1.11855266      -0.20019411
N       -1.62651808       0.23546629      -0.20932287
C       -0.43760218       0.85363637      -0.39450963
O       -0.01425359       1.94624400      -0.07747749
H        2.53360988       1.25603167       0.18069678
H        1.58703716       1.06695204       1.70972905
H        1.25937364      -0.94864777       0.36250774
H        0.74378864      -0.64582898      -1.42235127
H       -1.18534902      -1.63310758       0.75543614
H       -1.43874493      -1.74624386      -1.01362824
H       -2.54061754       0.60994043      -0.01684192
13
Frame=12 idx=001832 GeodesicLength=1.527462538871201 rxn_smarts="[C:1]([C@@:2]1([H:10])[C:3]([H:11])([H:12])[N:4]([H:13])[C:5]1=[O:6])([H:7])([H:8])[H:9]>>[C-:1]([O+:6]=[C:5]1[C:2]([H:9])([H:10])[C:3]([H:11])([H:12])[N:4]1[H:13])([H:7])[H:8]"
C        1.82727783       0.59783006       0.73185158
C        0.32730160      -0.46885253      -0.43288527
C       -1.06471760      -1.11134023      -0.19016639
N       -1.62171728       0.24165296      -0.21462419
C       -0.43460352       0.85961242      -0.40691537
O       -0.00379151       1.94432819      -0.06772785
H        2.50526884       1.26008789       0.18073087
H        1.56782973       1.01926537       1.71071289
H        1.29259239      -0.95368818       0.36221345
H        0.74685016      -0.64309106      -1.42377459
H       -1.17456612      -1.61460119       0.77186017
H       -1.43170924      -1.74863208      -0.99587258
H       -2.53601527       0.61742837      -0.02540272
13
Frame=13 idx=001832 GeodesicLength=1.6554644699768708 rxn_smarts="[C:1]([C@@:2]1([H:10])[C:3]([H:11])([H:12])[N:4]([H:13])[C:5]1=[O:6])([H:7])([H:8])[H:9]>>[C-:1]([O+:6]=[C:5]1[C:2]([H:9])([H:10])[C:3]([H:11])([H:12])[N:4]1[H:13])([H:7])[H:8]"
C        1.78552834       0.59532253       0.70782782
C        0.33254903      -0.46178930      -0.43439099
C       -1.05741760      -1.10411857      -0.18029151
N       -1.61734048       0.24760784      -0.22006096
C       -0.43205506       0.86555848      -0.41885310
O        0.00597940       1.94216268      -0.05815779
H        2.47742802       1.26202117       0.18146132
H        1.54914880       0.97227251       1.70980197
H        1.32673277      -0.95660927       0.36221279
H        0.74986932      -0.63995789      -1.42541919
H       -1.16370261      -1.59601911       0.78801262
H       -1.42484324      -1.75095073      -0.97815712
H       -2.53187668       0.62449966      -0.03398586
13
Frame=14 idx=001832 GeodesicLength=1.7835261169067165 rxn_smarts="[C:1]([C@@:2]1([H:10])[C:3]([H:11])([H:12])[N:4]([H:13])[C:5]1=[O:6])([H:7])([H:8])[H:9]>>[C-:1]([O+:6]=[C:5]1[C:2]([H:9])([H:10])[C:3]([H:11])([H:12])[N:4]1[H:13])([H:7])[H:8]"
C        1.74472472       0.59238711       0.68550292
C        0.33730181      -0.45477915      -0.43627516
C       -1.05041699      -1.09691979      -0.17062492
N       -1.61336141       0.25334148      -0.22558032
C       -0.42989600       0.87143749      -0.43029284
O        0.01518492       1.93972721      -0.04874194
H        2.45005775       1.26202979       0.18276052
H        1.53094947       0.92614529       1.70714354
H        1.36180959      -0.95744639       0.36264799
H        0.75288654      -0.63651802      -1.42723434
H       -1.15287906      -1.57746341       0.80379638
H       -1.41820901      -1.75315630      -0.96060012
H       -2.52815233       0.63121469      -0.04250172
13
Frame=15 idx=001832 GeodesicLength=1.9116421023911474 rxn_smarts="[C:1]([C@@:2]1([H:10])[C:3]([H:11])([H:12])[N:4]([H:13])[C:5]1=[O:6])([H:7])([H:8])[H:9]>>[C-:1]([O+:6]=[C:5]1[C:2]([H:9])([H:10])[C:3]([H:11])([H:12])[N:4]1[H:13])([H:7])[H:8]"
C        1.70485549       0.58895001       0.66470357
C        0.34155197      -0.44789957      -0.43849256
C       -1.04376392      -1.08977047      -0.16122088
N       -1.60975511       0.25886275      -0.23113029
C       -0.42807910       0.87720866      -0.44121493
O        0.02392982       1.93698272      -0.03945796
H        2.42312725       1.26027062       0.18452179
H        1.51322793       0.88106037       1.70288267
H        1.39783934      -0.95621218       0.36365197
H        0.75592162      -0.63285020      -1.42916811
H       -1.14219401      -1.55903255       0.81911580
H       -1.41186700      -1.75519618      -0.94331798
H       -2.52479428       0.63762602      -0.05087310
13
Frame=16 idx=001832 GeodesicLength=2.0398051023507646 rxn_smarts="[C:1]([C@@:2]1([H:10])[C:3]([H:11])([H:12])[N:4]([H:13])[C:5]1=[O:6])([H:7])([H:8])[H:9]>>[C-:1]([O+:6]=[C:5]1[C:2]([H:9])([H:10])[C:3]([H:11])([H:12])[N:4]1[H:13])([H:7])[H:8]"
C        1.66590826       0.58493824       0.64526960
C        0.34529644      -0.44122289      -0.44101275
C       -1.03750180      -1.08269933      -0.15212224
N       -1.60649426       0.26418688      -0.23665722
C       -0.42655577       0.88283868      -0.45161926
O        0.03232305       1.93390052      -0.03030388
H        2.39660976       1.25689303       0.18666822
H        1.49593006       0.83715727       1.69716436
H        1.43485910      -0.95289995       0.36531865
H        0.75898767      -0.62903267      -1.43119007
H       -1.13172881      -1.54081884       0.83389988
H       -1.40588268      -1.75703548      -0.92640718
H       -2.52175103       0.64379454      -0.05900810
