15
Frame=0 idx=011668 GeodesicLength=0.0 rxn_smarts="[O:1]([C:2]([C@@:3]1([H:11])[C:4]([H:12])([H:13])[C@:5]1([C:6]#[C:7][H:15])[H:14])([H:9])[H:10])[H:8]>>[O:1]([C:2]([C@@:3]1([H:11])[C:4]([H:12])([H:13])[C@:5]1([C:7](=[C:6])[H:15])[H:14])([H:9])[H:10])[H:8]"
O       -1.29153336      -0.22323099       1.80009284
C       -1.22750905       0.36964289       0.51246575
C       -0.38284482      -0.40847086      -0.46039420
C        0.29071251       0.29317089      -1.58753610
C        1.15019418      -0.33953435      -0.53317996
C        2.26725362       0.62035972       0.18394866
C        1.58448929       0.29979763       1.17796296
H       -1.74361481      -1.06602238       1.73191332
H       -0.81682546       1.36857961       0.66074706
H       -2.23410421       0.48901152       0.09417480
H       -0.76974124      -1.40019154      -0.67875432
H        0.29599576      -0.15844573      -2.57117392
H        0.26393326       1.37586358      -1.58282753
H        1.61059567      -1.28126014      -0.79478311
H        1.00299865       0.06073021       2.04734375
15
Frame=1 idx=011668 GeodesicLength=0.09590725675449432 rxn_smarts="[O:1]([C:2]([C@@:3]1([H:11])[C:4]([H:12])([H:13])[C@:5]1([C:6]#[C:7][H:15])[H:14])([H:9])[H:10])[H:8]>>[O:1]([C:2]([C@@:3]1([H:11])[C:4]([H:12])([H:13])[C@:5]1([C:7](=[C:6])[H:15])[H:14])([H:9])[H:10])[H:8]"
O       -1.32222713      -0.19852401       1.79355434
C       -1.23247280       0.37859740       0.50260108
C       -0.39270701      -0.40736553      -0.46775988
C        0.28794181       0.28722045      -1.59523153
C        1.13913150      -0.33953095      -0.52939565
C        2.22792884       0.66260253       0.20498482
C        1.59251199       0.25336897       1.19515720
H       -1.67544237      -1.08717328       1.73253481
H       -0.81025120       1.37405807       0.64837334
H       -2.23598215       0.50909472       0.08059331
H       -0.78409606      -1.39701952      -0.68624500
H        0.29857168      -0.17041128      -2.57602585
H        0.25708931       1.36972144      -1.60145002
H        1.60526373      -1.27779187      -0.79470031
H        1.04473986       0.04315286       2.09300934
15
Frame=2 idx=011668 GeodesicLength=0.19172282912917618 rxn_smarts="[O:1]([C:2]([C@@:3]1([H:11])[C:4]([H:12])([H:13])[C@:5]1([C:6]#[C:7][H:15])[H:14])([H:9])[H:10])[H:8]>>[O:1]([C:2]([C@@:3]1([H:11])[C:4]([H:12])([H:13])[C@:5]1([C:7](=[C:6])[H:15])[H:14])([H:9])[H:10])[H:8]"
O       -1.35371975      -0.17751064       1.78458248
C       -1.23878710       0.38626102       0.49184820
C       -0.40324181      -0.40644325      -0.47627796
C        0.28582413       0.28191491      -1.60262660
C        1.12747222      -0.34021836      -0.52530739
C        2.18555592       0.70179386       0.23010903
C        1.59933619       0.20948770       1.21036799
H       -1.60264895      -1.10107789       1.73753576
H       -0.80611663       1.37833771       0.63629546
H       -2.23889290       0.52781240       0.06570020
H       -0.79916959      -1.39378313      -0.69577668
H        0.30256422      -0.18083543      -2.58089299
H        0.25177682       1.36413922      -1.61836322
H        1.59861240      -1.27541993      -0.79401203
H        1.09143482       0.02554181       2.13681774
15
Frame=3 idx=011668 GeodesicLength=0.28734852460534616 rxn_smarts="[O:1]([C:2]([C@@:3]1([H:11])[C:4]([H:12])([H:13])[C@:5]1([C:6]#[C:7][H:15])[H:14])([H:9])[H:10])[H:8]>>[O:1]([C:2]([C@@:3]1([H:11])[C:4]([H:12])([H:13])[C@:5]1([C:7](=[C:6])[H:15])[H:14])([H:9])[H:10])[H:8]"
O       -1.38604945      -0.16064644       1.77321377
C       -1.24645848       0.39264210       0.48030499
C       -0.41425470      -0.40579599      -0.48565643
C        0.28429743       0.27714323      -1.60963776
C        1.11535249      -0.34136466      -0.52078867
C        2.14060049       0.73853138       0.25833758
C        1.60527249       0.16930397       1.22379953
H       -1.52799001      -1.10691895       1.74636561
H       -0.80442727       1.38146726       0.62477344
H       -2.24277812       0.54521096       0.04946560
H       -0.81455643      -1.39073127      -0.70685564
H        0.30791839      -0.18997267      -2.58565400
H        0.24772600       1.35906301      -1.63366883
H        1.59092129      -1.27393258      -0.79238091
H        1.14442588       0.00600064       2.17838171
15
Frame=4 idx=011668 GeodesicLength=0.3827607318602857 rxn_smarts="[O:1]([C:2]([C@@:3]1([H:11])[C:4]([H:12])([H:13])[C@:5]1([C:6]#[C:7][H:15])[H:14])([H:9])[H:10])[H:8]>>[O:1]([C:2]([C@@:3]1([H:11])[C:4]([H:12])([H:13])[C@:5]1([C:7](=[C:6])[H:15])[H:14])([H:9])[H:10])[H:8]"
O       -1.41952355      -0.14818003       1.75962753
C       -1.25546508       0.39795638       0.46815919
C       -0.42559896      -0.40538241      -0.49557513
C        0.28329143       0.27273465      -1.61626680
C        1.10287056      -0.34268317      -0.51569736
C        2.09344189       0.77349304       0.28891412
C        1.61051616       0.13377028       1.23579780
H       -1.45336158      -1.10452861       1.75777737
H       -0.80508888       1.38369325       0.61410579
H       -2.24753739       0.56157689       0.03194009
H       -0.82990665      -1.38802775      -0.71887556
H        0.31444768      -0.19840691      -2.59017081
H        0.24464330       1.35438254      -1.64773021
H        1.58237808      -1.27314250      -0.78937150
H        1.20489299      -0.01725565       2.21736550
15
Frame=5 idx=011668 GeodesicLength=0.47781969158013704 rxn_smarts="[O:1]([C:2]([C@@:3]1([H:11])[C:4]([H:12])([H:13])[C@:5]1([C:6]#[C:7][H:15])[H:14])([H:9])[H:10])[H:8]>>[O:1]([C:2]([C@@:3]1([H:11])[C:4]([H:12])([H:13])[C@:5]1([C:7](=[C:6])[H:15])[H:14])([H:9])[H:10])[H:8]"
O       -1.45455270      -0.14058380       1.74296550
C       -1.26611886       0.40158236       0.45496788
C       -0.43739164      -0.40553363      -0.50618060
C        0.28289911       0.26906728      -1.62178267
C        1.08978936      -0.34506836      -0.50994795
C        2.04501042       0.80463206       0.32121953
C        1.61507277       0.10148450       1.24640058
H       -1.37894142      -1.09364924       1.77309225
H       -0.80828331       1.38407825       0.60423924
H       -2.25346008       0.57633429       0.01276459
H       -0.84566451      -1.38542877      -0.73289327
H        0.32239548      -0.20439382      -2.59412351
H        0.24302385       1.35036908      -1.65883911
H        1.57261349      -1.27362262      -0.78573335
H        1.27360806      -0.03926757       2.25385088
15
Frame=6 idx=011668 GeodesicLength=0.5726854316237034 rxn_smarts="[O:1]([C:2]([C@@:3]1([H:11])[C:4]([H:12])([H:13])[C@:5]1([C:6]#[C:7][H:15])[H:14])([H:9])[H:10])[H:8]>>[O:1]([C:2]([C@@:3]1([H:11])[C:4]([H:12])([H:13])[C@:5]1([C:7](=[C:6])[H:15])[H:14])([H:9])[H:10])[H:8]"
O       -1.49142956      -0.13801987       1.72383768
C       -1.27825583       0.40410882       0.44117518
C       -0.44941857      -0.40605624      -0.51705526
C        0.28301866       0.26574748      -1.62661827
C        1.07633352      -0.34772396      -0.50340893
C        1.99479392       0.83407637       0.35528240
C        1.61936552       0.07315387       1.25632325
H       -1.30686935      -1.07398960       1.79029901
H       -0.81372418       1.38337225       0.59566759
H       -2.26026762       0.59016907      -0.00784535
H       -0.86120353      -1.38331877      -0.74775892
H        0.33146827      -0.20958274      -2.59758777
H        0.24229568       1.34679373      -1.66839172
H        1.56210541      -1.27480176      -0.78070634
H        1.35178765      -0.06392865       2.28678744
15
Frame=7 idx=011668 GeodesicLength=0.6669423205045222 rxn_smarts="[O:1]([C:2]([C@@:3]1([H:11])[C:4]([H:12])([H:13])[C@:5]1([C:6]#[C:7][H:15])[H:14])([H:9])[H:10])[H:8]>>[O:1]([C:2]([C@@:3]1([H:11])[C:4]([H:12])([H:13])[C@:5]1([C:7](=[C:6])[H:15])[H:14])([H:9])[H:10])[H:8]"
O       -1.52965622      -0.14034642       1.70225643
C       -1.29181686       0.40552504       0.42678892
C       -0.46150935      -0.40699600      -0.52797276
C        0.28364926       0.26275080      -1.63051094
C        1.06262457      -0.35057026      -0.49596342
C        1.94250837       0.86192640       0.39134384
C        1.62379823       0.04806264       1.26578535
H       -1.23969956      -1.04522041       1.80891081
H       -0.82145040       1.38153731       0.58826834
H       -2.26799543       0.60276717      -0.02969576
H       -0.87621189      -1.38172669      -0.76323509
H        0.34166999      -0.21397731      -2.60022248
H        0.24236758       1.34357344      -1.67616887
H        1.55117711      -1.27639598      -0.77436290
H        1.44054460      -0.09090974       2.31477852
15
Frame=8 idx=011668 GeodesicLength=0.7603710600392672 rxn_smarts="[O:1]([C:2]([C@@:3]1([H:11])[C:4]([H:12])([H:13])[C@:5]1([C:6]#[C:7][H:15])[H:14])([H:9])[H:10])[H:8]>>[O:1]([C:2]([C@@:3]1([H:11])[C:4]([H:12])([H:13])[C@:5]1([C:7](=[C:6])[H:15])[H:14])([H:9])[H:10])[H:8]"
O       -1.56915443      -0.14735257       1.67828095
C       -1.30693141       0.40592742       0.41178755
C       -0.47360989      -0.40829516      -0.53877829
C        0.28489709       0.26006217      -1.63327989
C        1.04867775      -0.35348288      -0.48733419
C        1.88799102       0.88831862       0.42973404
C        1.62832952       0.02624497       1.27525303
H       -1.17835903      -1.00687685       1.82871524
H       -0.83173017       1.37875797       0.58183182
H       -2.27685133       0.61384730      -0.05276140
H       -0.89050385      -1.38065861      -0.77914685
H        0.35318931      -0.21774543      -2.60176061
H        0.24333723       1.34069992      -1.68209487
H        1.53992190      -1.27829058      -0.76629916
H        1.54079630      -0.12115630       2.33585262
15
Frame=9 idx=011668 GeodesicLength=0.8529428284552439 rxn_smarts="[O:1]([C:2]([C@@:3]1([H:11])[C:4]([H:12])([H:13])[C@:5]1([C:6]#[C:7][H:15])[H:14])([H:9])[H:10])[H:8]>>[O:1]([C:2]([C@@:3]1([H:11])[C:4]([H:12])([H:13])[C@:5]1([C:7](=[C:6])[H:15])[H:14])([H:9])[H:10])[H:8]"
O       -1.61015267      -0.16026083       1.65125467
C       -1.32360580       0.40473285       0.39610357
C       -0.48590116      -0.41027841      -0.54976920
C        0.28706472       0.25809632      -1.63436259
C        1.03422104      -0.35771876      -0.47750466
C        1.83224183       0.91069464       0.47047508
C        1.63266818       0.00560022       1.28505335
H       -1.12395939      -0.95898412       1.85088992
H       -0.84420149       1.37406894       0.57699034
H       -2.28677619       0.62336390      -0.07695021
H       -0.90483085      -1.37983310      -0.79703255
H        0.36629240      -0.21915017      -2.60220857
H        0.24603444       1.33863646      -1.68449438
H        1.52776834      -1.28157540      -0.75738940
H        1.65313660      -0.14739256       2.34894463
15
Frame=10 idx=011668 GeodesicLength=0.9442451418483045 rxn_smarts="[O:1]([C:2]([C@@:3]1([H:11])[C:4]([H:12])([H:13])[C@:5]1([C:6]#[C:7][H:15])[H:14])([H:9])[H:10])[H:8]>>[O:1]([C:2]([C@@:3]1([H:11])[C:4]([H:12])([H:13])[C@:5]1([C:7](=[C:6])[H:15])[H:14])([H:9])[H:10])[H:8]"
O       -1.65145679      -0.17797712       1.62198854
C       -1.34193818       0.40240578       0.37983674
C       -0.49807898      -0.41262621      -0.56049535
C        0.29026333       0.25659095      -1.63374730
C        1.01953129      -0.36223898      -0.46594166
C        1.77420287       0.93092128       0.51453862
C        1.63700526      -0.01270291       1.29591240
H       -1.07753109      -0.90004447       1.87441154
H       -0.85958120       1.36845877       0.57278058
H       -2.29825100       0.63046864      -0.10197219
H       -0.91824404      -1.37944415      -0.81561769
H        0.38132240      -0.21959421      -2.60102834
H        0.25023931       1.33711309      -1.68421892
H        1.51532107      -1.28535209      -0.74627650
H        1.77719576      -0.17597838       2.34982955
15
Frame=11 idx=011668 GeodesicLength=1.034072338563357 rxn_smarts="[O:1]([C:2]([C@@:3]1([H:11])[C:4]([H:12])([H:13])[C@:5]1([C:6]#[C:7][H:15])[H:14])([H:9])[H:10])[H:8]>>[O:1]([C:2]([C@@:3]1([H:11])[C:4]([H:12])([H:13])[C@:5]1([C:7](=[C:6])[H:15])[H:14])([H:9])[H:10])[H:8]"
O       -1.69160564      -0.20106328       1.59073593
C       -1.36147780       0.39856875       0.36329933
C       -0.51027236      -0.41549079      -0.57123901
C        0.29496029       0.25586819      -1.63084470
C        1.00438439      -0.36855007      -0.45265873
C        1.71497574       0.94612203       0.56191289
C        1.64118358      -0.03110742       1.30819241
H       -1.04170970      -0.83164962       1.89909473
H       -0.87705332       1.36126808       0.56962444
H       -2.31111811       0.63505347      -0.12681298
H       -0.93168809      -1.37886176      -0.83650975
H        0.39861233      -0.21748004      -2.59817223
H        0.25705586       1.33649363      -1.67958577
H        1.50189610      -1.29105231      -0.73382930
H        1.91185673      -0.19811884       2.33679275
15
Frame=12 idx=011668 GeodesicLength=1.1220112938664273 rxn_smarts="[O:1]([C:2]([C@@:3]1([H:11])[C:4]([H:12])([H:13])[C@:5]1([C:6]#[C:7][H:15])[H:14])([H:9])[H:10])[H:8]>>[O:1]([C:2]([C@@:3]1([H:11])[C:4]([H:12])([H:13])[C@:5]1([C:7](=[C:6])[H:15])[H:14])([H:9])[H:10])[H:8]"
O       -1.72842035      -0.22746373       1.55907267
C       -1.38210401       0.39363118       0.34659816
C       -0.52201230      -0.41857450      -0.58152559
C        0.30133083       0.25575881      -1.62552603
C        0.98919387      -0.37560521      -0.43719277
C        1.65371648       0.95778255       0.61363451
C        1.64545588      -0.04846824       1.32246700
H       -1.01671558      -0.75315279       1.92392823
H       -0.89725721       1.35369953       0.56586475
H       -2.32597638       0.63564929      -0.15098434
H       -0.94400306      -1.37831150      -0.85825171
H        0.41853312      -0.21394360      -2.59300860
H        0.26642812       1.33656399      -1.67115243
H        1.48825040      -1.29769572      -0.71888157
H        2.05358019      -0.21987006       2.30495772
15
Frame=13 idx=011668 GeodesicLength=1.2083329143622463 rxn_smarts="[O:1]([C:2]([C@@:3]1([H:11])[C:4]([H:12])([H:13])[C@:5]1([C:6]#[C:7][H:15])[H:14])([H:9])[H:10])[H:8]>>[O:1]([C:2]([C@@:3]1([H:11])[C:4]([H:12])([H:13])[C@:5]1([C:7](=[C:6])[H:15])[H:14])([H:9])[H:10])[H:8]"
O       -1.75950075      -0.25619263       1.52854946
C       -1.40286890       0.38774451       0.33039023
C       -0.53334788      -0.42172725      -0.59156907
C        0.30975491       0.25630855      -1.61756980
C        0.97384220      -0.38464740      -0.41976939
C        1.59153996       0.96379634       0.66926736
C        1.65036302      -0.06653733       1.33869830
H       -1.00331920      -0.66880742       1.94711123
H       -0.91875902       1.34587605       0.56154215
H       -2.34240037       0.63251078      -0.17296149
H       -0.95615169      -1.37698678      -0.88178881
H        0.44108640      -0.20829052      -2.58563425
H        0.27938288       1.33741260      -1.65806288
H        1.47364902      -1.30668176      -0.70218000
H        2.19672943      -0.23377773       2.25397697
15
Frame=14 idx=011668 GeodesicLength=1.2938266595365282 rxn_smarts="[O:1]([C:2]([C@@:3]1([H:11])[C:4]([H:12])([H:13])[C@:5]1([C:6]#[C:7][H:15])[H:14])([H:9])[H:10])[H:8]>>[O:1]([C:2]([C@@:3]1([H:11])[C:4]([H:12])([H:13])[C@:5]1([C:7](=[C:6])[H:15])[H:14])([H:9])[H:10])[H:8]"
O       -1.78402705      -0.28590629       1.50011417
C       -1.42358060       0.38109848       0.31471114
C       -0.54387774      -0.42480936      -0.60108583
C        0.32038548       0.25742350      -1.60679294
C        0.95862556      -0.39509424      -0.40016791
C        1.52828054       0.96477060       0.72920434
C        1.65566617      -0.08442728       1.35724859
H       -1.00054595      -0.57855585       1.96848340
H       -0.94161393       1.33839486       0.55572671
H       -2.36049185       0.62494121      -0.19272482
H       -0.96725865      -1.37504762      -0.90617464
H        0.46659997      -0.20105222      -2.57557535
H        0.29594196       1.33887079      -1.64034764
H        1.45867682      -1.31740062      -0.68308496
H        2.33721928      -0.24320599       2.18046573
15
Frame=15 idx=011668 GeodesicLength=1.37965505474241 rxn_smarts="[O:1]([C:2]([C@@:3]1([H:11])[C:4]([H:12])([H:13])[C@:5]1([C:6]#[C:7][H:15])[H:14])([H:9])[H:10])[H:8]>>[O:1]([C:2]([C@@:3]1([H:11])[C:4]([H:12])([H:13])[C@:5]1([C:7](=[C:6])[H:15])[H:14])([H:9])[H:10])[H:8]"
O       -1.80011621      -0.31589743       1.47508695
C       -1.44294586       0.37396691       0.30038493
C       -0.55362949      -0.42761135      -0.61042864
C        0.33312587       0.25895969      -1.59360499
C        0.94352979      -0.40808322      -0.37952202
C        1.46540747       0.95900724       0.79185995
C        1.66331156      -0.10368134       1.37638191
H       -1.00633754      -0.48672212       1.98646382
H       -0.96363099       1.33119986       0.54906529
H       -2.37921140       0.61413124      -0.20859801
H       -0.97835854      -1.37164143      -0.93208918
H        0.49423761      -0.19196461      -2.56348866
H        0.31660163       1.34075561      -1.61790738
H        1.44250328      -1.33119740      -0.66340468
H        2.46551281      -0.24122164       2.08980070
15
Frame=16 idx=011668 GeodesicLength=1.4672653072057134 rxn_smarts="[O:1]([C:2]([C@@:3]1([H:11])[C:4]([H:12])([H:13])[C@:5]1([C:6]#[C:7][H:15])[H:14])([H:9])[H:10])[H:8]>>[O:1]([C:2]([C@@:3]1([H:11])[C:4]([H:12])([H:13])[C@:5]1([C:7](=[C:6])[H:15])[H:14])([H:9])[H:10])[H:8]"
O       -1.80797521      -0.34512403       1.45382253
C       -1.46081735       0.36662074       0.28741328
C       -0.56243084      -0.42999644      -0.61950071
C        0.34793338       0.26072979      -1.57808823
C        0.92864782      -0.42324157      -0.35788750
C        1.40304637       0.94708138       0.85699963
C        1.67305666      -0.12322723       1.39603422
H       -1.01969293      -0.39463533       2.00076288
H       -0.98448595       1.32461272       0.54131319
H       -2.39831836       0.60029563      -0.22079341
H       -0.98903709      -1.36682246      -0.95891284
H        0.52410826      -0.18158899      -2.54923557
H        0.34121438       1.34278764      -1.59098417
H        1.42541124      -1.34770838      -0.64283484
H        2.57933963      -0.22978347       1.98189154
