12
Frame=0 idx=011849 GeodesicLength=0.0 rxn_smarts="[C:1]([N:2]([C:3]([C:4]#[N:5])([C:6]#[N:7])[H:12])[H:11])([H:8])([H:9])[H:10]>>[C:1]([N+:7]#[C-:6])([H:8])([H:9])[H:10].[N:2](=[C:3](\[C:4]#[N:5])[H:12])\[H:11]"
C       -1.69454574       0.61689732       0.31919106
N       -0.10907404      -0.35875312      -0.77188032
C        1.08696359      -0.54500046      -0.41971998
C        2.04282314      -1.23027018      -1.25354569
N        2.80075571      -1.77580486      -1.92009479
C        0.58624355       1.22043213       2.58567870
N        0.00246986       0.87896640       1.63095366
H       -2.03466870       0.36732491       1.30900378
H       -2.17185302       0.05259390      -0.46803159
H       -1.54113437       1.66461669       0.11921344
H       -0.35930382      -0.73046070      -1.68712636
H        1.39132380      -0.16054203       0.55635814
12
Frame=1 idx=011849 GeodesicLength=0.10826430736567706 rxn_smarts="[C:1]([N:2]([C:3]([C:4]#[N:5])([C:6]#[N:7])[H:12])[H:11])([H:8])([H:9])[H:10]>>[C:1]([N+:7]#[C-:6])([H:8])([H:9])[H:10].[N:2](=[C:3](\[C:4]#[N:5])[H:12])\[H:11]"
C       -1.69286083       0.61805881       0.31535540
N       -0.11869258      -0.39052591      -0.74966361
C        1.08546038      -0.55401135      -0.39575977
C        2.05521458      -1.20773505      -1.24121448
N        2.81814189      -1.73391729      -1.91750844
C        0.66250943       1.19675195       2.52086334
N        0.01701842       1.00891766       1.56518286
H       -2.01297594       0.31520401       1.29753238
H       -2.19233776       0.08718478      -0.48278011
H       -1.63135275       1.68129343       0.14538472
H       -0.34070281      -0.70143220      -1.69412821
H        1.35057798      -0.31978884       0.63673592
12
Frame=2 idx=011849 GeodesicLength=0.2210377466888934 rxn_smarts="[C:1]([N:2]([C:3]([C:4]#[N:5])([C:6]#[N:7])[H:12])[H:11])([H:8])([H:9])[H:10]>>[C:1]([N+:7]#[C-:6])([H:8])([H:9])[H:10].[N:2](=[C:3](\[C:4]#[N:5])[H:12])\[H:11]"
C       -1.68917755       0.61620806       0.31574085
N       -0.12605690      -0.40197019      -0.74607804
C        1.07460455      -0.57353158      -0.36588795
C        2.06411737      -1.20015038      -1.21074916
N        2.83859205      -1.69743939      -1.89563016
C        0.75048809       1.20762661       2.42013422
N        0.02862015       1.10294708       1.50951892
H       -1.98457114       0.24174638       1.28148374
H       -2.20885722       0.13089940      -0.49973407
H       -1.72123940       1.68976861       0.20766107
H       -0.31366935      -0.65360156      -1.71490361
H        1.28714934      -0.46250304       0.69844419
12
Frame=3 idx=011849 GeodesicLength=0.33631355221049697 rxn_smarts="[C:1]([N:2]([C:3]([C:4]#[N:5])([C:6]#[N:7])[H:12])[H:11])([H:8])([H:9])[H:10]>>[C:1]([N+:7]#[C-:6])([H:8])([H:9])[H:10].[N:2](=[C:3](\[C:4]#[N:5])[H:12])\[H:11]"
C       -1.68268385       0.61809240       0.31685954
N       -0.13387561      -0.41002360      -0.74804973
C        1.06222790      -0.58903607      -0.33968152
C        2.06960609      -1.20095489      -1.17586991
N        2.86135251      -1.66703830      -1.86284604
C        0.81901866       1.20095618       2.31953645
N        0.04377902       1.19292163       1.45025641
H       -1.94504514       0.17160354       1.26205712
H       -2.22415568       0.17773215      -0.51117016
H       -1.80661028       1.69094120       0.28349496
H       -0.28853950      -0.61359935      -1.73336275
H        1.22492590      -0.57159489       0.73877562
12
Frame=4 idx=011849 GeodesicLength=0.45326810382551685 rxn_smarts="[C:1]([N:2]([C:3]([C:4]#[N:5])([C:6]#[N:7])[H:12])[H:11])([H:8])([H:9])[H:10]>>[C:1]([N+:7]#[C-:6])([H:8])([H:9])[H:10].[N:2](=[C:3](\[C:4]#[N:5])[H:12])\[H:11]"
C       -1.67601846       0.62092779       0.31844444
N       -0.14218159      -0.41818639      -0.75151992
C        1.04867675      -0.60347826      -0.31421931
C        2.07337162      -1.20492713      -1.13864775
N        2.88317159      -1.64145145      -1.82391808
C        0.88617633       1.19979636       2.20834867
N        0.05400038       1.26865483       1.39816218
H       -1.90849309       0.10188115       1.23487764
H       -2.23784007       0.23044578      -0.52226189
H       -1.88308387       1.68120329       0.37218263
H       -0.26189507      -0.57193334      -1.75018775
H        1.16411547      -0.66293263       0.76873916
12
Frame=5 idx=011849 GeodesicLength=0.5711262118122424 rxn_smarts="[C:1]([N:2]([C:3]([C:4]#[N:5])([C:6]#[N:7])[H:12])[H:11])([H:8])([H:9])[H:10]>>[C:1]([N+:7]#[C-:6])([H:8])([H:9])[H:10].[N:2](=[C:3](\[C:4]#[N:5])[H:12])\[H:11]"
C       -1.66859378       0.62536639       0.32037248
N       -0.15093768      -0.42832686      -0.75465719
C        1.03525974      -0.61629611      -0.29009659
C        2.07633896      -1.20875174      -1.10228233
N        2.90272790      -1.61961539      -1.78353755
C        0.94216541       1.19612976       2.09536769
N        0.06237682       1.33798907       1.34920724
H       -1.87461364       0.03746268       1.20191600
H       -2.24976251       0.28723354      -0.53103263
H       -1.94815150       1.66131710       0.46622582
H       -0.23624889      -0.53393613      -1.76265779
H        1.10943918      -0.73857230       0.79117486
12
Frame=6 idx=011849 GeodesicLength=0.6895809306959908 rxn_smarts="[C:1]([N:2]([C:3]([C:4]#[N:5])([C:6]#[N:7])[H:12])[H:11])([H:8])([H:9])[H:10]>>[C:1]([N+:7]#[C-:6])([H:8])([H:9])[H:10].[N:2](=[C:3](\[C:4]#[N:5])[H:12])\[H:11]"
C       -1.66063937       0.63090778       0.32280452
N       -0.15993605      -0.43999130      -0.75709502
C        1.02226453      -0.62787918      -0.26719459
C        2.07862463      -1.21202890      -1.06754453
N        2.92007117      -1.60046759      -1.74343943
C        0.98780738       1.19158881       1.98204656
N        0.06873433       1.40174942       1.30405636
H       -1.84555111      -0.02191525       1.16354052
H       -2.25960203       0.34844223      -0.53766478
H       -2.00118155       1.63194628       0.56238594
H       -0.21253397      -0.50046138      -1.77068654
H        1.06194203      -0.80189092       0.80879098
12
Frame=7 idx=011849 GeodesicLength=0.8083407178820594 rxn_smarts="[C:1]([N:2]([C:3]([C:4]#[N:5])([C:6]#[N:7])[H:12])[H:11])([H:8])([H:9])[H:10]>>[C:1]([N+:7]#[C-:6])([H:8])([H:9])[H:10].[N:2](=[C:3](\[C:4]#[N:5])[H:12])\[H:11]"
C       -1.65233001       0.63660243       0.32613774
N       -0.16868770      -0.45217679      -0.75892222
C        1.01039532      -0.63724975      -0.24580341
C        2.08067396      -1.21389352      -1.03509623
N        2.93465298      -1.58585477      -1.70444248
C        1.02310786       1.18708035       1.87028032
N        0.07298838       1.46107802       1.26307258
H       -1.82249884      -0.07717491       1.12042583
H       -2.26714383       0.41367053      -0.54169458
H       -2.04213518       1.59383571       0.65802541
H       -0.19107484      -0.47132276      -1.77494941
H        1.02205191      -0.85459453       0.82296645
12
Frame=8 idx=011849 GeodesicLength=0.9270245201004801 rxn_smarts="[C:1]([N:2]([C:3]([C:4]#[N:5])([C:6]#[N:7])[H:12])[H:11])([H:8])([H:9])[H:10]>>[C:1]([N+:7]#[C-:6])([H:8])([H:9])[H:10].[N:2](=[C:3](\[C:4]#[N:5])[H:12])\[H:11]"
C       -1.64357064       0.64220092       0.33030765
N       -0.17750765      -0.46641439      -0.75897388
C        1.00001203      -0.64469620      -0.22557091
C        2.08352557      -1.21207165      -1.00559239
N        2.94668894      -1.57346985      -1.66883384
C        1.04734794       1.18133067       1.76312137
N        0.07598596       1.51656836       1.22577952
H       -1.80754517      -0.12729096       1.07360591
H       -2.27191693       0.48298046      -0.54287010
H       -2.07002481       1.55005202       0.74904443
H       -0.17348197      -0.44999904      -1.77503283
H        0.99048674      -0.89919036       0.83501509
12
Frame=9 idx=011849 GeodesicLength=1.0456094717656175 rxn_smarts="[C:1]([N:2]([C:3]([C:4]#[N:5])([C:6]#[N:7])[H:12])[H:11])([H:8])([H:9])[H:10]>>[C:1]([N+:7]#[C-:6])([H:8])([H:9])[H:10].[N:2](=[C:3](\[C:4]#[N:5])[H:12])\[H:11]"
C       -1.63480149       0.64596773       0.33591659
N       -0.18467578      -0.47846124      -0.75943765
C        0.99198926      -0.64793237      -0.20727145
C        2.08699696      -1.20819791      -0.97854580
N        2.95444685      -1.57309974      -1.63412123
C        1.06320651       1.17914479       1.65828463
N        0.07561875       1.56915697       1.19385626
H       -1.79867979      -0.17641385       1.02188963
H       -2.27431869       0.55501200      -0.53989173
H       -2.08917593       1.49782412       0.83819235
H       -0.15662939      -0.42868877      -1.77379869
H        0.96602275      -0.93431173       0.84492709
12
Frame=10 idx=011849 GeodesicLength=1.1636790086313933 rxn_smarts="[C:1]([N:2]([C:3]([C:4]#[N:5])([C:6]#[N:7])[H:12])[H:11])([H:8])([H:9])[H:10]>>[C:1]([N+:7]#[C-:6])([H:8])([H:9])[H:10].[N:2](=[C:3](\[C:4]#[N:5])[H:12])\[H:11]"
C       -1.62560265       0.64933618       0.34189907
N       -0.19200923      -0.49352578      -0.75723085
C        0.98561096      -0.65015291      -0.18951506
C        2.09174939      -1.20033511      -0.95441009
N        2.96071348      -1.57181133      -1.60415297
C        1.07062110       1.17608943       1.55905635
N        0.07436585       1.61774868       1.16637804
H       -1.79974390      -0.22003468       0.96629029
H       -2.27324466       0.63110792      -0.53341263
H       -2.09742580       1.44359275       0.91973387
H       -0.14460591      -0.41743451      -1.76903683
H        0.94957138      -0.96458064       0.85440083
12
Frame=11 idx=011849 GeodesicLength=1.2813973261580802 rxn_smarts="[C:1]([N:2]([C:3]([C:4]#[N:5])([C:6]#[N:7])[H:12])[H:11])([H:8])([H:9])[H:10]>>[C:1]([N+:7]#[C-:6])([H:8])([H:9])[H:10].[N:2](=[C:3](\[C:4]#[N:5])[H:12])\[H:11]"
C       -1.61617333       0.65163147       0.34826082
N       -0.19896096      -0.51012908      -0.75329076
C        0.98099528      -0.65080703      -0.17259636
C        2.09735133      -1.18995552      -0.93285170
N        2.96541439      -1.57267596      -1.57714860
C        1.07147565       1.17413479       1.46360086
N        0.07164406       1.66276741       1.14387780
H       -1.80943334      -0.25933886       0.90602823
H       -2.26895330       0.71023158      -0.52237557
H       -2.09750145       1.38648545       0.99520668
H       -0.13594685      -0.41263056      -1.76222596
H        0.94008853      -0.98971369       0.86351455
12
Frame=12 idx=011849 GeodesicLength=1.3988510440971282 rxn_smarts="[C:1]([N:2]([C:3]([C:4]#[N:5])([C:6]#[N:7])[H:12])[H:11])([H:8])([H:9])[H:10]>>[C:1]([N+:7]#[C-:6])([H:8])([H:9])[H:10].[N:2](=[C:3](\[C:4]#[N:5])[H:12])\[H:11]"
C       -1.60644199       0.65347011       0.35426035
N       -0.20608928      -0.53005768      -0.74631490
C        0.97796013      -0.65093633      -0.15594003
C        2.10386891      -1.17661947      -0.91398949
N        2.96952429      -1.57114759      -1.55431220
C        1.06642119       1.17182629       1.37273640
N        0.06840677       1.70376027       1.12636503
H       -1.82874533      -0.29234709       0.84079808
H       -2.26052912       0.79268394      -0.50712323
H       -2.09033092       1.32874126       1.06337904
H       -0.13195429      -0.41790162      -1.75280722
H        0.93790962      -1.01147209       0.87294817
12
Frame=13 idx=011849 GeodesicLength=1.5162461428092238 rxn_smarts="[C:1]([N:2]([C:3]([C:4]#[N:5])([C:6]#[N:7])[H:12])[H:11])([H:8])([H:9])[H:10]>>[C:1]([N+:7]#[C-:6])([H:8])([H:9])[H:10].[N:2](=[C:3](\[C:4]#[N:5])[H:12])\[H:11]"
C       -1.59662299       0.65458479       0.35958951
N       -0.21297388      -0.55217730      -0.73708487
C        0.97651588      -0.64997616      -0.13982672
C        2.11090618      -1.16134706      -0.89759476
N        2.97272453      -1.57017561      -1.53406120
C        1.05650343       1.17057668       1.28470074
N        0.06420889       1.74093297       1.11453778
H       -1.85554357      -0.31894816       0.76993701
H       -2.24872934       0.87699670      -0.48665232
H       -2.07785999       1.26888720       1.12552871
H       -0.13123363      -0.43019484      -1.74169644
H        0.94210449      -1.02915920       0.88262258
12
Frame=14 idx=011849 GeodesicLength=1.6337942856934862 rxn_smarts="[C:1]([N:2]([C:3]([C:4]#[N:5])([C:6]#[N:7])[H:12])[H:11])([H:8])([H:9])[H:10]>>[C:1]([N+:7]#[C-:6])([H:8])([H:9])[H:10].[N:2](=[C:3](\[C:4]#[N:5])[H:12])\[H:11]"
C       -1.58672497       0.65579236       0.36330075
N       -0.22009432      -0.57782057      -0.72450198
C        0.97634538      -0.64874553      -0.12375576
C        2.11815828      -1.14417600      -0.88364574
N        2.97568806      -1.56601502      -1.51738871
C        1.04207716       1.16922001       1.19982578
N        0.05989581       1.77366817       1.10882889
H       -1.88931618      -0.33684257       0.69328519
H       -2.23315037       0.96299494      -0.46147999
H       -2.06103608       1.20803326       1.18071619
H       -0.13460198      -0.45223975      -1.72822376
H        0.95275920      -1.04386930       0.89303915
12
Frame=15 idx=011849 GeodesicLength=1.7516445812207508 rxn_smarts="[C:1]([N:2]([C:3]([C:4]#[N:5])([C:6]#[N:7])[H:12])[H:11])([H:8])([H:9])[H:10]>>[C:1]([N+:7]#[C-:6])([H:8])([H:9])[H:10].[N:2](=[C:3](\[C:4]#[N:5])[H:12])\[H:11]"
C       -1.57682915       0.65785308       0.36440845
N       -0.22768266      -0.60755326      -0.70783878
C        0.97716399      -0.64757965      -0.10738265
C        2.12520244      -1.12519510      -0.87205576
N        2.97839259      -1.55708164      -1.50489098
C        1.02343690       1.16730517       1.11797966
N        0.05601323       1.80131203       1.11009063
H       -1.92815635      -0.34427035       0.61093950
H       -2.21396209       1.04994636      -0.43214922
H       -2.04115072       1.14639765       1.22823124
H       -0.14217403      -0.48515425      -1.71183270
H        0.96974585      -1.05598003       0.90450063
12
Frame=16 idx=011849 GeodesicLength=1.8698792841795115 rxn_smarts="[C:1]([N:2]([C:3]([C:4]#[N:5])([C:6]#[N:7])[H:12])[H:11])([H:8])([H:9])[H:10]>>[C:1]([N+:7]#[C-:6])([H:8])([H:9])[H:10].[N:2](=[C:3](\[C:4]#[N:5])[H:12])\[H:11]"
C       -1.56698859       0.66168764       0.36180917
N       -0.23596197      -0.64190559      -0.68608236
C        0.97871452      -0.64664953      -0.09031082
C        2.13157301      -1.10400190      -0.86291191
N        2.98032231      -1.54215568      -1.49742759
C        1.00065267       1.16438022       1.03936163
N        0.05318495       1.82294989       1.11937099
H       -1.96964403      -0.33983471       0.52319424
H       -2.19133953       1.13726932      -0.39966133
H       -2.01960507       1.08423223       1.26695252
H       -0.15412531      -0.53026434      -1.69153231
H        0.99321704      -1.06570755       0.91723778
