17
Frame=0 idx=007596 GeodesicLength=0.0 rxn_smarts="[C:1]([C@@:2]1([C:3]([C:4]([O:5][H:15])([H:13])[H:14])([H:11])[H:12])[C:6]([H:16])([H:17])[O:7]1)([H:8])([H:9])[H:10]>>[C:1]([C:2](=[C:6]([H:16])[H:17])[O:7][H:14])([H:8])([H:9])[H:10].[C:3](=[C:4]([O:5][H:15])[H:13])([H:11])[H:12]"
C       -1.09582022      -1.45671574       0.33766801
C       -0.70187847      -0.02243709       0.01309800
C        0.82565094      -0.07526536      -0.71849358
C        1.72829303       0.23326882       0.37014145
O        2.50159928       1.37770669       0.33749235
C       -1.72210686       0.77623639      -0.53828681
O       -0.48243707       0.76466346       1.14629986
H       -1.28370591      -2.02180724      -0.57853220
H       -0.29409283      -1.95079878       0.88880859
H       -1.99266138      -1.47231119       0.95774677
H        0.85038422       0.66212150      -1.52035841
H        0.92563898      -1.07374987      -1.13613695
H        2.26014712      -0.56867742       0.87041756
H        0.66087116       0.56717014       1.25280302
H        2.05209332       2.04555492      -0.18549410
H       -2.69601582       0.38415998      -0.81238113
H       -1.53595952       1.83088074      -0.68479248
17
Frame=1 idx=007596 GeodesicLength=0.11764285559641423 rxn_smarts="[C:1]([C@@:2]1([C:3]([C:4]([O:5][H:15])([H:13])[H:14])([H:11])[H:12])[C:6]([H:16])([H:17])[O:7]1)([H:8])([H:9])[H:10]>>[C:1]([C:2](=[C:6]([H:16])[H:17])[O:7][H:14])([H:8])([H:9])[H:10].[C:3](=[C:4]([O:5][H:15])[H:13])([H:11])[H:12]"
C       -1.10867300      -1.45441035       0.34411141
C       -0.70438796      -0.02805320       0.00424747
C        0.85018576      -0.09264929      -0.72829234
C        1.74697223       0.22494502       0.36140618
O        2.47821875       1.39749113       0.33872530
C       -1.71598560       0.78690856      -0.53512592
O       -0.48486107       0.77192549       1.12941900
H       -1.31144287      -2.02314378      -0.56643741
H       -0.30710681      -1.95183757       0.89276095
H       -1.99858470      -1.45939068       0.97445064
H        0.85618446       0.64593768      -1.52903259
H        0.95551516      -1.09157410      -1.14336674
H        2.31240145      -0.56797781       0.83844016
H        0.66649941       0.53643736       1.26460112
H        1.97395114       2.06637174      -0.13178477
H       -2.69563028       0.40500953      -0.80262572
H       -1.51325607       1.83401027      -0.71149671
17
Frame=2 idx=007596 GeodesicLength=0.23528313040794344 rxn_smarts="[C:1]([C@@:2]1([C:3]([C:4]([O:5][H:15])([H:13])[H:14])([H:11])[H:12])[C:6]([H:16])([H:17])[O:7]1)([H:8])([H:9])[H:10]>>[C:1]([C:2](=[C:6]([H:16])[H:17])[O:7][H:14])([H:8])([H:9])[H:10].[C:3](=[C:4]([O:5][H:15])[H:13])([H:11])[H:12]"
C       -1.12140562      -1.45192126       0.35020307
C       -0.70757570      -0.03341895      -0.00429446
C        0.87485187      -0.10912523      -0.73760155
C        1.76532013       0.21780405       0.35332040
O        2.45392905       1.41655793       0.34046750
C       -1.71025510       0.79751521      -0.53177574
O       -0.48796467       0.77856483       1.11323028
H       -1.33898398      -2.02372637      -0.55471137
H       -0.31974959      -1.95266693       0.89588454
H       -2.00413937      -1.44693406       0.99073093
H        0.86150688       0.63049053      -1.53686543
H        0.98664666      -1.10811847      -1.15046584
H        2.36456108      -0.56403717       0.80644318
H        0.67100472       0.50728596       1.27597573
H        1.89963891       2.07983478      -0.08055912
H       -2.69528840       0.42559837      -0.79294188
H       -1.49209687       1.83629679      -0.73704026
17
Frame=3 idx=007596 GeodesicLength=0.3529848624866563 rxn_smarts="[C:1]([C@@:2]1([C:3]([C:4]([O:5][H:15])([H:13])[H:14])([H:11])[H:12])[C:6]([H:16])([H:17])[O:7]1)([H:8])([H:9])[H:10]>>[C:1]([C:2](=[C:6]([H:16])[H:17])[O:7][H:14])([H:8])([H:9])[H:10].[C:3](=[C:4]([O:5][H:15])[H:13])([H:11])[H:12]"
C       -1.13410600      -1.44929899       0.35601477
C       -0.71144076      -0.03854719      -0.01252492
C        0.89967294      -0.12481178      -0.74644539
C        1.78344634       0.21165040       0.34585170
O        2.42894579       1.43474072       0.34270245
C       -1.70490195       0.80808719      -0.52832775
O       -0.49176915       0.78468651       1.09774045
H       -1.36647032      -2.02367399      -0.54328343
H       -0.33211896      -1.95338300       0.89828737
H       -2.00941754      -1.43490755       1.00668086
H        0.86637128       0.61559746      -1.54393690
H        1.01899739      -1.12353007      -1.15747143
H        2.41666703      -0.55703352       0.77431023
H        0.67458302       0.47946339       1.28710284
H        1.82889812       2.08710120      -0.03167426
H       -2.69502475       0.44598917      -0.78341735
H       -1.47233250       1.83787004      -0.76160924
17
Frame=4 idx=007596 GeodesicLength=0.47088192156776953 rxn_smarts="[C:1]([C@@:2]1([C:3]([C:4]([O:5][H:15])([H:13])[H:14])([H:11])[H:12])[C:6]([H:16])([H:17])[O:7]1)([H:8])([H:9])[H:10]>>[C:1]([C:2](=[C:6]([H:16])[H:17])[O:7][H:14])([H:8])([H:9])[H:10].[C:3](=[C:4]([O:5][H:15])[H:13])([H:11])[H:12]"
C       -1.14684436      -1.44668097       0.36160160
C       -0.71598805      -0.04344491      -0.02045674
C        0.92465973      -0.13987009      -0.75487837
C        1.80149271       0.20632684       0.33902026
O        2.40345865       1.45203803       0.34546700
C       -1.69994649       0.81874806      -0.52493196
O       -0.49623525       0.79045645       1.08301885
H       -1.39406558      -2.02322145      -0.53216762
H       -0.34425936      -1.95422591       0.90009345
H       -2.01447167      -1.42334864       1.02240580
H        0.87073465       0.60107520      -1.55041705
H        1.05253320      -1.13808174      -1.16446054
H        2.46880714      -0.54713216       0.74207401
H        0.67746426       0.45275207       1.29823252
H        1.76152676       2.08921771       0.01491554
H       -2.69494438       0.46634541      -0.77418198
H       -1.45392197       1.83904610      -0.78533479
17
Frame=5 idx=007596 GeodesicLength=0.5886031004460873 rxn_smarts="[C:1]([C@@:2]1([C:3]([C:4]([O:5][H:15])([H:13])[H:14])([H:11])[H:12])[C:6]([H:16])([H:17])[O:7]1)([H:8])([H:9])[H:10]>>[C:1]([C:2](=[C:6]([H:16])[H:17])[O:7][H:14])([H:8])([H:9])[H:10].[C:3](=[C:4]([O:5][H:15])[H:13])([H:11])[H:12]"
C       -1.15967155      -1.44380605       0.36705407
C       -0.72121480      -0.04812974      -0.02805657
C        0.94984817      -0.15414542      -0.76284196
C        1.81935957       0.20168666       0.33266265
O        2.37758342       1.46802876       0.34867923
C       -1.69529532       0.82916533      -0.52147010
O       -0.50151540       0.79577316       1.06877626
H       -1.42168647      -2.02204234      -0.52103063
H       -0.35632890      -1.95472543       0.90127774
H       -2.01938303      -1.41204440       1.03793323
H        0.87479176       0.58699604      -1.55598996
H        1.08723469      -1.15130117      -1.17142902
H        2.52058169      -0.53436349       0.70925113
H        0.67952221       0.42690842       1.30915062
H        1.69757511       2.08647525       0.05952379
H       -2.69482178       0.48626263      -0.76517181
H       -1.43657937       1.83926179      -0.80831868
17
Frame=6 idx=007596 GeodesicLength=0.7064514800261013 rxn_smarts="[C:1]([C@@:2]1([C:3]([C:4]([O:5][H:15])([H:13])[H:14])([H:11])[H:12])[C:6]([H:16])([H:17])[O:7]1)([H:8])([H:9])[H:10]>>[C:1]([C:2](=[C:6]([H:16])[H:17])[O:7][H:14])([H:8])([H:9])[H:10].[C:3](=[C:4]([O:5][H:15])[H:13])([H:11])[H:12]"
C       -1.17265285      -1.44093193       0.37234281
C       -0.72710982      -0.05261738      -0.03534673
C        0.97528131      -0.16793611      -0.77039939
C        1.83727551       0.19765715       0.32685638
O        2.35141873       1.48296627       0.35238325
C       -1.69096196       0.83962537      -0.51815632
O       -0.50749019       0.80079836       1.05523699
H       -1.44953325      -2.02048827      -0.51009811
H       -0.36834207      -1.95536444       0.90193336
H       -2.02420655      -1.40112442       1.05328786
H        0.87844185       0.57299489      -1.56098697
H        1.12317008      -1.16372383      -1.17840026
H        2.57220108      -0.51874112       0.67622859
H        0.68106161       0.40174096       1.32020833
H        1.63668972       2.07978340       0.10181041
H       -2.69485379       0.50617005      -0.75649013
H       -1.42038941       1.83919108      -0.83041008
17
Frame=7 idx=007596 GeodesicLength=0.8243257853282662 rxn_smarts="[C:1]([C@@:2]1([C:3]([C:4]([O:5][H:15])([H:13])[H:14])([H:11])[H:12])[C:6]([H:16])([H:17])[O:7]1)([H:8])([H:9])[H:10]>>[C:1]([C:2](=[C:6]([H:16])[H:17])[O:7][H:14])([H:8])([H:9])[H:10].[C:3](=[C:4]([O:5][H:15])[H:13])([H:11])[H:12]"
C       -1.18584220      -1.43798118       0.37749566
C       -0.73365832      -0.05692910      -0.04230791
C        1.00100833      -0.18126048      -0.77752592
C        1.85525514       0.19416666       0.32151884
O        2.32499002       1.49673158       0.35653046
C       -1.68687219       0.85003609      -0.51494307
O       -0.51418759       0.80549021       1.04231394
H       -1.47765603      -2.01843483      -0.49926387
H       -0.38040533      -1.95604007       0.90201917
H       -2.02899663      -1.39050474       1.06849015
H        0.88176861       0.55895865      -1.56531978
H        1.16039236      -1.17524389      -1.18534547
H        2.62349083      -0.50020655       0.64285562
H        0.68209175       0.37701304       1.33136903
H        1.57869982       2.06950185       0.14184297
H       -2.69495438       0.52601522      -0.74805889
H       -1.40512416       1.83868754      -0.85167091
17
Frame=8 idx=007596 GeodesicLength=0.9422712925452985 rxn_smarts="[C:1]([C@@:2]1([C:3]([C:4]([O:5][H:15])([H:13])[H:14])([H:11])[H:12])[C:6]([H:16])([H:17])[O:7]1)([H:8])([H:9])[H:10]>>[C:1]([C:2](=[C:6]([H:16])[H:17])[O:7][H:14])([H:8])([H:9])[H:10].[C:3](=[C:4]([O:5][H:15])[H:13])([H:11])[H:12]"
C       -1.19926990      -1.43498987       0.38254035
C       -0.74085920      -0.06107326      -0.04894220
C        1.02706408      -0.19420500      -0.78425540
C        1.87338215       0.19114093       0.31661747
O        2.29838515       1.50930815       0.36110956
C       -1.68302581       0.86043179      -0.51187647
O       -0.52158364       0.80991318       1.03001216
H       -1.50613417      -2.01593890      -0.48850915
H       -0.39254116      -1.95683212       0.90155645
H       -2.03376308      -1.38017621       1.08360227
H        0.88476950       0.54475421      -1.56904181
H        1.19894589      -1.18593994      -1.19231512
H        2.67434944      -0.47879145       0.60918240
H        0.68271736       0.35256467       1.34270198
H        1.52343957       2.05608768       0.17965961
H       -2.69515526       0.54586958      -0.73990872
H       -1.39072091       1.83787654      -0.87213337
17
Frame=9 idx=007596 GeodesicLength=1.0601382387897624 rxn_smarts="[C:1]([C@@:2]1([C:3]([C:4]([O:5][H:15])([H:13])[H:14])([H:11])[H:12])[C:6]([H:16])([H:17])[O:7]1)([H:8])([H:9])[H:10]>>[C:1]([C:2](=[C:6]([H:16])[H:17])[O:7][H:14])([H:8])([H:9])[H:10].[C:3](=[C:4]([O:5][H:15])[H:13])([H:11])[H:12]"
C       -1.21296662      -1.43188653       0.38754439
C       -0.74871602      -0.06505281      -0.05523612
C        1.05345907      -0.20671204      -0.79059884
C        1.89166535       0.18851122       0.31207119
O        2.27173022       1.52056434       0.36609309
C       -1.67940335       0.87070093      -0.50892373
O       -0.52968236       0.81408252       1.01820114
H       -1.53497498      -2.01293038      -0.47766634
H       -0.40481246      -1.95759127       0.90057124
H       -2.03852483      -1.37007636       1.09867678
H        0.88748994       0.53041921      -1.57203956
H        1.23880577      -1.19560898      -1.19939382
H        2.72449199      -0.45457883       0.57507684
H        0.68294399       0.32826714       1.35412284
H        1.47089956       2.03976625       0.21549411
H       -2.69538453       0.56556457      -0.73207638
H       -1.37702073       1.83656101      -0.89191684
17
Frame=10 idx=007596 GeodesicLength=1.1780534993193525 rxn_smarts="[C:1]([C@@:2]1([C:3]([C:4]([O:5][H:15])([H:13])[H:14])([H:11])[H:12])[C:6]([H:16])([H:17])[O:7]1)([H:8])([H:9])[H:10]>>[C:1]([C:2](=[C:6]([H:16])[H:17])[O:7][H:14])([H:8])([H:9])[H:10].[C:3](=[C:4]([O:5][H:15])[H:13])([H:11])[H:12]"
C       -1.22694720      -1.42874333       0.39250442
C       -0.75722040      -0.06887583      -0.06119642
C        1.08025165      -0.21892561      -0.79660851
C        1.91021519       0.18624049       0.30784632
O        2.24506190       1.53055457       0.37145617
C       -1.67600090       0.88094147      -0.50615175
O       -0.53844681       0.81805889       1.00695423
H       -1.56425533      -2.00949504      -0.46679679
H       -0.41721551      -1.95848226       0.89906435
H       -2.04327422      -1.36022276       1.11375888
H        0.88990803       0.51572644      -1.57444457
H        1.28008285      -1.20442201      -1.20661976
H        2.77384179      -0.42757198       0.54078056
H        0.68290329       0.30397384       1.36573080
H        1.42083046       2.02093102       0.24921169
H       -2.69570425       0.58528448      -0.72456382
H       -1.36403055       1.83502761      -0.91092581
17
Frame=11 idx=007596 GeodesicLength=1.2959696432908188 rxn_smarts="[C:1]([C@@:2]1([C:3]([C:4]([O:5][H:15])([H:13])[H:14])([H:11])[H:12])[C:6]([H:16])([H:17])[O:7]1)([H:8])([H:9])[H:10]>>[C:1]([C:2](=[C:6]([H:16])[H:17])[O:7][H:14])([H:8])([H:9])[H:10].[C:3](=[C:4]([O:5][H:15])[H:13])([H:11])[H:12]"
C       -1.24123326      -1.42553444       0.39745964
C       -0.76637285      -0.07254493      -0.06681637
C        1.10747288      -0.23085377      -0.80231071
C        1.92907282       0.18430138       0.30387173
O        2.21844868       1.53923796       0.37716265
C       -1.67280372       0.89112040      -0.50354853
O       -0.54786285       0.82186676       0.99621362
H       -1.59401872      -2.00559962      -0.45581262
H       -0.42978437      -1.95946742       0.89703018
H       -2.04800519      -1.35058124       1.12890200
H        0.89203823       0.50061308      -1.57622417
H        1.32282029      -1.21228590      -1.21406394
H        2.82218542      -0.39783600       0.50632264
H        0.68263891       0.27956062       1.37748885
H        1.37313118       1.99978357       0.28093175
H       -2.69608949       0.60499489      -0.71737475
H       -1.35163797       1.83322465      -0.92923198
17
Frame=12 idx=007596 GeodesicLength=1.41389679865169 rxn_smarts="[C:1]([C@@:2]1([C:3]([C:4]([O:5][H:15])([H:13])[H:14])([H:11])[H:12])[C:6]([H:16])([H:17])[O:7]1)([H:8])([H:9])[H:10]>>[C:1]([C:2](=[C:6]([H:16])[H:17])[O:7][H:14])([H:8])([H:9])[H:10].[C:3](=[C:4]([O:5][H:15])[H:13])([H:11])[H:12]"
C       -1.25583519      -1.42226000       0.40244457
C       -0.77617763      -0.07606016      -0.07209780
C        1.13516260      -0.24253373      -0.80775014
C        1.94829624       0.18267272       0.30008655
O        2.19195327       1.54660218       0.38318103
C       -1.66981497       0.90124247      -0.50113615
O       -0.55791566       0.82555524       0.98595253
H       -1.62431352      -2.00125050      -0.44465502
H       -0.44252406      -1.96056037       0.89446855
H       -2.05269178      -1.34112843       1.14417263
H        0.89387810       0.48498044      -1.57739293
H        1.36708580      -1.21916140      -1.22181313
H        2.86934994      -0.36546301       0.47181156
H        0.68221406       0.25491863       1.38939080
H        1.32767818       1.97653177       0.31073690
H       -2.69655072       0.62471358      -0.71053354
H       -1.33979465       1.83120057      -0.94686640
17
Frame=13 idx=007596 GeodesicLength=1.5317850570136382 rxn_smarts="[C:1]([C@@:2]1([C:3]([C:4]([O:5][H:15])([H:13])[H:14])([H:11])[H:12])[C:6]([H:16])([H:17])[O:7]1)([H:8])([H:9])[H:10]>>[C:1]([C:2](=[C:6]([H:16])[H:17])[O:7][H:14])([H:8])([H:9])[H:10].[C:3](=[C:4]([O:5][H:15])[H:13])([H:11])[H:12]"
C       -1.27076006      -1.41889174       0.40751917
C       -0.78664567      -0.07941373      -0.07703606
C        1.16334190      -0.25394491      -0.81297440
C        1.96791805       0.18133479       0.29642113
O        2.16566335       1.55260783       0.38949480
C       -1.66704508       0.91127631      -0.49891760
O       -0.56859465       0.82917897       0.97610076
H       -1.65514584      -1.99643847      -0.43320996
H       -0.45544874      -1.96169863       0.89141652
H       -2.05731366      -1.33182658       1.15963547
H        0.89542711       0.46881179      -1.57791172
H        1.41290674      -1.22490048      -1.23000493
H        2.91511645      -0.33062176       0.43729177
H        0.68166114       0.22996137       1.40139087
H        1.28442124       1.95130633       0.33881568
H       -2.69707280       0.64436954      -0.70410041
H       -1.32842947       1.82888937      -0.96393110
17
Frame=14 idx=007596 GeodesicLength=1.6496735314496602 rxn_smarts="[C:1]([C@@:2]1([C:3]([C:4]([O:5][H:15])([H:13])[H:14])([H:11])[H:12])[C:6]([H:16])([H:17])[O:7]1)([H:8])([H:9])[H:10]>>[C:1]([C:2](=[C:6]([H:16])[H:17])[O:7][H:14])([H:8])([H:9])[H:10].[C:3](=[C:4]([O:5][H:15])[H:13])([H:11])[H:12]"
C       -1.28602007      -1.41543599       0.41270854
C       -0.79778450      -0.08260560      -0.08163463
C        1.19206700      -0.26514186      -0.81802882
C        1.98799841       0.18029224       0.29281940
O        2.13960207       1.55726951       0.39607124
C       -1.66449680       0.92124572      -0.49692572
O       -0.57989059       0.83278414       0.96665072
H       -1.68658121      -1.99116677      -0.42143474
H       -0.46856234      -1.96292222       0.88785328
H       -2.06183445      -1.32265439       1.17535737
H        0.89668041       0.45195471      -1.57780996
H        1.46038705      -1.22946813      -1.23871835
H        2.95937811      -0.29339344       0.40292077
H        0.68104405       0.20457802       1.41349006
H        1.24320888       1.92425798       0.36519012
H       -2.69768060       0.66402301      -0.69808533
H       -1.31751543       1.82638307      -0.98042394
17
Frame=15 idx=007596 GeodesicLength=1.7675467158070088 rxn_smarts="[C:1]([C@@:2]1([C:3]([C:4]([O:5][H:15])([H:13])[H:14])([H:11])[H:12])[C:6]([H:16])([H:17])[O:7]1)([H:8])([H:9])[H:10]>>[C:1]([C:2](=[C:6]([H:16])[H:17])[O:7][H:14])([H:8])([H:9])[H:10].[C:3](=[C:4]([O:5][H:15])[H:13])([H:11])[H:12]"
C       -1.30162890      -1.41187186       0.41806116
C       -0.80960840      -0.08562964      -0.08589042
C        1.22137839      -0.27612872      -0.82295581
C        2.00857331       0.17955253       0.28922131
O        2.11380829       1.56057700       0.40289031
C       -1.66217580       0.93114179      -0.49517513
O       -0.59179860       0.83641997       0.95755483
H       -1.71865698      -1.98541861      -0.40923413
H       -0.48188415      -1.96420445       0.88378690
H       -2.06622456      -1.31357492       1.19140464
H        0.89763645       0.43432288      -1.57706120
H        1.50959782      -1.23272410      -1.24807589
H        3.00199810      -0.25391385       0.36877690
H        0.68039689       0.17867141       1.42565417
H        1.20395299       1.89546626       0.38999178
H       -2.69837280       0.68365781      -0.69252771
H       -1.30699207       1.82365650      -0.99642172
17
Frame=16 idx=007596 GeodesicLength=1.8854014553483793 rxn_smarts="[C:1]([C@@:2]1([C:3]([C:4]([O:5][H:15])([H:13])[H:14])([H:11])[H:12])[C:6]([H:16])([H:17])[O:7]1)([H:8])([H:9])[H:10]>>[C:1]([C:2](=[C:6]([H:16])[H:17])[O:7][H:14])([H:8])([H:9])[H:10].[C:3](=[C:4]([O:5][H:15])[H:13])([H:11])[H:12]"
C       -1.31760234      -1.40818065       0.42362463
C       -0.82213487      -0.08848059      -0.08980273
C        1.25132546      -0.28691594      -0.82779766
C        2.02967932       0.17912995       0.28557331
O        2.08830587       1.56252353       0.40993422
C       -1.66008855       0.94096112      -0.49369368
O       -0.60431826       0.84013826       0.94876897
H       -1.75142246      -1.97917789      -0.39651229
H       -0.49543404      -1.96552973       0.87921815
H       -2.07044717      -1.30454790       1.20784871
H        0.89829517       0.41580373      -1.57564074
H        1.56062305      -1.23451960      -1.25820143
H        3.04287464      -0.21230919       0.33494841
H        0.67975179       0.15214052       1.43785257
H        1.16655896       1.86498629       0.41333628
H       -2.69915521       0.70327271      -0.68747075
H       -1.29681137       1.82070537      -1.01198597
