14
Frame=0 idx=006932 GeodesicLength=0.0 rxn_smarts="[N:1]([c:2]1[c:3]([H:10])[c:4]([N:5]([H:11])[H:12])[c:6]([H:13])[n:7]1[H:14])([H:8])[H:9]>>[N:1]([C:2]1=[C:3]([H:10])[C@@:4]([N:5]([H:11])[H:12])([H:13])[C:6][N:7]1[H:14])([H:8])[H:9]"
N       -2.44198824      -0.40007174      -0.17575972
C       -1.09893891      -0.09313386      -0.02465148
C        0.00458069      -0.87257953      -0.00685892
C        1.13129130       0.05726487       0.03868871
N        2.42893532      -0.32310713       0.43547628
C        0.64919245       1.42421701       0.14003305
N       -0.70446006       1.23126054       0.03980348
H       -2.63861045      -1.38392845      -0.09230827
H       -3.05712637       0.14224052       0.41113590
H        0.04669223      -1.94979703      -0.01080941
H        3.02167375       0.48596308       0.55276627
H        2.85997970      -0.99416533      -0.18197711
H        1.13986669       0.68163414      -1.01699543
H       -1.34108809       1.99420292      -0.10854329
14
Frame=1 idx=006932 GeodesicLength=0.05028015112474788 rxn_smarts="[N:1]([c:2]1[c:3]([H:10])[c:4]([N:5]([H:11])[H:12])[c:6]([H:13])[n:7]1[H:14])([H:8])[H:9]>>[N:1]([C:2]1=[C:3]([H:10])[C@@:4]([N:5]([H:11])[H:12])([H:13])[C:6][N:7]1[H:14])([H:8])[H:9]"
N       -2.44566483      -0.39412478      -0.17074039
C       -1.10036672      -0.09142059      -0.02401492
C        0.00368558      -0.87020037      -0.00770599
C        1.13228786       0.05758088       0.03030618
N        2.42630808      -0.32307501       0.44195799
C        0.64807896       1.42257205       0.13131188
N       -0.70489745       1.23351548       0.03729484
H       -2.64138803      -1.38093003      -0.13104879
H       -3.05198427       0.11853514       0.45105064
H        0.04415604      -1.94754342       0.00357685
H        3.02434056       0.48413178       0.54416555
H        2.85526823      -1.00708554      -0.16271371
H        1.15155537       0.70189721      -1.02953228
H       -1.34137939       1.99614720      -0.11390784
14
Frame=2 idx=006932 GeodesicLength=0.10060353536999789 rxn_smarts="[N:1]([c:2]1[c:3]([H:10])[c:4]([N:5]([H:11])[H:12])[c:6]([H:13])[n:7]1[H:14])([H:8])[H:9]>>[N:1]([C:2]1=[C:3]([H:10])[C@@:4]([N:5]([H:11])[H:12])([H:13])[C:6][N:7]1[H:14])([H:8])[H:9]"
N       -2.44935057      -0.38849052      -0.16518531
C       -1.10177673      -0.08982101      -0.02377261
C        0.00278559      -0.86796411      -0.00877951
C        1.13325617       0.05775154       0.02167069
N        2.42350671      -0.32303550       0.44831843
C        0.64688762       1.42075673       0.12269119
N       -0.70536890       1.23564299       0.03465584
H       -2.64459765      -1.37622420      -0.16835064
H       -3.04600648       0.09352305       0.48968386
H        0.04155829      -1.94521754       0.01787115
H        3.02690220       0.48190124       0.53575863
H        2.85031360      -1.01969057      -0.14341522
H        1.16364396       0.72294770      -1.04179056
H       -1.34175380       1.99792018      -0.11935595
14
Frame=3 idx=006932 GeodesicLength=0.1509920497461559 rxn_smarts="[N:1]([c:2]1[c:3]([H:10])[c:4]([N:5]([H:11])[H:12])[c:6]([H:13])[n:7]1[H:14])([H:8])[H:9]>>[N:1]([C:2]1=[C:3]([H:10])[C@@:4]([N:5]([H:11])[H:12])([H:13])[C:6][N:7]1[H:14])([H:8])[H:9]"
N       -2.45307499      -0.38312782      -0.15899084
C       -1.10317854      -0.08831704      -0.02408927
C        0.00186996      -0.86585715      -0.01025752
C        1.13419183       0.05778588       0.01272741
N        2.42047711      -0.32299196       0.45462415
C        0.64561609       1.41878265       0.11411511
N       -0.70587465       1.23766068       0.03173187
H       -2.64830994      -1.36987306      -0.20439209
H       -3.03903236       0.06708922       0.52749504
H        0.03887011      -1.94279293       0.03211379
H        3.02932398       0.47926622       0.52762296
H        2.84509145      -1.03203226      -0.12394552
H        1.17624049       0.74486169      -1.05374395
H       -1.34221055       1.99954589      -0.12501112
14
Frame=4 idx=006932 GeodesicLength=0.2014626123808555 rxn_smarts="[N:1]([c:2]1[c:3]([H:10])[c:4]([N:5]([H:11])[H:12])[c:6]([H:13])[n:7]1[H:14])([H:8])[H:9]>>[N:1]([C:2]1=[C:3]([H:10])[C@@:4]([N:5]([H:11])[H:12])([H:13])[C:6][N:7]1[H:14])([H:8])[H:9]"
N       -2.45679510      -0.37799727      -0.15228564
C       -1.10456814      -0.08689690      -0.02472094
C        0.00094154      -0.86387021      -0.01194207
C        1.13510104       0.05768829       0.00347484
N        2.41725469      -0.32290526       0.46079844
C        0.64428705       1.41666332       0.10552760
N       -0.70640224       1.23957992       0.02865595
H       -2.65251565      -1.36187771      -0.23956403
H       -3.03112846       0.03915033       0.56433713
H        0.03609156      -1.94023429       0.04667562
H        3.03168340       0.47625798       0.51945355
H        2.83953856      -1.04419677      -0.10428932
H        1.18925325       0.76760346      -1.06538441
H       -1.34274149       2.00103508      -0.13073673
14
Frame=5 idx=006932 GeodesicLength=0.2520921565768123 rxn_smarts="[N:1]([c:2]1[c:3]([H:10])[c:4]([N:5]([H:11])[H:12])[c:6]([H:13])[n:7]1[H:14])([H:8])[H:9]>>[N:1]([C:2]1=[C:3]([H:10])[C@@:4]([N:5]([H:11])[H:12])([H:13])[C:6][N:7]1[H:14])([H:8])[H:9]"
N       -2.46057711      -0.37306766      -0.14495485
C       -1.10596252      -0.08555649      -0.02585042
C        0.00000660      -0.86202240      -0.01405045
C        1.13599351       0.05746615      -0.00614639
N        2.41382932      -0.32277291       0.46691474
C        0.64288647       1.41443697       0.09689828
N       -0.70697940       1.24143816       0.02530996
H       -2.65732468      -1.35221919      -0.27405843
H       -3.02212896       0.00953717       0.60063043
H        0.03322352      -1.93753982       0.06164149
H        3.03401095       0.47286976       0.51125760
H        2.83364452      -1.05629228      -0.08425447
H        1.20277190       0.79127879      -1.07668149
H       -1.34339411       2.00244373      -0.13665602
14
Frame=6 idx=006932 GeodesicLength=0.3028307997707232 rxn_smarts="[N:1]([c:2]1[c:3]([H:10])[c:4]([N:5]([H:11])[H:12])[c:6]([H:13])[n:7]1[H:14])([H:8])[H:9]>>[N:1]([C:2]1=[C:3]([H:10])[C@@:4]([N:5]([H:11])[H:12])([H:13])[C:6][N:7]1[H:14])([H:8])[H:9]"
N       -2.46450913      -0.36841176      -0.13595538
C       -1.10739058      -0.08427814      -0.02872755
C       -0.00101035      -0.86024630      -0.01790407
C        1.13680724       0.05716274      -0.01630905
N        2.40971914      -0.32270222       0.47350860
C        0.64133362       1.41204270       0.08819572
N       -0.70761623       1.24318784       0.02069216
H       -2.66321790      -1.34083741      -0.30669353
H       -3.01084892      -0.02213225       0.63818003
H        0.03012851      -1.93459638       0.07527122
H        3.03580182       0.46894717       0.50439408
H        2.82731794      -1.06812973      -0.06329483
H        1.21756710       0.81632800      -1.08736738
H       -1.34408226       2.00366574      -0.14399003
14
Frame=7 idx=006932 GeodesicLength=0.3536599815568963 rxn_smarts="[N:1]([c:2]1[c:3]([H:10])[c:4]([N:5]([H:11])[H:12])[c:6]([H:13])[n:7]1[H:14])([H:8])[H:9]>>[N:1]([C:2]1=[C:3]([H:10])[C@@:4]([N:5]([H:11])[H:12])([H:13])[C:6][N:7]1[H:14])([H:8])[H:9]"
N       -2.46815420      -0.36392354      -0.12743519
C       -1.10876628      -0.08309926      -0.03009165
C       -0.00197727      -0.85861024      -0.02035737
C        1.13763445       0.05668848      -0.02660337
N        2.40582737      -0.32240000       0.47936844
C        0.63982268       1.40951674       0.07939065
N       -0.70823075       1.24483719       0.01703576
H       -2.66921701      -1.32775039      -0.33952797
H       -2.99972770      -0.05507602       0.67245915
H        0.02712097      -1.93146255       0.09073471
H        3.03802678       0.46478518       0.49583656
H        2.82052271      -1.07999398      -0.04255826
H        1.23194862       0.84177328      -1.09777042
H       -1.34483035       2.00471511      -0.15048103
14
Frame=8 idx=006932 GeodesicLength=0.4046444824947372 rxn_smarts="[N:1]([c:2]1[c:3]([H:10])[c:4]([N:5]([H:11])[H:12])[c:6]([H:13])[n:7]1[H:14])([H:8])[H:9]>>[N:1]([C:2]1=[C:3]([H:10])[C@@:4]([N:5]([H:11])[H:12])([H:13])[C:6][N:7]1[H:14])([H:8])[H:9]"
N       -2.47186729      -0.35980937      -0.11716336
C       -1.11017216      -0.08206670      -0.03268791
C       -0.00298777      -0.85710485      -0.02447120
C        1.13841009       0.05612565      -0.03736926
N        2.40125257      -0.32220256       0.48573220
C        0.63815034       1.40683017       0.07055490
N       -0.70891660       1.24635181       0.01208699
H       -2.67640120      -1.31322926      -0.36948473
H       -2.98656202      -0.08943074       0.70737143
H        0.02405105      -1.92825388       0.10375556
H        3.03966640       0.46010692       0.48891811
H        2.81333493      -1.09148175      -0.02104584
H        1.24763290       0.86866737      -1.10732459
H       -1.34559126       2.00549719      -0.15887230
14
Frame=9 idx=006932 GeodesicLength=0.45578762254743055 rxn_smarts="[N:1]([c:2]1[c:3]([H:10])[c:4]([N:5]([H:11])[H:12])[c:6]([H:13])[n:7]1[H:14])([H:8])[H:9]>>[N:1]([C:2]1=[C:3]([H:10])[C@@:4]([N:5]([H:11])[H:12])([H:13])[C:6][N:7]1[H:14])([H:8])[H:9]"
N       -2.47549658      -0.35589388      -0.10635817
C       -1.11158711      -0.08112912      -0.03491028
C       -0.00399466      -0.85573028      -0.02849741
C        1.13919685       0.05543249      -0.04845872
N        2.39656625      -0.32185577       0.49188261
C        0.63646256       1.40403104       0.06153492
N       -0.70962903       1.24778374       0.00714319
H       -2.68427121      -1.29695112      -0.39877203
H       -2.97256995      -0.12545946       0.74085735
H        0.02099400      -1.92487411       0.11713044
H        3.04143536       0.45507641       0.48148563
H        2.80567367      -1.10292654       0.00087287
H        1.26364582       0.89641064      -1.11630610
H       -1.34642597       2.00608595      -0.16760431
14
Frame=10 idx=006932 GeodesicLength=0.5070908431918898 rxn_smarts="[N:1]([c:2]1[c:3]([H:10])[c:4]([N:5]([H:11])[H:12])[c:6]([H:13])[n:7]1[H:14])([H:8])[H:9]>>[N:1]([C:2]1=[C:3]([H:10])[C@@:4]([N:5]([H:11])[H:12])([H:13])[C:6][N:7]1[H:14])([H:8])[H:9]"
N       -2.47899691      -0.35224337      -0.09443845
C       -1.11299321      -0.08033275      -0.03721792
C       -0.00498971      -0.85449320      -0.03317241
C        1.13996468       0.05462638      -0.05994020
N        2.39147919      -0.32144895       0.49810515
C        0.63467029       1.40108556       0.05237051
N       -0.71039799       1.24908407       0.00167516
H       -2.69307071      -1.27898473      -0.42639212
H       -2.95722031      -0.16299783       0.77364769
H        0.01798536      -1.92138049       0.12957268
H        3.04299155       0.44961260       0.47439660
H        2.79748728      -1.11418540       0.02337750
H        1.28040001       0.92529208      -1.12446334
H       -1.34730952       2.00636602      -0.17752086
14
Frame=11 idx=006932 GeodesicLength=0.5585846061816633 rxn_smarts="[N:1]([c:2]1[c:3]([H:10])[c:4]([N:5]([H:11])[H:12])[c:6]([H:13])[n:7]1[H:14])([H:8])[H:9]>>[N:1]([C:2]1=[C:3]([H:10])[C@@:4]([N:5]([H:11])[H:12])([H:13])[C:6][N:7]1[H:14])([H:8])[H:9]"
N       -2.48233690      -0.34886254      -0.08177987
C       -1.11439439      -0.07967187      -0.03903857
C       -0.00597869      -0.85340407      -0.03789263
C        1.14073711       0.05369399      -0.07172409
N        2.38618377      -0.32092088       0.50419287
C        0.63284807       1.39802722       0.04299983
N       -0.71118671       1.25028623      -0.00396325
H       -2.70260874      -1.25942393      -0.45253953
H       -2.94108550      -0.20188280       0.80487905
H        0.01506263      -1.91784994       0.14152301
H        3.04455106       0.44376792       0.46711420
H        2.78878826      -1.12527998       0.04629012
H        1.29763739       0.95514462      -1.13181350
H       -1.34821737       2.00637603      -0.18824764
14
Frame=12 idx=006932 GeodesicLength=0.6101759904357078 rxn_smarts="[N:1]([c:2]1[c:3]([H:10])[c:4]([N:5]([H:11])[H:12])[c:6]([H:13])[n:7]1[H:14])([H:8])[H:9]>>[N:1]([C:2]1=[C:3]([H:10])[C@@:4]([N:5]([H:11])[H:12])([H:13])[C:6][N:7]1[H:14])([H:8])[H:9]"
N       -2.48552293      -0.34578379      -0.06803022
C       -1.11579021      -0.07918461      -0.04064696
C       -0.00695039      -0.85245704      -0.04312893
C        1.14151566       0.05264196      -0.08382163
N        2.38053971      -0.32034152       0.51032259
C        0.63094619       1.39480123       0.03344172
N       -0.71202548       1.25131895      -0.01014745
H       -2.71306537      -1.23842620      -0.47635524
H       -2.92392811      -0.24175668       0.83491793
H        0.01228408      -1.91436431       0.15197313
H        3.04591732       0.43750794       0.46029824
H        2.77961270      -1.13604426       0.06961700
H        1.31562669       0.98611876      -1.13807756
H       -1.34915985       2.00596956      -0.20036262
14
Frame=13 idx=006932 GeodesicLength=0.6618905933401733 rxn_smarts="[N:1]([c:2]1[c:3]([H:10])[c:4]([N:5]([H:11])[H:12])[c:6]([H:13])[n:7]1[H:14])([H:8])[H:9]>>[N:1]([C:2]1=[C:3]([H:10])[C@@:4]([N:5]([H:11])[H:12])([H:13])[C:6][N:7]1[H:14])([H:8])[H:9]"
N       -2.48850375      -0.34299273      -0.05334716
C       -1.11716489      -0.07888042      -0.04180801
C       -0.00789410      -0.85167648      -0.04864568
C        1.14230469       0.05145283      -0.09618247
N        2.37461984      -0.31972421       0.51639535
C        0.62897337       1.39142796       0.02366931
N       -0.71291069       1.25219627      -0.01675885
H       -2.72433201      -1.21611080      -0.49787700
H       -2.90600970      -0.28239156       0.86343216
H        0.00968995      -1.91101410       0.16112171
H        3.04712819       0.43086348       0.45384004
H        2.76999059      -1.14646157       0.09314841
H        1.33424913       1.01816564      -1.14319532
H       -1.35014062       2.00514570      -0.21379250
14
Frame=14 idx=006932 GeodesicLength=0.7136836109055948 rxn_smarts="[N:1]([c:2]1[c:3]([H:10])[c:4]([N:5]([H:11])[H:12])[c:6]([H:13])[n:7]1[H:14])([H:8])[H:9]>>[N:1]([C:2]1=[C:3]([H:10])[C@@:4]([N:5]([H:11])[H:12])([H:13])[C:6][N:7]1[H:14])([H:8])[H:9]"
N       -2.49125588      -0.34047173      -0.03788296
C       -1.11850526      -0.07876285      -0.04231025
C       -0.00881099      -0.85106084      -0.05420610
C        1.14310923       0.05011006      -0.10876209
N        2.36849304      -0.31905472       0.52229865
C        0.62695669       1.38788941       0.01363129
N       -0.71382393       1.25289629      -0.02368584
H       -2.73628075      -1.19254496      -0.51719437
H       -2.88765045      -0.32360872       0.89011993
H        0.00729226      -1.90782834       0.16921742
H        3.04822758       0.42387110       0.44758171
H        2.75996095      -1.15647995       0.11669474
H        1.35343113       1.05119937      -1.14709082
H       -1.35114363       2.00384588      -0.22841131
14
Frame=15 idx=006932 GeodesicLength=0.7655366204801415 rxn_smarts="[N:1]([c:2]1[c:3]([H:10])[c:4]([N:5]([H:11])[H:12])[c:6]([H:13])[n:7]1[H:14])([H:8])[H:9]>>[N:1]([C:2]1=[C:3]([H:10])[C@@:4]([N:5]([H:11])[H:12])([H:13])[C:6][N:7]1[H:14])([H:8])[H:9]"
N       -2.49376506      -0.33820679      -0.02170550
C       -1.11979889      -0.07883753      -0.04212115
C       -0.00969994      -0.85062155      -0.05974159
C        1.14392838       0.04859622      -0.12153569
N        2.36219263      -0.31836427       0.52797991
C        0.62489818       1.38417637       0.00329558
N       -0.71476416       1.25340721      -0.03093238
H       -2.74884329      -1.16784000      -0.53425852
H       -2.86900656      -0.36520030       0.91488676
H        0.00510161      -1.90485105       0.17636503
H        3.04920145       0.41655758       0.44156894
H        2.74958215      -1.16605702       0.14006536
H        1.37314729       1.08521100      -1.14964852
H       -1.35217379       2.00203012      -0.24421823
14
Frame=16 idx=006932 GeodesicLength=0.8174330944700965 rxn_smarts="[N:1]([c:2]1[c:3]([H:10])[c:4]([N:5]([H:11])[H:12])[c:6]([H:13])[n:7]1[H:14])([H:8])[H:9]>>[N:1]([C:2]1=[C:3]([H:10])[C@@:4]([N:5]([H:11])[H:12])([H:13])[C:6][N:7]1[H:14])([H:8])[H:9]"
N       -2.49602535      -0.33617299      -0.00500510
C       -1.12102808      -0.07909637      -0.04107597
C       -0.01056337      -0.85036753      -0.06498728
C        1.14476093       0.04688090      -0.13446896
N        2.35580891      -0.31764153       0.53331908
C        0.62282538       1.38028125      -0.00742168
N       -0.71571119       1.25372551      -0.03836702
H       -2.76185228      -1.14203668      -0.54931183
H       -2.85040935      -0.40705438       0.93748094
H        0.00311481      -1.90208859       0.18299446
H        3.05010147       0.40897273       0.43560102
H        2.73892355      -1.17517425       0.16307307
H        1.39328213       1.12009206      -1.15085257
H       -1.35322757       1.99967986      -0.26097816
