8
Frame=0 idx=001018 GeodesicLength=0.0 rxn_smarts="[N:1]#[C:2][C@@:3]1([H:6])[C:4]([H:7])([H:8])[O:5]1>>[C-:3]1=[O+:5][C:4]1([H:7])[H:8].[N:1]#[C:2][H:6]"
N        2.63303564       0.57674524       0.34954117
C        1.49082954       0.33493119       0.14695400
C        0.10667445      -0.00493136       0.50457503
C       -1.13354768      -0.47755457      -0.07957504
O       -0.95396186       0.77577615       0.64574831
H        0.91218252       0.36782355      -0.88604773
H       -1.35665006      -0.33745337      -1.13114931
H       -1.69856255      -1.23533684       0.44995358
8
Frame=1 idx=001018 GeodesicLength=0.08632749959134554 rxn_smarts="[N:1]#[C:2][C@@:3]1([H:6])[C:4]([H:7])([H:8])[O:5]1>>[C-:3]1=[O+:5][C:4]1([H:7])[H:8].[N:1]#[C:2][H:6]"
N        2.65958523       0.49842444       0.35765835
C        1.50648693       0.34937450       0.14463658
C        0.09277882       0.03807470       0.49389303
C       -1.13436808      -0.48424961      -0.07667551
O       -0.99294637       0.78339392       0.62951745
H        0.90131851       0.43748888      -0.88400870
H       -1.35934276      -0.37101290      -1.13102556
H       -1.67351228      -1.25149393       0.46600437
8
Frame=2 idx=001018 GeodesicLength=0.17243727811566711 rxn_smarts="[N:1]#[C:2][C@@:3]1([H:6])[C:4]([H:7])([H:8])[O:5]1>>[C-:3]1=[O+:5][C:4]1([H:7])[H:8].[N:1]#[C:2][H:6]"
N        2.67948088       0.41510503       0.36105451
C        1.52167154       0.36354520       0.14335533
C        0.07759894       0.08366567       0.48331656
C       -1.13333955      -0.49064898      -0.07355531
O       -1.03367337       0.79051537       0.61239335
H        0.89182910       0.51027678      -0.87853401
H       -1.35815939      -0.40568839      -1.13051740
H       -1.64540815      -1.26677068       0.48248698
8
Frame=3 idx=001018 GeodesicLength=0.25877486480116874 rxn_smarts="[N:1]#[C:2][C@@:3]1([H:6])[C:4]([H:7])([H:8])[O:5]1>>[C-:3]1=[O+:5][C:4]1([H:7])[H:8].[N:1]#[C:2][H:6]"
N        2.69179825       0.32878531       0.36053758
C        1.53659908       0.37644190       0.14255752
C        0.06133225       0.13115563       0.47238638
C       -1.13055072      -0.49664924      -0.07019822
O       -1.07538084       0.79678537       0.59455370
H        0.88425689       0.58514977      -0.86994752
H       -1.35353427      -0.44087858      -1.12944363
H       -1.61452065      -1.28079017       0.49955419
8
Frame=4 idx=001018 GeodesicLength=0.34524602953174627 rxn_smarts="[N:1]#[C:2][C@@:3]1([H:6])[C:4]([H:7])([H:8])[O:5]1>>[C-:3]1=[O+:5][C:4]1([H:7])[H:8].[N:1]#[C:2][H:6]"
N        2.69638345       0.24279416       0.35714759
C        1.55136221       0.38630161       0.14150889
C        0.04428207       0.17922551       0.46061632
C       -1.12631147      -0.50211813      -0.06663499
O       -1.11686574       0.80184883       0.57629195
H        0.87899706       0.66077244      -0.85845559
H       -1.34619558      -0.47579040      -1.12760175
H       -1.58165200      -1.29303403       0.51712759
8
Frame=5 idx=001018 GeodesicLength=0.43211788269552437 rxn_smarts="[N:1]#[C:2][C@@:3]1([H:6])[C:4]([H:7])([H:8])[O:5]1>>[C-:3]1=[O+:5][C:4]1([H:7])[H:8].[N:1]#[C:2][H:6]"
N        2.69419296       0.15880281       0.35068599
C        1.56585695       0.39337944       0.14058836
C        0.02654038       0.22683173       0.44793324
C       -1.12105787      -0.50705046      -0.06295966
O       -1.15755310       0.80553016       0.55771207
H        0.87638462       0.73589871      -0.84391020
H       -1.33661474      -0.51012177      -1.12509570
H       -1.54774921      -1.30327063       0.53504590
8
Frame=6 idx=001018 GeodesicLength=0.519205232875955 rxn_smarts="[N:1]#[C:2][C@@:3]1([H:6])[C:4]([H:7])([H:8])[O:5]1>>[C-:3]1=[O+:5][C:4]1([H:7])[H:8].[N:1]#[C:2][H:6]"
N        2.68620314       0.07810639       0.34150671
C        1.57999935       0.39781202       0.13977545
C        0.00826743       0.27309707       0.43411498
C       -1.11517512      -0.51147603      -0.05925285
O       -1.19684668       0.80779338       0.53887453
H        0.87643672       0.80971792      -0.82629831
H       -1.32539053      -0.54368022      -1.12192166
H       -1.51349430      -1.31137054       0.55320115
8
Frame=7 idx=001018 GeodesicLength=0.6067355567345414 rxn_smarts="[N:1]#[C:2][C@@:3]1([H:6])[C:4]([H:7])([H:8])[O:5]1>>[C-:3]1=[O+:5][C:4]1([H:7])[H:8].[N:1]#[C:2][H:6]"
N        2.67311571       0.00048615       0.32975746
C        1.59388098       0.40039916       0.13905763
C       -0.01041323       0.31763816       0.41899102
C       -1.10889784      -0.51556040      -0.05552415
O       -1.23456765       0.80871264       0.51954758
H        0.87901148       0.88248958      -0.80546089
H       -1.31279684      -0.57679965      -1.11810644
H       -1.47933261      -1.31736565       0.57173778
8
Frame=8 idx=001018 GeodesicLength=0.6946907822000307 rxn_smarts="[N:1]#[C:2][C@@:3]1([H:6])[C:4]([H:7])([H:8])[O:5]1>>[C-:3]1=[O+:5][C:4]1([H:7])[H:8].[N:1]#[C:2][H:6]"
N        2.65570649      -0.07375538       0.31580325
C        1.60757677       0.40102729       0.13799979
C       -0.02939955       0.36015614       0.40232605
C       -1.10244046      -0.51943598      -0.05179092
O       -1.27056993       0.80841009       0.49951400
H        0.88395167       0.95458499      -0.78101999
H       -1.29917559      -0.60975440      -1.11360795
H       -1.44564940      -1.32123276       0.59077578
8
Frame=9 idx=001018 GeodesicLength=0.7830091170777164 rxn_smarts="[N:1]#[C:2][C@@:3]1([H:6])[C:4]([H:7])([H:8])[O:5]1>>[C-:3]1=[O+:5][C:4]1([H:7])[H:8].[N:1]#[C:2][H:6]"
N        2.63484406      -0.14439904       0.29937070
C        1.62121780       0.40007953       0.13680630
C       -0.04864640       0.40039602       0.38401875
C       -1.09606136      -0.52318563      -0.04809951
O       -1.30482950       0.80708359       0.47847263
H        0.89112153       1.02576079      -0.75248405
H       -1.28478392      -0.64277025      -1.10843684
H       -1.41286221      -1.32296501       0.61035202
8
Frame=10 idx=001018 GeodesicLength=0.8716722711626818 rxn_smarts="[N:1]#[C:2][C@@:3]1([H:6])[C:4]([H:7])([H:8])[O:5]1>>[C-:3]1=[O+:5][C:4]1([H:7])[H:8].[N:1]#[C:2][H:6]"
N        2.61134889      -0.21143878       0.27967196
C        1.63483489       0.39739413       0.13544778
C       -0.06820215       0.43833410       0.36402044
C       -1.08987289      -0.52697574      -0.04442109
O       -1.33756003       0.80495420       0.45565434
H        0.90044172       1.09659297      -0.71863837
H       -1.26935251      -0.67655361      -1.10250815
H       -1.38163792      -1.32230727       0.63077310
8
Frame=11 idx=001018 GeodesicLength=0.9605796397033786 rxn_smarts="[N:1]#[C:2][C@@:3]1([H:6])[C:4]([H:7])([H:8])[O:5]1>>[C-:3]1=[O+:5][C:4]1([H:7])[H:8].[N:1]#[C:2][H:6]"
N        2.58603232      -0.27457234       0.25737915
C        1.64859063       0.39306770       0.13341349
C       -0.08797107       0.47398555       0.34185553
C       -1.08405087      -0.53080716      -0.04081607
O       -1.36879057       0.80210362       0.43109726
H        0.91169835       1.16658372      -0.67920673
H       -1.25363491      -0.71097568      -1.09572506
H       -1.35187388      -1.31938541       0.65200242
8
Frame=12 idx=001018 GeodesicLength=1.049694864904903 rxn_smarts="[N:1]#[C:2][C@@:3]1([H:6])[C:4]([H:7])([H:8])[O:5]1>>[C-:3]1=[O+:5][C:4]1([H:7])[H:8].[N:1]#[C:2][H:6]"
N        2.55895555      -0.33453793       0.23121799
C        1.66245241       0.38722013       0.13059387
C       -0.10807249       0.50762626       0.31711360
C       -1.07855292      -0.53481510      -0.03718191
O       -1.39883663       0.79879240       0.40360239
H        0.92485578       1.23663944      -0.63217784
H       -1.23697126      -0.74715738      -1.08778098
H       -1.32383045      -1.31376783       0.67461288
8
Frame=13 idx=001018 GeodesicLength=1.1390131653962503 rxn_smarts="[N:1]#[C:2][C@@:3]1([H:6])[C:4]([H:7])([H:8])[O:5]1>>[C-:3]1=[O+:5][C:4]1([H:7])[H:8].[N:1]#[C:2][H:6]"
N        2.53093540      -0.39100850       0.20091417
C        1.67656815       0.37989122       0.12673700
C       -0.12849829       0.53936683       0.28904523
C       -1.07349245      -0.53900070      -0.03355170
O       -1.42787934       0.79509727       0.37263286
H        0.93977499       1.30616859      -0.57619785
H       -1.21982519      -0.78535185      -1.07843263
H       -1.29758327      -1.30516286       0.69885291
8
Frame=14 idx=001018 GeodesicLength=1.2282125259445746 rxn_smarts="[N:1]#[C:2][C@@:3]1([H:6])[C:4]([H:7])([H:8])[O:5]1>>[C-:3]1=[O+:5][C:4]1([H:7])[H:8].[N:1]#[C:2][H:6]"
N        2.50249449      -0.44382810       0.16436499
C        1.69090585       0.37120371       0.12236404
C       -0.14932173       0.56939721       0.25678897
C       -1.06885161      -0.54336002      -0.02984530
O       -1.45611587       0.79121358       0.33659534
H        0.95626829       1.37459148      -0.50851791
H       -1.20177018      -0.82660459      -1.06709951
H       -1.27360924      -1.29261327       0.72534938
8
Frame=15 idx=001018 GeodesicLength=1.317394991847194 rxn_smarts="[N:1]#[C:2][C@@:3]1([H:6])[C:4]([H:7])([H:8])[O:5]1>>[C-:3]1=[O+:5][C:4]1([H:7])[H:8].[N:1]#[C:2][H:6]"
N        2.47414498      -0.49271954       0.12392317
C        1.70575352       0.36123360       0.11532782
C       -0.17033587       0.59803850       0.21820502
C       -1.06464163      -0.54763348      -0.02623719
O       -1.48344509       0.78695464       0.29618629
H        0.97353970       1.44053832      -0.42787289
H       -1.18449772      -0.87042376      -1.05345518
H       -1.25051789      -1.27598829       0.75392298
8
Frame=16 idx=001018 GeodesicLength=1.4059356997581514 rxn_smarts="[N:1]#[C:2][C@@:3]1([H:6])[C:4]([H:7])([H:8])[O:5]1>>[C-:3]1=[O+:5][C:4]1([H:7])[H:8].[N:1]#[C:2][H:6]"
N        2.44548669      -0.53763183       0.07635181
C        1.72111881       0.35066235       0.10680485
C       -0.19150679       0.62566402       0.17067724
C       -1.06051794      -0.55151069      -0.02262593
O       -1.50978030       0.78251487       0.24935069
H        0.99063910       1.50197270      -0.32969192
H       -1.16741920      -0.91837521      -1.03637346
H       -1.22802036      -1.25329621       0.78550673
