11
Frame=0 idx=000530 GeodesicLength=0.0 rxn_smarts="[O:1]=[C:2]1[C:3]([H:7])([H:8])[N:4]2[C:5]([H:9])([H:10])[C@@:6]12[H:11]>>[O:1]([C:2]1=[C:3]([H:8])[N:4]2[C:5]([H:9])([H:10])[C@@:6]12[H:11])[H:7]"
O       -1.93920125       0.79862358       0.97077251
C       -0.84926766       0.47240001       0.39226386
C       -0.89250974      -0.52456533      -0.61487629
N        0.44093521      -1.00422589      -0.09802874
C        1.37879466       0.04607127      -0.39815713
C        0.52376538       0.22323343       0.81430395
H       -2.14356888      -0.23498441       0.24677571
H       -1.03242297      -0.42748761      -1.68411505
H        1.20179309       0.68035377      -1.26102523
H        2.41370723      -0.20705640      -0.19443166
H        0.89797490       0.17763756       1.82651807
11
Frame=1 idx=000530 GeodesicLength=0.045552404641204025 rxn_smarts="[O:1]=[C:2]1[C:3]([H:7])([H:8])[N:4]2[C:5]([H:9])([H:10])[C@@:6]12[H:11]>>[O:1]([C:2]1=[C:3]([H:8])[N:4]2[C:5]([H:9])([H:10])[C@@:6]12[H:11])[H:7]"
O       -1.93847313       0.80140753       0.97022897
C       -0.84704612       0.48080947       0.39157238
C       -0.89087660      -0.52286715      -0.61107599
N        0.44216942      -1.00375552      -0.09831878
C        1.38037851       0.04773050      -0.39774120
C        0.52541892       0.22059725       0.81479355
H       -2.15399120      -0.23937958       0.24038849
H       -1.03585335      -0.43398686      -1.68049003
H        1.20288093       0.68287446      -1.25987123
H        2.41563815      -0.20578178      -0.19640947
H        0.89975447       0.17235168       1.82692331
11
Frame=2 idx=000530 GeodesicLength=0.09110355475608162 rxn_smarts="[O:1]=[C:2]1[C:3]([H:7])([H:8])[N:4]2[C:5]([H:9])([H:10])[C@@:6]12[H:11]>>[O:1]([C:2]1=[C:3]([H:8])[N:4]2[C:5]([H:9])([H:10])[C@@:6]12[H:11])[H:7]"
O       -1.93772175       0.80398877       0.96974439
C       -0.84472998       0.48935769       0.39090149
C       -0.88927422      -0.52104299      -0.60721225
N        0.44335832      -1.00325301      -0.09858689
C        1.38198158       0.04935775      -0.39732573
C        0.52709634       0.21803247       0.81525911
H       -2.16455781      -0.24392357       0.23377127
H       -1.03932016      -0.44041925      -1.67672204
H        1.20402895       0.68533474      -1.25874561
H        2.41756799      -0.20459121      -0.19837815
H        0.90157074       0.16715862       1.82729443
11
Frame=3 idx=000530 GeodesicLength=0.13664791046357921 rxn_smarts="[O:1]=[C:2]1[C:3]([H:7])([H:8])[N:4]2[C:5]([H:9])([H:10])[C@@:6]12[H:11]>>[O:1]([C:2]1=[C:3]([H:8])[N:4]2[C:5]([H:9])([H:10])[C@@:6]12[H:11])[H:7]"
O       -1.93694866       0.80636798       0.96930867
C       -0.84231799       0.49804610       0.39025522
C       -0.88770506      -0.51908850      -0.60328497
N        0.44449771      -1.00271777      -0.09883184
C        1.38360324       0.05095018      -0.39691155
C        0.52879833       0.21554039       0.81570108
H       -2.17526478      -0.24863518       0.22692910
H       -1.04282115      -0.44677001      -1.67280983
H        1.20523745       0.68773236      -1.25764917
H        2.41949527      -0.20349146      -0.20033852
H        0.90342564       0.16206592       1.82763181
11
Frame=4 idx=000530 GeodesicLength=0.18217963036180604 rxn_smarts="[O:1]=[C:2]1[C:3]([H:7])([H:8])[N:4]2[C:5]([H:9])([H:10])[C@@:6]12[H:11]>>[O:1]([C:2]1=[C:3]([H:8])[N:4]2[C:5]([H:9])([H:10])[C@@:6]12[H:11])[H:7]"
O       -1.93615530       0.80854846       0.96891036
C       -0.83980926       0.50687613       0.38963770
C       -0.88617197      -0.51699964      -0.59929440
N        0.44558346      -1.00214933      -0.09905288
C        1.38524294       0.05250519      -0.39649939
C        0.53052534       0.21312193       0.81612011
H       -2.18610673      -0.25353473       0.21986877
H       -1.04635461      -0.45302450      -1.66875274
H        1.20650666       0.69006547      -1.25658243
H        2.42141886      -0.20248874      -0.20229136
H        0.90532060       0.15707976       1.82793625
11
Frame=5 idx=000530 GeodesicLength=0.2277284190187457 rxn_smarts="[O:1]=[C:2]1[C:3]([H:7])([H:8])[N:4]2[C:5]([H:9])([H:10])[C@@:6]12[H:11]>>[O:1]([C:2]1=[C:3]([H:8])[N:4]2[C:5]([H:9])([H:10])[C@@:6]12[H:11])[H:7]"
O       -1.93534081       0.81053274       0.96854019
C       -0.83719873       0.51585279       0.38905341
C       -0.88467679      -0.51476822      -0.59523637
N        0.44660949      -1.00154455      -0.09924666
C        1.38689837       0.05401954      -0.39609043
C        0.53227970       0.21077923       0.81651739
H       -2.19708450      -0.25865027       0.21258751
H       -1.04991526      -0.45916690      -1.66454758
H        1.20783509       0.69233052      -1.25554704
H        2.42333410      -0.20159099      -0.20423902
H        0.90725933       0.15220611       1.82820859
11
Frame=6 idx=000530 GeodesicLength=0.2732491911724931 rxn_smarts="[O:1]=[C:2]1[C:3]([H:7])([H:8])[N:4]2[C:5]([H:9])([H:10])[C@@:6]12[H:11]>>[O:1]([C:2]1=[C:3]([H:8])[N:4]2[C:5]([H:9])([H:10])[C@@:6]12[H:11])[H:7]"
O       -1.93450576       0.81233722       0.96817503
C       -0.83448714       0.52497101       0.38850869
C       -0.88322202      -0.51240065      -0.59110932
N        0.44757837      -1.00090602      -0.09941542
C        1.38856923       0.05549642      -0.39568504
C        0.53406160       0.20850817       0.81689643
H       -2.20818980      -0.26398003       0.20509257
H       -1.05350904      -0.46520335      -1.66019055
H        1.20921930       0.69453831      -1.25453751
H        2.42524364      -0.20079358      -0.20618729
H        0.90924161       0.14743250       1.82845240
11
Frame=7 idx=000530 GeodesicLength=0.31876993213653926 rxn_smarts="[O:1]=[C:2]1[C:3]([H:7])([H:8])[N:4]2[C:5]([H:9])([H:10])[C@@:6]12[H:11]>>[O:1]([C:2]1=[C:3]([H:8])[N:4]2[C:5]([H:9])([H:10])[C@@:6]12[H:11])[H:7]"
O       -1.93365136       0.81397060       0.96779695
C       -0.83166957       0.53423875       0.38800457
C       -0.88181016      -0.50988533      -0.58691278
N        0.44848300      -1.00022881      -0.09955859
C        1.39025469       0.05693314      -0.39528323
C        0.53587224       0.20631185       0.81725716
H       -2.21941795      -0.26956689       0.19740112
H       -1.05713241      -0.47111289      -1.65568293
H        1.21066085       0.69668548      -1.25355475
H        2.42714313      -0.20010907      -0.20813589
H        0.91126754       0.14276317       1.82866838
11
Frame=8 idx=000530 GeodesicLength=0.36427547718620795 rxn_smarts="[O:1]=[C:2]1[C:3]([H:7])([H:8])[N:4]2[C:5]([H:9])([H:10])[C@@:6]12[H:11]>>[O:1]([C:2]1=[C:3]([H:8])[N:4]2[C:5]([H:9])([H:10])[C@@:6]12[H:11])[H:7]"
O       -1.93277718       0.81544781       0.96739657
C       -0.82874543       0.54365205       0.38754881
C       -0.88044284      -0.50722561      -0.58264294
N        0.44932448      -0.99951414      -0.09967699
C        1.39195413       0.05833164      -0.39488583
C        0.53771230       0.20418706       0.81760307
H       -2.23076502      -0.27541016       0.18950321
H       -1.06078924      -0.47690218      -1.65101828
H        1.21215537       0.69877636      -1.25259719
H        2.42903453      -0.19952994      -0.21008953
H        0.91333891       0.13818710       1.82885911
11
Frame=9 idx=000530 GeodesicLength=0.4097785605179088 rxn_smarts="[O:1]=[C:2]1[C:3]([H:7])([H:8])[N:4]2[C:5]([H:9])([H:10])[C@@:6]12[H:11]>>[O:1]([C:2]1=[C:3]([H:8])[N:4]2[C:5]([H:9])([H:10])[C@@:6]12[H:11])[H:7]"
O       -1.93188167       0.81677674       0.96695365
C       -0.82571036       0.55321866       0.38714421
C       -0.87912391      -0.50441172      -0.57829786
N        0.45009496      -0.99875875      -0.09976870
C        1.39366457       0.05968844      -0.39449312
C        0.53958286       0.20213532       0.81793520
H       -2.24222165      -0.28154862       0.18141215
H       -1.06447557      -0.48254996      -1.64619768
H        1.21370127       0.70080783      -1.25166543
H        2.43091247      -0.19906547      -0.21204833
H        0.91545704       0.13370754       1.82902591
11
Frame=10 idx=000530 GeodesicLength=0.4552710468778553 rxn_smarts="[O:1]=[C:2]1[C:3]([H:7])([H:8])[N:4]2[C:5]([H:9])([H:10])[C@@:6]12[H:11]>>[O:1]([C:2]1=[C:3]([H:8])[N:4]2[C:5]([H:9])([H:10])[C@@:6]12[H:11])[H:7]"
O       -1.93096485       0.81797995       0.96645223
C       -0.82256368       0.56293526       0.38679560
C       -0.87785444      -0.50144483      -0.57387730
N        0.45079533      -0.99796166      -0.09983725
C        1.39538618       0.06100737      -0.39410436
C        0.54148303       0.20015372       0.81825634
H       -2.25378219      -0.28799644       0.17313643
H       -1.06819416      -0.48805774      -1.64121935
H        1.21529772       0.70278535      -1.25075712
H        2.43277755      -0.19871473      -0.21401694
H        0.91761952       0.12931375       1.82917172
11
Frame=11 idx=000530 GeodesicLength=0.5007581116401905 rxn_smarts="[O:1]=[C:2]1[C:3]([H:7])([H:8])[N:4]2[C:5]([H:9])([H:10])[C@@:6]12[H:11]>>[O:1]([C:2]1=[C:3]([H:8])[N:4]2[C:5]([H:9])([H:10])[C@@:6]12[H:11])[H:7]"
O       -1.93002773       0.81908191       0.96586748
C       -0.81930200       0.57280511       0.38650596
C       -0.87663683      -0.49832119      -0.56937926
N        0.45142277      -0.99712061      -0.09988405
C        1.39711755       0.06229033      -0.39371913
C        0.54341317       0.19824073       0.81856920
H       -2.26543706      -0.29478306       0.16469014
H       -1.07194722      -0.49342147      -1.63608137
H        1.21694362       0.70471582      -1.24986850
H        2.43462775      -0.19848088      -0.21599947
H        0.91982598       0.12499331       1.82929899
11
Frame=12 idx=000530 GeodesicLength=0.5462437260334634 rxn_smarts="[O:1]=[C:2]1[C:3]([H:7])([H:8])[N:4]2[C:5]([H:9])([H:10])[C@@:6]12[H:11]>>[O:1]([C:2]1=[C:3]([H:8])[N:4]2[C:5]([H:9])([H:10])[C@@:6]12[H:11])[H:7]"
O       -1.92906989       0.82010555       0.96517689
C       -0.81592323       0.58282944       0.38628012
C       -0.87547289      -0.49503909      -0.56480218
N        0.45197620      -0.99623492      -0.09991118
C        1.39885734       0.06353780      -0.39333737
C        0.54537337       0.19639411       0.81887714
H       -2.27717859      -0.30193508       0.15608315
H       -1.07573960      -0.49863458      -1.63078252
H        1.21863743       0.70660485      -1.24899659
H        2.43646206      -0.19836586      -0.21799857
H        0.92207781       0.12073778       1.82941112
11
Frame=13 idx=000530 GeodesicLength=0.591732769150515 rxn_smarts="[O:1]=[C:2]1[C:3]([H:7])([H:8])[N:4]2[C:5]([H:9])([H:10])[C@@:6]12[H:11]>>[O:1]([C:2]1=[C:3]([H:8])[N:4]2[C:5]([H:9])([H:10])[C@@:6]12[H:11])[H:7]"
O       -1.92808859       0.82107664       0.96436385
C       -0.81242279       0.59300783       0.38612113
C       -0.87436606      -0.49159655      -0.56014030
N        0.45245137      -0.99530131      -0.09991925
C        1.40060339       0.06475136      -0.39295906
C        0.54736357       0.19461169       0.81918026
H       -2.28899579      -0.30947594       0.14731673
H       -1.07957063      -0.50369712      -1.62531513
H        1.22037643       0.70845859      -1.24813472
H        2.43827679      -0.19836824      -0.22001950
H        0.92437232       0.11653305       1.82950600
11
Frame=14 idx=000530 GeodesicLength=0.6372090982837272 rxn_smarts="[O:1]=[C:2]1[C:3]([H:7])([H:8])[N:4]2[C:5]([H:9])([H:10])[C@@:6]12[H:11]>>[O:1]([C:2]1=[C:3]([H:8])[N:4]2[C:5]([H:9])([H:10])[C@@:6]12[H:11])[H:7]"
O       -1.92708021       0.82201173       0.96340752
C       -0.80879862       0.60334157       0.38603216
C       -0.87331664      -0.48798979      -0.55539725
N        0.45284401      -0.99432064      -0.09990903
C        1.40235348       0.06592795      -0.39258564
C        0.54938315       0.19289266       0.81947945
H       -2.30087424      -0.31743441       0.13841304
H       -1.08344224      -0.50859242      -1.61968440
H        1.22215742       0.71027721      -1.24728432
H        2.44006915      -0.19848964      -0.22205794
H        0.92670473       0.11237578       1.82958641
11
Frame=15 idx=000530 GeodesicLength=0.6826933953577559 rxn_smarts="[O:1]=[C:2]1[C:3]([H:7])([H:8])[N:4]2[C:5]([H:9])([H:10])[C@@:6]12[H:11]>>[O:1]([C:2]1=[C:3]([H:8])[N:4]2[C:5]([H:9])([H:10])[C@@:6]12[H:11])[H:7]"
O       -1.92604543       0.82293179       0.96230753
C       -0.80505049       0.61382664       0.38602416
C       -0.87232748      -0.48421908      -0.55056806
N        0.45315468      -0.99329258      -0.09987969
C        1.40410658       0.06706878      -0.39221712
C        0.55143452       0.19123491       0.81977968
H       -2.31281558      -0.32582097       0.12934944
H       -1.08735431      -0.51332522      -1.61388646
H        1.22397447       0.71206422      -1.24644270
H        2.44184053      -0.19872941      -0.22412325
H        0.92908251       0.10826091       1.82965646
11
Frame=16 idx=000530 GeodesicLength=0.7281707810747279 rxn_smarts="[O:1]=[C:2]1[C:3]([H:7])([H:8])[N:4]2[C:5]([H:9])([H:10])[C@@:6]12[H:11]>>[O:1]([C:2]1=[C:3]([H:8])[N:4]2[C:5]([H:9])([H:10])[C@@:6]12[H:11])[H:7]"
O       -1.92498638       0.82387670       0.96102445
C       -0.80117590       0.62446666       0.38609386
C       -0.87140134      -0.48027632      -0.54565932
N        0.45337508      -0.99221476      -0.09983738
C        1.40586048       0.06817139      -0.39185238
C        0.55351227       0.18963444       0.82007941
H       -2.32478752      -0.33469768       0.12018183
H       -1.09130747      -0.51786574      -1.60792845
H        1.22583159       0.71382075      -1.24560610
H        2.44358574      -0.19909346      -0.22621089
H        0.93149343       0.10417803       1.82971496
