16
Frame=0 idx=003951 GeodesicLength=0.0 rxn_smarts="[C:1]([C:2]#[C:3][C:4]([C:5]([H:11])([H:12])[H:13])([C:6]([H:14])([H:15])[H:16])[H:10])([H:7])([H:8])[H:9]>>[C:1]([C:2](=[C:3]=[C:4]([C:6]([H:14])([H:15])[H:16])[H:10])[C:5]([H:11])([H:12])[H:13])([H:7])([H:8])[H:9]"
C        2.61704711       0.37508199      -0.64273674
C        1.29383953       0.08172775      -0.09709787
C        0.38354766      -0.06168637       0.72650163
C       -0.88274415      -0.39142109       1.09579760
C       -0.65353230      -0.81006812      -1.47910354
C       -1.94107219       0.62972649       1.38530962
H        3.29870215       0.68204931       0.15457866
H        3.03698561      -0.50425330      -1.13235002
H        2.56489577       1.17805983      -1.37873240
H       -1.04886397      -1.39313382       1.48187933
H       -0.78442356       0.21131561      -1.19980427
H       -1.05536260      -1.12177447      -2.44211746
H       -0.18084605      -1.55536303      -0.87992275
H       -1.77734432       1.54250658       0.81162029
H       -2.93090607       0.23830046       1.14926793
H       -1.93992267       0.89893219       2.44691006
16
Frame=1 idx=003951 GeodesicLength=0.05701406674140402 rxn_smarts="[C:1]([C:2]#[C:3][C:4]([C:5]([H:11])([H:12])[H:13])([C:6]([H:14])([H:15])[H:16])[H:10])([H:7])([H:8])[H:9]>>[C:1]([C:2](=[C:3]=[C:4]([C:6]([H:14])([H:15])[H:16])[H:10])[C:5]([H:11])([H:12])[H:13])([H:7])([H:8])[H:9]"
C        2.61350514       0.38140200      -0.63912314
C        1.28874697       0.06192337      -0.10951788
C        0.38505207      -0.06915620       0.72514447
C       -0.88814623      -0.39561813       1.07999529
C       -0.64781166      -0.81427942      -1.46657035
C       -1.93447686       0.63485524       1.38436643
H        3.28704630       0.67791856       0.16875325
H        3.04432972      -0.48389071      -1.14436873
H        2.55910929       1.19900586      -1.35885580
H       -1.05331104      -1.39066883       1.48410316
H       -0.78444377       0.21880166      -1.23040452
H       -1.05602426      -1.13507887      -2.42460979
H       -0.19452186      -1.58597337      -0.88351580
H       -1.76513223       1.55048696       0.81688736
H       -2.92907132       0.25422236       1.15000366
H       -1.92485025       0.89604952       2.44771240
16
Frame=2 idx=003951 GeodesicLength=0.11400497625953962 rxn_smarts="[C:1]([C:2]#[C:3][C:4]([C:5]([H:11])([H:12])[H:13])([C:6]([H:14])([H:15])[H:16])[H:10])([H:7])([H:8])[H:9]>>[C:1]([C:2](=[C:3]=[C:4]([C:6]([H:14])([H:15])[H:16])[H:10])[C:5]([H:11])([H:12])[H:13])([H:7])([H:8])[H:9]"
C        2.60927968       0.38734064      -0.63571096
C        1.28411921       0.04254931      -0.12029610
C        0.38695785      -0.07656316       0.72498235
C       -0.89305999      -0.39971445       1.06517776
C       -0.64149566      -0.81766651      -1.45346730
C       -1.92788632       0.63963233       1.38309387
H        3.27591957       0.67382330       0.18127150
H        3.05022295      -0.46392256      -1.15617800
H        2.55140213       1.21860759      -1.33953529
H       -1.05758971      -1.38812881       1.48634252
H       -0.78314780       0.22546117      -1.26103780
H       -1.05582204      -1.14667761      -2.40686107
H       -0.20851589      -1.61516953      -0.88721519
H       -1.75275832       1.55786263       0.82160261
H       -2.92683299       0.26941791       1.14983144
H       -1.91079266       0.89314776       2.44799966
16
Frame=3 idx=003951 GeodesicLength=0.17099705494079462 rxn_smarts="[C:1]([C:2]#[C:3][C:4]([C:5]([H:11])([H:12])[H:13])([C:6]([H:14])([H:15])[H:16])[H:10])([H:7])([H:8])[H:9]>>[C:1]([C:2](=[C:3]=[C:4]([C:6]([H:14])([H:15])[H:16])[H:10])[C:5]([H:11])([H:12])[H:13])([H:7])([H:8])[H:9]"
C        2.60448341       0.39296446      -0.63245822
C        1.27984588       0.02379262      -0.12969015
C        0.38922889      -0.08378135       0.72585858
C       -0.89745921      -0.40365482       1.05132190
C       -0.63473403      -0.82040517      -1.43985522
C       -1.92133092       0.64410008       1.38151918
H        3.26547508       0.66917083       0.19243305
H        3.05447890      -0.44417366      -1.16821840
H        2.54229605       1.23737666      -1.32027894
H       -1.06159591      -1.38546712       1.48867141
H       -0.78073048       0.23108189      -1.29176862
H       -1.05482461      -1.15692178      -2.38894020
H       -0.22285389      -1.64294534      -0.89100390
H       -1.74038829       1.56464810       0.82569689
H       -2.92423535       0.28384289       1.14891621
H       -1.89765554       0.89037171       2.44779641
16
Frame=4 idx=003951 GeodesicLength=0.2280117783915059 rxn_smarts="[C:1]([C:2]#[C:3][C:4]([C:5]([H:11])([H:12])[H:13])([C:6]([H:14])([H:15])[H:16])[H:10])([H:7])([H:8])[H:9]>>[C:1]([C:2](=[C:3]=[C:4]([C:6]([H:14])([H:15])[H:16])[H:10])[C:5]([H:11])([H:12])[H:13])([H:7])([H:8])[H:9]"
C        2.59916841       0.39831447      -0.62931265
C        1.27588859       0.00552960      -0.13784867
C        0.39184455      -0.09093803       0.72767029
C       -0.90136470      -0.40749985       1.03837005
C       -0.62767673      -0.82251321      -1.42585971
C       -1.91474289       0.64828732       1.37972527
H        3.25550239       0.66449889       0.20237568
H        3.05746997      -0.42470221      -1.18003693
H        2.53184828       1.25509499      -1.30135373
H       -1.06541228      -1.38277450       1.49101911
H       -0.77725067       0.23561351      -1.32261198
H       -1.05312268      -1.16583473      -2.37102187
H       -0.23769861      -1.66928896      -0.89500028
H       -1.72793457       1.57089036       0.82927798
H       -2.92126562       0.29761182       1.14739620
H       -1.88525342       0.88771052       2.44721124
16
Frame=5 idx=003951 GeodesicLength=0.28503461526507695 rxn_smarts="[C:1]([C:2]#[C:3][C:4]([C:5]([H:11])([H:12])[H:13])([C:6]([H:14])([H:15])[H:16])[H:10])([H:7])([H:8])[H:9]>>[C:1]([C:2](=[C:3]=[C:4]([C:6]([H:14])([H:15])[H:16])[H:10])[C:5]([H:11])([H:12])[H:13])([H:7])([H:8])[H:9]"
C        2.59346697       0.40343629      -0.62624974
C        1.27212051      -0.01193121      -0.14503331
C        0.39475598      -0.09779662       0.73025183
C       -0.90475589      -0.41115993       1.02629801
C       -0.62044304      -0.82416748      -1.41151343
C       -1.90821076       0.65222537       1.37772399
H        3.24627735       0.65890399       0.21136078
H        3.05884406      -0.40530734      -1.19228609
H        2.52071804       1.27240092      -1.28208717
H       -1.06886123      -1.37994993       1.49350920
H       -0.77295446       0.23883037      -1.35364424
H       -1.05074265      -1.17382597      -2.35312621
H       -0.25297311      -1.69418443      -0.89912875
H       -1.71567096       1.57660018       0.83224719
H       -2.91801384       0.31060916       1.14542847
H       -1.87355699       0.88531662       2.44624947
16
Frame=6 idx=003951 GeodesicLength=0.34207623081822297 rxn_smarts="[C:1]([C:2]#[C:3][C:4]([C:5]([H:11])([H:12])[H:13])([C:6]([H:14])([H:15])[H:16])[H:10])([H:7])([H:8])[H:9]>>[C:1]([C:2](=[C:3]=[C:4]([C:6]([H:14])([H:15])[H:16])[H:10])[C:5]([H:11])([H:12])[H:13])([H:7])([H:8])[H:9]"
C        2.58738413       0.40836477      -0.62322086
C        1.26855359      -0.02889242      -0.15129927
C        0.39795012      -0.10462200       0.73354707
C       -0.90768882      -0.41474882       1.01502765
C       -0.61314997      -0.82530589      -1.39696301
C       -1.90161654       0.65593963       1.37561890
H        3.23740866       0.65346067       0.21943281
H        3.05922931      -0.38615943      -1.20412540
H        2.50865283       1.28874333      -1.26313372
H       -1.07213539      -1.37714524       1.49600431
H       -0.76779289       0.24077060      -1.38484301
H       -1.04776032      -1.18075892      -2.33546414
H       -0.26888679      -1.71762700      -0.90355754
H       -1.70336199       1.58184579       0.83480662
H       -2.91443487       0.32304730       1.14311606
H       -1.86235107       0.88308765       2.44505354
16
Frame=7 idx=003951 GeodesicLength=0.39912385813013396 rxn_smarts="[C:1]([C:2]#[C:3][C:4]([C:5]([H:11])([H:12])[H:13])([C:6]([H:14])([H:15])[H:16])[H:10])([H:7])([H:8])[H:9]>>[C:1]([C:2](=[C:3]=[C:4]([C:6]([H:14])([H:15])[H:16])[H:10])[C:5]([H:11])([H:12])[H:13])([H:7])([H:8])[H:9]"
C        2.58100391       0.41313184      -0.62020704
C        1.26511223      -0.04522437      -0.15681779
C        0.40138472      -0.11131123       0.73743618
C       -0.91017719      -0.41823059       1.00451217
C       -0.60588110      -0.82601088      -1.38226874
C       -1.89499914       0.65945685       1.37344216
H        3.22898298       0.64781197       0.22676058
H        3.05853645      -0.36717256      -1.21580108
H        2.49601289       1.30441104      -1.24421226
H       -1.07516620      -1.37432254       1.49855050
H       -0.76190848       0.24129955      -1.41624620
H       -1.04419959      -1.18687870      -2.31808429
H       -0.28540202      -1.73960594      -0.90825557
H       -1.69113668       1.58666016       0.83695256
H       -2.91058553       0.33490511       1.14057661
H       -1.85157726       0.88108027       2.44366221
16
Frame=8 idx=003951 GeodesicLength=0.45617275269253876 rxn_smarts="[C:1]([C:2]#[C:3][C:4]([C:5]([H:11])([H:12])[H:13])([C:6]([H:14])([H:15])[H:16])[H:10])([H:7])([H:8])[H:9]>>[C:1]([C:2](=[C:3]=[C:4]([C:6]([H:14])([H:15])[H:16])[H:10])[C:5]([H:11])([H:12])[H:13])([H:7])([H:8])[H:9]"
C        2.57434432       0.41774816      -0.61719244
C        1.26177879      -0.06100291      -0.16165638
C        0.40503065      -0.11792892       0.74185574
C       -0.91226199      -0.42163599       0.99468770
C       -0.59869327      -0.82627372      -1.36752315
C       -1.88832812       0.66278977       1.37126360
H        3.22083182       0.64237174       0.23341073
H        3.05702680      -0.34846410      -1.22697874
H        2.48279743       1.31921625      -1.22560701
H       -1.07801293      -1.37153406       1.50109051
H       -0.75530207       0.24041192      -1.44784085
H       -1.04008782      -1.19219278      -2.30110357
H       -0.30257545      -1.76009068      -0.91328113
H       -1.67894273       1.59109047       0.83880880
H       -2.90646883       0.34626661       1.13789739
H       -1.84113661       0.87922823       2.44216881
16
Frame=9 idx=003951 GeodesicLength=0.5134176436403353 rxn_smarts="[C:1]([C:2]#[C:3][C:4]([C:5]([H:11])([H:12])[H:13])([C:6]([H:14])([H:15])[H:16])[H:10])([H:7])([H:8])[H:9]>>[C:1]([C:2](=[C:3]=[C:4]([C:6]([H:14])([H:15])[H:16])[H:10])[C:5]([H:11])([H:12])[H:13])([H:7])([H:8])[H:9]"
C        2.56745979       0.42229741      -0.61416559
C        1.25847377      -0.07616168      -0.16598801
C        0.40882923      -0.12441655       0.74666195
C       -0.91400600      -0.42492224       0.98545673
C       -0.59160240      -0.82633558      -1.35275724
C       -1.88164611       0.66601424       1.36905025
H        3.21315630       0.63630168       0.23950980
H        3.05443886      -0.32959823      -1.23838096
H        2.46937646       1.33383971      -1.20653790
H       -1.08067422      -1.36869314       1.50367224
H       -0.74799187       0.23815511      -1.47967494
H       -1.03557531      -1.19718275      -2.28439616
H       -0.32024042      -1.77933929      -0.91841967
H       -1.66684570       1.59520408       0.84032558
H       -2.90216552       0.35720373       1.13511232
H       -1.83098687       0.87763350       2.44053161
16
Frame=10 idx=003951 GeodesicLength=0.5706433475146299 rxn_smarts="[C:1]([C:2]#[C:3][C:4]([C:5]([H:11])([H:12])[H:13])([C:6]([H:14])([H:15])[H:16])[H:10])([H:7])([H:8])[H:9]>>[C:1]([C:2](=[C:3]=[C:4]([C:6]([H:14])([H:15])[H:16])[H:10])[C:5]([H:11])([H:12])[H:13])([H:7])([H:8])[H:9]"
C        2.56035369       0.42675203      -0.61110521
C        1.25522707      -0.09083605      -0.16980245
C        0.41277586      -0.13087765       0.75185400
C       -0.91542573      -0.42814348       0.97679126
C       -0.58467448      -0.82603426      -1.33808577
C       -1.87489173       0.66910936       1.36691484
H        3.20564711       0.63059014       0.24509853
H        3.05123310      -0.31097598      -1.24919022
H        2.45552454       1.34766479      -1.18780593
H       -1.08322053      -1.36591021       1.50620062
H       -0.73998669       0.23437181      -1.51167958
H       -1.03059948      -1.20158566      -2.26821208
H       -0.33855600      -1.79710425      -0.92389833
H       -1.65475482       1.59903039       0.84168879
H       -2.89763454       0.36778399       1.13232902
H       -1.82101736       0.87616503       2.43890252
16
Frame=11 idx=003951 GeodesicLength=0.6278323311769018 rxn_smarts="[C:1]([C:2]#[C:3][C:4]([C:5]([H:11])([H:12])[H:13])([C:6]([H:14])([H:15])[H:16])[H:10])([H:7])([H:8])[H:9]>>[C:1]([C:2](=[C:3]=[C:4]([C:6]([H:14])([H:15])[H:16])[H:10])[C:5]([H:11])([H:12])[H:13])([H:7])([H:8])[H:9]"
C        2.55311333       0.43113730      -0.60799824
C        1.25196128      -0.10484397      -0.17325887
C        0.41682027      -0.13715854       0.75730700
C       -0.91654883      -0.43123912       0.96862683
C       -0.57794844      -0.82546388      -1.32356100
C       -1.86813159       0.67210267       1.36486770
H        3.19846911       0.62467958       0.25028989
H        3.04723781      -0.29244753      -1.25978569
H        2.44163378       1.36105971      -1.16897843
H       -1.08556754      -1.36311150       1.50871368
H       -0.73143316       0.22892650      -1.54386972
H       -1.02522104      -1.20568798      -2.25253060
H       -0.35738381      -1.81340578      -0.92963157
H       -1.64283428       1.60260965       0.84288085
H       -2.89295383       0.37797081       1.12963772
H       -1.81121307       0.87487206       2.43729046
16
Frame=12 idx=003951 GeodesicLength=0.6849955170103648 rxn_smarts="[C:1]([C:2]#[C:3][C:4]([C:5]([H:11])([H:12])[H:13])([C:6]([H:14])([H:15])[H:16])[H:10])([H:7])([H:8])[H:9]>>[C:1]([C:2](=[C:3]=[C:4]([C:6]([H:14])([H:15])[H:16])[H:10])[C:5]([H:11])([H:12])[H:13])([H:7])([H:8])[H:9]"
C        2.54569277       0.43547238      -0.60484195
C        1.24871262      -0.11841324      -0.17633220
C        0.42094305      -0.14343048       0.76300922
C       -0.91743909      -0.43426172       0.96088556
C       -0.57141145      -0.82461457      -1.30927011
C       -1.86129747       0.67502205       1.36296109
H        3.19138990       0.61914736       0.25511226
H        3.04274605      -0.27411354      -1.26980859
H        2.42745222       1.37379489      -1.15044045
H       -1.08786912      -1.36036936       1.51110151
H       -0.72219404       0.22186542      -1.57617136
H       -1.01949477      -1.20944664      -2.23742943
H       -0.37675400      -1.82825421      -0.93566268
H       -1.63090629       1.60600597       0.84405768
H       -2.88809445       0.38793838       1.12705468
H       -1.80147593       0.87365731       2.43577479
16
Frame=13 idx=003951 GeodesicLength=0.7420930861475944 rxn_smarts="[C:1]([C:2]#[C:3][C:4]([C:5]([H:11])([H:12])[H:13])([C:6]([H:14])([H:15])[H:16])[H:10])([H:7])([H:8])[H:9]>>[C:1]([C:2](=[C:3]=[C:4]([C:6]([H:14])([H:15])[H:16])[H:10])[C:5]([H:11])([H:12])[H:13])([H:7])([H:8])[H:9]"
C        2.53820125       0.43977171      -0.60162710
C        1.24540103      -0.13131604      -0.17918721
C        0.42509288      -0.14948437       0.76882875
C       -0.91811911      -0.43713133       0.95350299
C       -0.56509642      -0.82358487      -1.29525748
C       -1.85448187       0.67788331       1.36119694
H        3.18461396       0.61335579       0.25964779
H        3.03756502      -0.25581896      -1.27967196
H        2.41342668       1.38623325      -1.13171534
H       -1.09000716      -1.35758933       1.51340252
H       -0.71241823       0.21306181      -1.60858068
H       -1.01352351      -1.21313820      -2.22285845
H       -0.39648917      -1.84166183      -0.94188307
H       -1.61918462       1.60925196       0.84519101
H       -2.88314995       0.39760763       1.12465789
H       -1.79183079       0.87255948       2.43435340
16
Frame=14 idx=003951 GeodesicLength=0.7991519643402578 rxn_smarts="[C:1]([C:2]#[C:3][C:4]([C:5]([H:11])([H:12])[H:13])([C:6]([H:14])([H:15])[H:16])[H:10])([H:7])([H:8])[H:9]>>[C:1]([C:2](=[C:3]=[C:4]([C:6]([H:14])([H:15])[H:16])[H:10])[C:5]([H:11])([H:12])[H:13])([H:7])([H:8])[H:9]"
C        2.53058388       0.44404174      -0.59836004
C        1.24207187      -0.14377405      -0.18178420
C        0.42924980      -0.15547759       0.77475980
C       -0.91864981      -0.43989036       0.94639358
C       -0.55897035      -0.82233388      -1.28160842
C       -1.84761988       0.68070334       1.35962444
H        3.17789606       0.60792046       0.26391502
H        3.03199338      -0.23771737      -1.28898080
H        2.39927000       1.39810106      -1.11326181
H       -1.09213065      -1.35484433       1.51548429
H       -0.70194456       0.20261254      -1.64100342
H       -1.00739452      -1.21668953      -2.20886017
H       -0.41657315      -1.85365303      -0.94832220
H       -1.60749186       1.61240871       0.84645527
H       -2.87808498       0.40714319       1.12244704
H       -1.78220522       0.87144911       2.43310161
16
Frame=15 idx=003951 GeodesicLength=0.8561523646947248 rxn_smarts="[C:1]([C:2]#[C:3][C:4]([C:5]([H:11])([H:12])[H:13])([C:6]([H:14])([H:15])[H:16])[H:10])([H:7])([H:8])[H:9]>>[C:1]([C:2](=[C:3]=[C:4]([C:6]([H:14])([H:15])[H:16])[H:10])[C:5]([H:11])([H:12])[H:13])([H:7])([H:8])[H:9]"
C        2.52289660       0.44828482      -0.59504441
C        1.23869221      -0.15570775      -0.18421146
C        0.43337360      -0.16131150       0.78071565
C       -0.91906445      -0.44249478       0.93948433
C       -0.55303617      -0.82089868      -1.26837715
C       -1.84075833       0.68348938       1.35826009
H        3.17128152       0.60266121       0.26796224
H        3.02603049      -0.21979432      -1.29783572
H        2.38517342       1.40950711      -1.09497381
H       -1.09420566      -1.35209676       1.51731549
H       -0.69081436       0.19049625      -1.67338839
H       -1.00122962      -1.22022269      -2.19540031
H       -0.43685766      -1.86425284      -0.95491456
H       -1.59591913       1.61551522       0.84790082
H       -2.87295112       0.41653495       1.12046422
H       -1.77261133       0.87029037       2.43204297
16
Frame=16 idx=003951 GeodesicLength=0.9130645754683273 rxn_smarts="[C:1]([C:2]#[C:3][C:4]([C:5]([H:11])([H:12])[H:13])([C:6]([H:14])([H:15])[H:16])[H:10])([H:7])([H:8])[H:9]>>[C:1]([C:2](=[C:3]=[C:4]([C:6]([H:14])([H:15])[H:16])[H:10])[C:5]([H:11])([H:12])[H:13])([H:7])([H:8])[H:9]"
C        2.51530565       0.45249048      -0.59167662
C        1.23515846      -0.16676794      -0.18668268
C        0.43740840      -0.16666218       0.78652903
C       -0.91937099      -0.44483375       0.93270836
C       -0.54734019      -0.81933199      -1.25560372
C       -1.83404147       0.68622688       1.35709699
H        3.16505058       0.59683071       0.27183497
H        3.01950540      -0.20193604      -1.30661827
H        2.37172885       1.42077321      -1.07634826
H       -1.09603354      -1.34922797       1.51892994
H       -0.67926810       0.17663802      -1.70573100
H       -0.99521668      -1.22398806      -2.18236265
H       -0.45708161      -1.87350678      -0.96151456
H       -1.58479430       1.61858853       0.84948534
H       -2.86787665       0.42560617       1.11879242
H       -1.76313381       0.86910071       2.43116073
