13
Frame=0 idx=004547 GeodesicLength=0.0 rxn_smarts="[O:1]=[C:2]([C:3]([N:4]1[C:5]([H:10])([H:11])[C:6]1([H:12])[H:13])([H:8])[H:9])[H:7]>>[O:1](/[C:2](=[C:3](/[N:4]1[C:5]([H:10])([H:11])[C:6]1([H:12])[H:13])[H:8])[H:7])[H:9]"
O       -2.65236554       0.70498177       0.73833187
C       -1.87442734      -0.30043489       0.66933600
C       -0.53289006       0.14394877       0.65505352
N        0.51126051      -0.64136038       0.08450571
C        0.89909908      -0.32913742      -1.28112161
C        1.76743983       0.04091454      -0.14236767
H       -2.28396327      -1.30975642       0.61083894
H       -0.28512757       0.56234301       1.63422392
H       -1.53155691       1.27047345       0.51643582
H        0.36070514       0.47348220      -1.77551798
H        1.14670812      -1.18066901      -1.90357378
H        2.66207222      -0.52950276       0.07695670
H        1.81304573       1.09471708       0.11689855
13
Frame=1 idx=004547 GeodesicLength=0.03815044035210916 rxn_smarts="[O:1]=[C:2]([C:3]([N:4]1[C:5]([H:10])([H:11])[C:6]1([H:12])[H:13])([H:8])[H:9])[H:7]>>[O:1](/[C:2](=[C:3](/[N:4]1[C:5]([H:10])([H:11])[C:6]1([H:12])[H:13])[H:8])[H:7])[H:9]"
O       -2.64833669       0.70748831       0.72950562
C       -1.86985189      -0.29935375       0.66922381
C       -0.52755730       0.14519492       0.67248732
N        0.51631773      -0.63923941       0.09983764
C        0.88827729      -0.33958720      -1.27267971
C        1.76574414       0.04872733      -0.14686260
H       -2.27435054      -1.30494206       0.54715187
H       -0.28080520       0.54922591       1.65768391
H       -1.51768552       1.28342582       0.53305685
H        0.33888586       0.45348010      -1.77054875
H        1.13542966      -1.19606343      -1.88852930
H        2.66599236      -0.51401352       0.06959248
H        1.80794009       1.10565699       0.10008087
13
Frame=2 idx=004547 GeodesicLength=0.07638918110060666 rxn_smarts="[O:1]=[C:2]([C:3]([N:4]1[C:5]([H:10])([H:11])[C:6]1([H:12])[H:13])([H:8])[H:9])[H:7]>>[O:1](/[C:2](=[C:3](/[N:4]1[C:5]([H:10])([H:11])[C:6]1([H:12])[H:13])[H:8])[H:7])[H:9]"
O       -2.64405063       0.70984859       0.72004262
C       -1.86548248      -0.29868404       0.66838714
C       -0.52263217       0.14597867       0.68941291
N        0.52110926      -0.63720623       0.11457057
C        0.87764642      -0.34973245      -1.26430347
C        1.76356872       0.05628211      -0.15128684
H       -2.26267901      -1.29803402       0.48634775
H       -0.27706927       0.53535392       1.68052721
H       -1.50393345       1.29590885       0.54937501
H        0.31758997       0.43389435      -1.76529625
H        1.12458687      -1.21081018      -1.87373458
H        2.66923673      -0.49883497       0.06222843
H        1.80210904       1.11603540       0.08372951
13
Frame=3 idx=004547 GeodesicLength=0.11473911975118611 rxn_smarts="[O:1]=[C:2]([C:3]([N:4]1[C:5]([H:10])([H:11])[C:6]1([H:12])[H:13])([H:8])[H:9])[H:7]>>[O:1](/[C:2](=[C:3](/[N:4]1[C:5]([H:10])([H:11])[C:6]1([H:12])[H:13])[H:8])[H:7])[H:9]"
O       -2.63960104       0.71208123       0.71000500
C       -1.86136301      -0.29840788       0.66684398
C       -0.51812519       0.14632826       0.70576839
N        0.52563569      -0.63528855       0.12862495
C        0.86728620      -0.35948567      -1.25606269
C        1.76104614       0.06353511      -0.15560907
H       -2.24949329      -1.28952515       0.42892678
H       -0.27388460       0.52096246       1.70260461
H       -1.49038043       1.30796127       0.56518129
H        0.29690324       0.41490600      -1.75978940
H        1.11425856      -1.22480399      -1.85936106
H        2.67193475      -0.48410579       0.05489395
H        1.79578298       1.12584271       0.06797327
13
Frame=4 idx=004547 GeodesicLength=0.15341118503883416 rxn_smarts="[O:1]=[C:2]([C:3]([N:4]1[C:5]([H:10])([H:11])[C:6]1([H:12])[H:13])([H:8])[H:9])[H:7]>>[O:1](/[C:2](=[C:3](/[N:4]1[C:5]([H:10])([H:11])[C:6]1([H:12])[H:13])[H:8])[H:7])[H:9]"
O       -2.63504251       0.71435101       0.69949333
C       -1.85751069      -0.29841114       0.66457054
C       -0.51399372       0.14629986       0.72163818
N        0.52997795      -0.63348557       0.14208647
C        0.85716945      -0.36898052      -1.24795833
C        1.75825229       0.07058435      -0.15985870
H       -2.23503410      -1.27971228       0.37436604
H       -0.27117845       0.50595902       1.72408944
H       -1.47699517       1.31976100       0.58076389
H        0.27669988       0.39633692      -1.75412391
H        1.10441138      -1.23830766      -1.84533323
H        2.67426741      -0.46966582       0.04758504
H        1.78897628       1.13527084       0.05268123
13
Frame=5 idx=004547 GeodesicLength=0.19232246528354402 rxn_smarts="[O:1]=[C:2]([C:3]([N:4]1[C:5]([H:10])([H:11])[C:6]1([H:12])[H:13])([H:8])[H:9])[H:7]>>[O:1](/[C:2](=[C:3](/[N:4]1[C:5]([H:10])([H:11])[C:6]1([H:12])[H:13])[H:8])[H:7])[H:9]"
O       -2.63023004       0.71673024       0.68848476
C       -1.85383591      -0.29859436       0.66158095
C       -0.51019835       0.14591298       0.73707554
N        0.53413194      -0.63175264       0.15503925
C        0.84726493      -0.37826482      -1.23996029
C        1.75512467       0.07749073      -0.16406281
H       -2.21939058      -1.26874876       0.32237919
H       -0.26894925       0.49024017       1.74505149
H       -1.46363324       1.33132803       0.59627246
H        0.25696373       0.37805823      -1.74835332
H        1.09499396      -1.25138715      -1.83153135
H        2.67615403      -0.45537575       0.04030066
H        1.78160411       1.14436311       0.03772347
13
Frame=6 idx=004547 GeodesicLength=0.23156645092812014 rxn_smarts="[O:1]=[C:2]([C:3]([N:4]1[C:5]([H:10])([H:11])[C:6]1([H:12])[H:13])([H:8])[H:9])[H:7]>>[O:1](/[C:2](=[C:3](/[N:4]1[C:5]([H:10])([H:11])[C:6]1([H:12])[H:13])[H:8])[H:7])[H:9]"
O       -2.62512191       0.71932783       0.67713145
C       -1.85033858      -0.29889205       0.65793922
C       -0.50670009       0.14513048       0.75219071
N        0.53817511      -0.63010557       0.16757823
C        0.83755781      -0.38747915      -1.23203083
C        1.75168035       0.08435884      -0.16826284
H       -2.20282206      -1.25660751       0.27233256
H       -0.26714854       0.47370886       1.76560584
H       -1.45019675       1.34271002       0.61193159
H        0.23756708       0.35981809      -1.74251486
H        1.08605595      -1.26425126      -1.81782927
H        2.67771615      -0.44099283       0.03299708
H        1.77357548       1.15327423       0.02293112
13
Frame=7 idx=004547 GeodesicLength=0.27123307093768717 rxn_smarts="[O:1]=[C:2]([C:3]([N:4]1[C:5]([H:10])([H:11])[C:6]1([H:12])[H:13])([H:8])[H:9])[H:7]>>[O:1](/[C:2](=[C:3](/[N:4]1[C:5]([H:10])([H:11])[C:6]1([H:12])[H:13])[H:8])[H:7])[H:9]"
O       -2.61961778       0.72228709       0.66557936
C       -1.84700088      -0.29922434       0.65366704
C       -0.50345905       0.14389493       0.76711163
N        0.54218324      -0.62855221       0.17982008
C        0.82802332      -0.39680608      -1.22412648
C        1.74787784       0.09131678      -0.17250969
H       -2.18546514      -1.24311156       0.22349758
H       -0.26575195       0.45615403       1.78592623
H       -1.43653894       1.35394178       0.62805509
H        0.21837725       0.34127465      -1.73667691
H        1.07766706      -1.27714997      -1.80405870
H        2.67901730      -0.42619297       0.02563966
H        1.76468774       1.16216789       0.00807510
13
Frame=8 idx=004547 GeodesicLength=0.3112661233840586 rxn_smarts="[O:1]=[C:2]([C:3]([N:4]1[C:5]([H:10])([H:11])[C:6]1([H:12])[H:13])([H:8])[H:9])[H:7]>>[O:1](/[C:2](=[C:3](/[N:4]1[C:5]([H:10])([H:11])[C:6]1([H:12])[H:13])[H:8])[H:7])[H:9]"
O       -2.61366454       0.72561516       0.65348245
C       -1.84374243      -0.29953815       0.64871493
C       -0.50047726       0.14227961       0.78175463
N        0.54607656      -0.62704752       0.19172329
C        0.81864889      -0.40610707      -1.21626182
C        1.74368165       0.09830008      -0.17677867
H       -2.16720002      -1.22864932       0.17649502
H       -0.26480641       0.43759443       1.80589999
H       -1.42265736       1.36502521       0.64456384
H        0.19952390       0.32267193      -1.73083702
H        1.06968813      -1.28991100      -1.79025762
H        2.67990521      -0.41116399       0.01824091
H        1.75502368       1.17093064      -0.00673994
13
Frame=9 idx=004547 GeodesicLength=0.35167426337044383 rxn_smarts="[O:1]=[C:2]([C:3]([N:4]1[C:5]([H:10])([H:11])[C:6]1([H:12])[H:13])([H:8])[H:9])[H:7]>>[O:1](/[C:2](=[C:3](/[N:4]1[C:5]([H:10])([H:11])[C:6]1([H:12])[H:13])[H:8])[H:7])[H:9]"
O       -2.60733249       0.72928034       0.64122355
C       -1.84063459      -0.29985365       0.64324063
C       -0.49776629       0.14027118       0.79614647
N        0.54988893      -0.62560763       0.20329359
C        0.80948135      -0.41545124      -1.20843599
C        1.73917139       0.10532702      -0.18107636
H       -2.14835328      -1.21316149       0.13092692
H       -0.26425447       0.41821873       1.82545746
H       -1.40860243       1.37592190       0.66140060
H        0.18100130       0.30389657      -1.72499178
H        1.06224286      -1.30260979      -1.77643451
H        2.68051395      -0.39583369       0.01079944
H        1.74464378       1.17960173      -0.02155001
13
Frame=10 idx=004547 GeodesicLength=0.39246542421915614 rxn_smarts="[O:1]=[C:2]([C:3]([N:4]1[C:5]([H:10])([H:11])[C:6]1([H:12])[H:13])([H:8])[H:9])[H:7]>>[O:1](/[C:2](=[C:3](/[N:4]1[C:5]([H:10])([H:11])[C:6]1([H:12])[H:13])[H:8])[H:7])[H:9]"
O       -2.60057565       0.73336254       0.62836525
C       -1.83760670      -0.30010254       0.63720606
C       -0.49531383       0.13792853       0.81026265
N        0.55358739      -0.62421049       0.21451117
C        0.80049088      -0.42474148      -1.20069022
C        1.73432442       0.11235603      -0.18538054
H       -2.12881896      -1.19706026       0.08731673
H       -0.26412645       0.39800497       1.84460103
H       -1.39437001       1.38668259       0.67858489
H        0.16285266       0.28514528      -1.71918023
H        1.05520732      -1.31514328      -1.76267651
H        2.68076125      -0.38034593       0.00332380
H        1.73358769       1.18812404      -0.03624409
13
Frame=11 idx=004547 GeodesicLength=0.43361219284399183 rxn_smarts="[O:1]=[C:2]([C:3]([N:4]1[C:5]([H:10])([H:11])[C:6]1([H:12])[H:13])([H:8])[H:9])[H:7]>>[O:1](/[C:2](=[C:3](/[N:4]1[C:5]([H:10])([H:11])[C:6]1([H:12])[H:13])[H:8])[H:7])[H:9]"
O       -2.59339648       0.73782992       0.61521776
C       -1.83468061      -0.30030088       0.63072253
C       -0.49312269       0.13524182       0.82410800
N        0.55717806      -0.62286460       0.22539036
C        0.79170356      -0.43401946      -1.19301276
C        1.72916483       0.11939972      -0.18968619
H       -2.10881311      -1.18030074       0.04534867
H       -0.26437223       0.37708480       1.86325807
H       -1.37996697       1.39726912       0.69605117
H        0.14508710       0.26634118      -1.71341056
H        1.04866068      -1.32755249      -1.74895472
H        2.68068644      -0.36464712      -0.00416399
H        1.72187142       1.19651873      -0.05086834
13
Frame=12 idx=004547 GeodesicLength=0.47507979936039163 rxn_smarts="[O:1]=[C:2]([C:3]([N:4]1[C:5]([H:10])([H:11])[C:6]1([H:12])[H:13])([H:8])[H:9])[H:7]>>[O:1](/[C:2](=[C:3](/[N:4]1[C:5]([H:10])([H:11])[C:6]1([H:12])[H:13])[H:8])[H:7])[H:9]"
O       -2.58573029       0.74273182       0.60146975
C       -1.83182713      -0.30038761       0.62379740
C       -0.49119382       0.13225257       0.83767285
N        0.56062684      -0.62153502       0.23592461
C        0.78310344      -0.44321920      -1.18541312
C        1.72368386       0.12644011      -0.19400028
H       -2.08829966      -1.16317138       0.00534356
H       -0.26504040       0.35543295       1.88141435
H       -1.36536758       1.40768343       0.71383925
H        0.12775438       0.24759384      -1.70768302
H        1.04251434      -1.33975210      -1.73529753
H        2.68023163      -0.34880484      -0.01169081
H        1.70954438       1.20473543      -0.06537701
13
Frame=13 idx=004547 GeodesicLength=0.5168920986442543 rxn_smarts="[O:1]=[C:2]([C:3]([N:4]1[C:5]([H:10])([H:11])[C:6]1([H:12])[H:13])([H:8])[H:9])[H:7]>>[O:1](/[C:2](=[C:3](/[N:4]1[C:5]([H:10])([H:11])[C:6]1([H:12])[H:13])[H:8])[H:7])[H:9]"
O       -2.57763129       0.74805677       0.58729464
C       -1.82906452      -0.30037896       0.61651156
C       -0.48952411       0.12898398       0.85095697
N        0.56394991      -0.62023663       0.24611320
C        0.77470284      -0.45235004      -1.17791652
C        1.71792928       0.13346414      -0.19829788
H       -2.06743751      -1.14578030      -0.03283234
H       -0.26606452       0.33321207       1.89903301
H       -1.35063225       1.41794259       0.73187946
H        0.11084257       0.22892122      -1.70203325
H        1.03680230      -1.35176683      -1.72176108
H        2.67946092      -0.33285873      -0.01921278
H        1.69666637       1.21279074      -0.07973500
13
Frame=14 idx=004547 GeodesicLength=0.558957495581161 rxn_smarts="[O:1]=[C:2]([C:3]([N:4]1[C:5]([H:10])([H:11])[C:6]1([H:12])[H:13])([H:8])[H:9])[H:7]>>[O:1](/[C:2](=[C:3](/[N:4]1[C:5]([H:10])([H:11])[C:6]1([H:12])[H:13])[H:8])[H:7])[H:9]"
O       -2.56908245       0.75376393       0.57257731
C       -1.82637814      -0.30027389       0.60894237
C       -0.48811682       0.12548987       0.86392005
N        0.56710530      -0.61894652       0.25592965
C        0.76649466      -0.46131745      -1.17053973
C        1.71192609       0.14042145      -0.20255655
H       -2.04629367      -1.12842290      -0.06891825
H       -0.26743046       0.31056655       1.91602673
H       -1.33579257       1.42802904       0.75004078
H        0.09440423       0.21049113      -1.69644447
H        1.03146003      -1.36346301      -1.70841996
H        2.67833963      -0.31695013      -0.02671062
H        1.68336418       1.22061192      -0.09384732
13
Frame=15 idx=004547 GeodesicLength=0.6012206955765357 rxn_smarts="[O:1]=[C:2]([C:3]([N:4]1[C:5]([H:10])([H:11])[C:6]1([H:12])[H:13])([H:8])[H:9])[H:7]>>[O:1](/[C:2](=[C:3](/[N:4]1[C:5]([H:10])([H:11])[C:6]1([H:12])[H:13])[H:8])[H:7])[H:9]"
O       -2.56009052       0.75980965       0.55730763
C       -1.82376645      -0.30008446       0.60116800
C       -0.48697357       0.12181925       0.87654216
N        0.57006942      -0.61765330       0.26536421
C        0.75847507      -0.47006177      -1.16330106
C        1.70571075       0.14727656      -0.20675572
H       -2.02495447      -1.11133312      -0.10282303
H       -0.26911106       0.28765197       1.93234357
H       -1.32088876       1.43794494       0.76821531
H        0.07846589       0.19242183      -1.69091548
H        1.02644110      -1.37476641      -1.69534100
H        2.67686826      -0.30118946      -0.03416117
H        1.66975433       1.22816431      -0.10764341
13
Frame=16 idx=004547 GeodesicLength=0.6436367062788912 rxn_smarts="[O:1]=[C:2]([C:3]([N:4]1[C:5]([H:10])([H:11])[C:6]1([H:12])[H:13])([H:8])[H:9])[H:7]>>[O:1](/[C:2](=[C:3](/[N:4]1[C:5]([H:10])([H:11])[C:6]1([H:12])[H:13])[H:8])[H:7])[H:9]"
O       -2.55066436       0.76614763       0.54150964
C       -1.82122645      -0.29982625       0.59325473
C       -0.48609095       0.11801565       0.88881104
N        0.57282756      -0.61634810       0.27441686
C        0.75063633      -0.47853922      -1.15621439
C        1.69931713       0.15400362      -0.21087655
H       -2.00350572      -1.09470023      -0.13452921
H       -0.27107091       0.26460792       1.94795109
H       -1.30595339       1.44769708       0.78630844
H        0.06303573       0.17480267      -1.68544953
H        1.02170226      -1.38562587      -1.68257568
H        2.67505550      -0.28566330      -0.04153729
H        1.65593728       1.23542841      -0.12106916
