13
Frame=0 idx=007873 GeodesicLength=0.0 rxn_smarts="[N:1]([C:2](=[O:3])[C:4]([O:5]/[C:6](=[N:7]/[H:13])[H:12])([H:10])[H:11])([H:8])[H:9]>>[N:1]([C@@:2]1([N:7]([C:6](=[O:5])[H:12])[H:13])[O:3][C:4]1([H:10])[H:11])([H:8])[H:9]"
N       -1.13003037      -0.08026985      -1.30133931
C       -0.70324926       0.25896068       0.03319710
O       -1.65965557       0.69061451       0.81830275
C       -0.28464893      -0.76151848       0.99687631
O        1.58192629      -0.85560561       0.45603291
C        1.65860978       0.32100065       0.03453017
N        0.57972798       1.04944523      -0.14947227
H       -2.07511837      -0.43382062      -1.26160989
H       -0.52109856      -0.74151869      -1.76530581
H       -0.69649146      -1.76175177       0.92200291
H        0.01214937      -0.40702464       1.97016520
H        2.63753378       0.76169553      -0.17600779
H        0.60034529       1.95979304      -0.57737223
13
Frame=1 idx=007873 GeodesicLength=0.09176579917545437 rxn_smarts="[N:1]([C:2](=[O:3])[C:4]([O:5]/[C:6](=[N:7]/[H:13])[H:12])([H:10])[H:11])([H:8])[H:9]>>[N:1]([C@@:2]1([N:7]([C:6](=[O:5])[H:12])[H:13])[O:3][C:4]1([H:10])[H:11])([H:8])[H:9]"
N       -1.15004237      -0.07913645      -1.29332416
C       -0.71480880       0.25771477       0.03493325
O       -1.66508965       0.67304326       0.83442667
C       -0.28770213      -0.76147167       0.99697472
O        1.58696505      -0.84181254       0.48147633
C        1.66838456       0.32413635       0.03099736
N        0.59224230       1.04823998      -0.17756956
H       -2.09311651      -0.43724819      -1.25705188
H       -0.52842513      -0.71989045      -1.76868058
H       -0.68465893      -1.76677572       0.90656075
H       -0.00113614      -0.41944818       1.97807965
H        2.65118622       0.76810920      -0.15349616
H        0.62620153       1.95453964      -0.61332638
13
Frame=2 idx=007873 GeodesicLength=0.18351579880667407 rxn_smarts="[N:1]([C:2](=[O:3])[C:4]([O:5]/[C:6](=[N:7]/[H:13])[H:12])([H:10])[H:11])([H:8])[H:9]>>[N:1]([C@@:2]1([N:7]([C:6](=[O:5])[H:12])[H:13])[O:3][C:4]1([H:10])[H:11])([H:8])[H:9]"
N       -1.16984612      -0.07787480      -1.28498853
C       -0.72646752       0.25655925       0.03705493
O       -1.67050402       0.65508239       0.85071289
C       -0.29064724      -0.76158552       0.99704908
O        1.59184892      -0.82690895       0.50752078
C        1.67849126       0.32750221       0.02800918
N        0.60524170       1.04620522      -0.20661162
H       -2.11131008      -0.43948941      -1.25253346
H       -0.53675696      -0.69827667      -1.77169951
H       -0.67219773      -1.77162208       0.89056963
H       -0.01480076      -0.43307263       1.98613380
H        2.66411316       0.77556917      -0.13043673
H        0.65283541       1.94791182      -0.65078045
13
Frame=3 idx=007873 GeodesicLength=0.2754322503867257 rxn_smarts="[N:1]([C:2](=[O:3])[C:4]([O:5]/[C:6](=[N:7]/[H:13])[H:12])([H:10])[H:11])([H:8])[H:9]>>[N:1]([C@@:2]1([N:7]([C:6](=[O:5])[H:12])[H:13])[O:3][C:4]1([H:10])[H:11])([H:8])[H:9]"
N       -1.18931794      -0.07642402      -1.27642833
C       -0.73832729       0.25553298       0.03963484
O       -1.67619088       0.63664940       0.86713354
C       -0.29356668      -0.76184780       0.99721674
O        1.59658488      -0.81067625       0.53456368
C        1.68893213       0.33132126       0.02605388
N        0.61875925       1.04339199      -0.23625028
H       -2.12961846      -0.44060015      -1.24837737
H       -0.54574998      -0.67666656      -1.77437530
H       -0.65905480      -1.77627740       0.87398109
H       -0.02905682      -0.44797387       1.99454586
H        2.67634879       0.78358397      -0.10848001
H        0.68025779       1.93998646      -0.68921833
13
Frame=4 idx=007873 GeodesicLength=0.36673448679111914 rxn_smarts="[N:1]([C:2](=[O:3])[C:4]([O:5]/[C:6](=[N:7]/[H:13])[H:12])([H:10])[H:11])([H:8])[H:9]>>[N:1]([C@@:2]1([N:7]([C:6](=[O:5])[H:12])[H:13])[O:3][C:4]1([H:10])[H:11])([H:8])[H:9]"
N       -1.20794697      -0.07465130      -1.26748370
C       -0.75023329       0.25463467       0.04278490
O       -1.68216115       0.61743463       0.88350348
C       -0.29663147      -0.76229125       0.99749728
O        1.60082407      -0.79276306       0.56307110
C        1.69938706       0.33581338       0.02547244
N        0.63260326       1.03978918      -0.26634226
H       -2.14728689      -0.44042421      -1.24441409
H       -0.55489132      -0.65478534      -1.77628743
H       -0.64522334      -1.78071136       0.85680635
H       -0.04444494      -0.46436339       2.00310601
H        2.68789243       0.79144208      -0.08940329
H        0.70811254       1.93087597      -0.72831079
13
Frame=5 idx=007873 GeodesicLength=0.45810328959428925 rxn_smarts="[N:1]([C:2](=[O:3])[C:4]([O:5]/[C:6](=[N:7]/[H:13])[H:12])([H:10])[H:11])([H:8])[H:9]>>[N:1]([C@@:2]1([N:7]([C:6](=[O:5])[H:12])[H:13])[O:3][C:4]1([H:10])[H:11])([H:8])[H:9]"
N       -1.22625040      -0.07261385      -1.25835283
C       -0.76239629       0.25391577       0.04645129
O       -1.68858996       0.59765714       0.90000120
C       -0.29970458      -0.76286502       0.99790002
O        1.60483292      -0.77325608       0.59278940
C        1.71009168       0.34087013       0.02596146
N        0.64698123       1.03528262      -0.29702312
H       -2.16505913      -0.43904565      -1.24084964
H       -0.56460518      -0.63300123      -1.77779342
H       -0.63059142      -1.78489175       0.83898116
H       -0.06049850      -0.48214921       2.01192430
H        2.69915169       0.79964113      -0.07185553
H        0.73663793       1.92045600      -0.76813430
13
Frame=6 idx=007873 GeodesicLength=0.5495541702079949 rxn_smarts="[N:1]([C:2](=[O:3])[C:4]([O:5]/[C:6](=[N:7]/[H:13])[H:12])([H:10])[H:11])([H:8])[H:9]>>[N:1]([C@@:2]1([N:7]([C:6](=[O:5])[H:12])[H:13])[O:3][C:4]1([H:10])[H:11])([H:8])[H:9]"
N       -1.24426095      -0.07028626      -1.24891322
C       -0.77477741       0.25334908       0.05058277
O       -1.69523741       0.57716431       0.91659914
C       -0.30277610      -0.76353230       0.99836063
O        1.60833064      -0.75206186       0.62349231
C        1.72088737       0.34647408       0.02727912
N        0.66198215       1.02968014      -0.32851909
H       -2.18293318      -0.43644684      -1.23749307
H       -0.57501187      -0.61128781      -1.77875458
H       -0.61520910      -1.78863923       0.82047319
H       -0.07705068      -0.50140178       2.02082548
H        2.70998144       0.80855160      -0.05514067
H        0.76607510       1.90843687      -0.80879202
13
Frame=7 idx=007873 GeodesicLength=0.640750424187924 rxn_smarts="[N:1]([C:2](=[O:3])[C:4]([O:5]/[C:6](=[N:7]/[H:13])[H:12])([H:10])[H:11])([H:8])[H:9]>>[N:1]([C@@:2]1([N:7]([C:6](=[O:5])[H:12])[H:13])[O:3][C:4]1([H:10])[H:11])([H:8])[H:9]"
N       -1.26187247      -0.06749038      -1.23911437
C       -0.78730578       0.25296623       0.05530245
O       -1.70213794       0.55596818       0.93336733
C       -0.30585776      -0.76437688       0.99885152
O        1.61119858      -0.72886786       0.65540745
C        1.73171099       0.35264608       0.02936494
N        0.67762047       1.02277810      -0.36084807
H       -2.20073916      -0.43228475      -1.23415329
H       -0.58601810      -0.58962619      -1.77908114
H       -0.59878234      -1.79197041       0.80125566
H       -0.09436345      -0.52244785       2.02959814
H        2.72039917       0.81808524      -0.03924197
H        0.79614779       1.89462050      -0.85070867
13
Frame=8 idx=007873 GeodesicLength=0.7319327676879714 rxn_smarts="[N:1]([C:2](=[O:3])[C:4]([O:5]/[C:6](=[N:7]/[H:13])[H:12])([H:10])[H:11])([H:8])[H:9]>>[N:1]([C@@:2]1([N:7]([C:6](=[O:5])[H:12])[H:13])[O:3][C:4]1([H:10])[H:11])([H:8])[H:9]"
N       -1.27940270      -0.06421903      -1.22908501
C       -0.80011083       0.25283852       0.06058952
O       -1.70938103       0.53416546       0.95037704
C       -0.30885627      -0.76537047       0.99940567
O        1.61360898      -0.70365645       0.68856160
C        1.74270459       0.35935207       0.03219485
N        0.69397275       1.01443715      -0.39410205
H       -2.21891192      -0.42657026      -1.23102756
H       -0.59787302      -0.56817958      -1.77896517
H       -0.58123658      -1.79488052       0.78119526
H       -0.11209450      -0.54524828       2.03832579
H        2.73060512       0.82849831      -0.02362615
H        0.82697542       1.87883309      -0.89384381
13
Frame=9 idx=007873 GeodesicLength=0.8230890546921865 rxn_smarts="[N:1]([C:2](=[O:3])[C:4]([O:5]/[C:6](=[N:7]/[H:13])[H:12])([H:10])[H:11])([H:8])[H:9]>>[N:1]([C@@:2]1([N:7]([C:6](=[O:5])[H:12])[H:13])[O:3][C:4]1([H:10])[H:11])([H:8])[H:9]"
N       -1.29662046      -0.06040109      -1.21855565
C       -0.81311613       0.25288636       0.06646450
O       -1.71674330       0.51139486       0.96756563
C       -0.31189673      -0.76646338       0.99994287
O        1.61513987      -0.67620430       0.72271491
C        1.75362648       0.36664447       0.03559470
N        0.71106138       1.00445931      -0.42837482
H       -2.23709092      -0.41927776      -1.22779128
H       -0.61040095      -0.54672634      -1.77803457
H       -0.56275337      -1.79703236       0.76024367
H       -0.13028552      -0.56994617       2.04670792
H        2.74027814       0.84000363      -0.00822612
H        0.85880150       1.86066277      -0.93825176
13
Frame=10 idx=007873 GeodesicLength=0.9141087000201173 rxn_smarts="[N:1]([C:2](=[O:3])[C:4]([O:5]/[C:6](=[N:7]/[H:13])[H:12])([H:10])[H:11])([H:8])[H:9]>>[N:1]([C@@:2]1([N:7]([C:6](=[O:5])[H:12])[H:13])[O:3][C:4]1([H:10])[H:11])([H:8])[H:9]"
N       -1.31366023      -0.05584442      -1.20761268
C       -0.82631487       0.25319664       0.07303845
O       -1.72430289       0.48782471       0.98506559
C       -0.31485290      -0.76777535       1.00047717
O        1.61562476      -0.64615293       0.75802715
C        1.76450229       0.37446134       0.03947050
N        0.72913533       0.99245162      -0.46363493
H       -2.25550295      -0.40997661      -1.22448450
H       -0.62372317      -0.52545592      -1.77646115
H       -0.54289376      -1.79854222       0.73838934
H       -0.14884313      -0.59681051       2.05461624
H        2.74927734       0.85288046       0.00740547
H        0.89155418       1.83974319      -0.98429665
13
Frame=11 idx=007873 GeodesicLength=1.0050761997996454 rxn_smarts="[N:1]([C:2](=[O:3])[C:4]([O:5]/[C:6](=[N:7]/[H:13])[H:12])([H:10])[H:11])([H:8])[H:9]>>[N:1]([C@@:2]1([N:7]([C:6](=[O:5])[H:12])[H:13])[O:3][C:4]1([H:10])[H:11])([H:8])[H:9]"
N       -1.33065619      -0.05047790      -1.19636124
C       -0.83987310       0.25382627       0.08036755
O       -1.73226655       0.46336940       1.00294039
C       -0.31771418      -0.76927438       1.00108994
O        1.61518627      -0.61337211       0.79463168
C        1.77540965       0.38278007       0.04388802
N        0.74811787       0.97833146      -0.49979729
H       -2.27428802      -0.39868015      -1.22133618
H       -0.63781514      -0.50430371      -1.77434742
H       -0.52158253      -1.79931473       0.71552254
H       -0.16753389      -0.62581176       2.06213168
H        2.75778617       0.86706146       0.02312582
H        0.92522963       1.81586609      -1.03185549
13
Frame=12 idx=007873 GeodesicLength=1.095890976792481 rxn_smarts="[N:1]([C:2](=[O:3])[C:4]([O:5]/[C:6](=[N:7]/[H:13])[H:12])([H:10])[H:11])([H:8])[H:9]>>[N:1]([C@@:2]1([N:7]([C:6](=[O:5])[H:12])[H:13])[O:3][C:4]1([H:10])[H:11])([H:8])[H:9]"
N       -1.34713032      -0.04421452      -1.18455829
C       -0.85383301       0.25471667       0.08860276
O       -1.74077712       0.43743716       1.02105289
C       -0.32068512      -0.77088967       1.00183255
O        1.61332621      -0.57753575       0.83241458
C        1.78597961       0.39164367       0.04869717
N        0.76783761       0.96225677      -0.53643880
H       -2.29272953      -0.38550409      -1.21825582
H       -0.65201653      -0.48283407      -1.77122962
H       -0.49903040      -1.79896847       0.69176244
H       -0.18644453      -0.65699143       2.06900359
H        2.76562477       0.88201762       0.03782219
H        0.95987835       1.78886613      -1.08070565
13
Frame=13 idx=007873 GeodesicLength=1.1866253081179923 rxn_smarts="[N:1]([C:2](=[O:3])[C:4]([O:5]/[C:6](=[N:7]/[H:13])[H:12])([H:10])[H:11])([H:8])[H:9]>>[N:1]([C@@:2]1([N:7]([C:6](=[O:5])[H:12])[H:13])[O:3][C:4]1([H:10])[H:11])([H:8])[H:9]"
N       -1.36333575      -0.03687060      -1.17212607
C       -0.86806472       0.25584067       0.09775240
O       -1.74947705       0.41018587       1.03946847
C       -0.32362278      -0.77276990       1.00252027
O        1.60951761      -0.53826694       0.87090858
C        1.79623152       0.40096806       0.05370560
N        0.78882174       0.94333553      -0.57387572
H       -2.31123553      -0.36989687      -1.21497089
H       -0.66681189      -0.46136053      -1.76714591
H       -0.47495172      -1.79752492       0.66707003
H       -0.20517730      -0.69048743       2.07475964
H        2.77222524       0.89891750       0.05300943
H        0.99588062       1.75792955      -1.13107583
13
Frame=14 idx=007873 GeodesicLength=1.2772264519237309 rxn_smarts="[N:1]([C:2](=[O:3])[C:4]([O:5]/[C:6](=[N:7]/[H:13])[H:12])([H:10])[H:11])([H:8])[H:9]>>[N:1]([C@@:2]1([N:7]([C:6](=[O:5])[H:12])[H:13])[O:3][C:4]1([H:10])[H:11])([H:8])[H:9]"
N       -1.37919919      -0.02837882      -1.15924072
C       -0.88288253       0.25724330       0.10797932
O       -1.75891749       0.38128400       1.05821874
C       -0.32655140      -0.77485063       1.00337658
O        1.60386684      -0.49561721       0.90996555
C        1.80615503       0.41065550       0.05891419
N        0.81077597       0.92182520      -0.61161210
H       -2.32963455      -0.35198242      -1.21194791
H       -0.68172490      -0.43960489      -1.76218556
H       -0.44941754      -1.79481861       0.64163088
H       -0.22332202      -0.72601177       2.07960493
H        2.77781254       0.91720603       0.06794871
H        1.03303925       1.72305032      -1.18265261
13
Frame=15 idx=007873 GeodesicLength=1.3676837214452073 rxn_smarts="[N:1]([C:2](=[O:3])[C:4]([O:5]/[C:6](=[N:7]/[H:13])[H:12])([H:10])[H:11])([H:8])[H:9]>>[N:1]([C@@:2]1([N:7]([C:6](=[O:5])[H:12])[H:13])[O:3][C:4]1([H:10])[H:11])([H:8])[H:9]"
N       -1.39451971      -0.01868619      -1.14583890
C       -0.89839298       0.25886066       0.11939863
O       -1.76924952       0.35034866       1.07718964
C       -0.32952127      -0.77711137       1.00444766
O        1.59596261      -0.44962664       0.94892954
C        1.81554710       0.42067302       0.06418567
N        0.83369383       0.89768559      -0.64934852
H       -2.34762202      -0.33174614      -1.20925839
H       -0.69637696      -0.41739769      -1.75616249
H       -0.42264162      -1.79066236       0.61576207
H       -0.24047501      -0.76324513       2.08335203
H        2.78215962       0.93681070       0.08238293
H        1.07143593       1.68409689      -1.23503988
13
Frame=16 idx=007873 GeodesicLength=1.4579898513439942 rxn_smarts="[N:1]([C:2](=[O:3])[C:4]([O:5]/[C:6](=[N:7]/[H:13])[H:12])([H:10])[H:11])([H:8])[H:9]>>[N:1]([C@@:2]1([N:7]([C:6](=[O:5])[H:12])[H:13])[O:3][C:4]1([H:10])[H:11])([H:8])[H:9]"
N       -1.40913614      -0.00778795      -1.13192778
C       -0.91476946       0.26060988       0.13211783
O       -1.78071620       0.31698533       1.09623044
C       -0.33256786      -0.77950563       1.00581635
O        1.58556518      -0.40058720       0.98697617
C        1.82425771       0.43096190       0.06936362
N        0.85750960       0.87101121      -0.68673667
H       -2.36493175      -0.30925689      -1.20708439
H       -0.71036153      -0.39457948      -1.74895719
H       -0.39495095      -1.78492798       0.58988167
H       -0.25612658      -0.80163510       2.08594452
H        2.78514967       0.95756850       0.09606191
H        1.11107831       1.64114342      -1.28768650
