15
Frame=0 idx=008883 GeodesicLength=0.0 rxn_smarts="[C:1]([n:2]1[c:3]([H:11])[c:4]([H:12])[c:5]([N:6]([H:13])[H:14])[c:7]1[H:15])([H:8])([H:9])[H:10]>>[C:1]([N:2]1[C:3]([H:11])=[C-:4][C@@:5]([N:6]([H:13])[H:14])([H:12])[C+:7]1[H:15])([H:8])([H:9])[H:10]"
C        2.26361295       0.25360770       0.11166344
N        0.85540066      -0.08013974       0.00469644
C        0.35920106      -1.36157057       0.07331290
C       -1.02712577      -1.41284154      -0.01188665
C       -1.34451395       0.05354125      -0.01110712
N       -2.62130948       0.63858992      -0.26261905
C       -0.13667573       0.80335864      -0.04862395
H        2.84141955      -0.45711460      -0.47702681
H        2.43274839       1.25759072      -0.27137354
H        2.58689647       0.20318754       1.15135120
H        1.06797451      -2.17560532       0.14231566
H       -1.32058717      -0.44041953       1.07023230
H       -3.32186390      -0.08381637      -0.14560544
H       -2.67339870       0.93466918      -1.22805209
H        0.03822115       1.86696276      -0.09727733
15
Frame=1 idx=008883 GeodesicLength=0.057913353139108587 rxn_smarts="[C:1]([n:2]1[c:3]([H:11])[c:4]([H:12])[c:5]([N:6]([H:13])[H:14])[c:7]1[H:15])([H:8])([H:9])[H:10]>>[C:1]([N:2]1[C:3]([H:11])=[C-:4][C@@:5]([N:6]([H:13])[H:14])([H:12])[C+:7]1[H:15])([H:8])([H:9])[H:10]"
C        2.26465795       0.25531122       0.10389182
N        0.85596050      -0.07814613       0.00897467
C        0.35987661      -1.36150410       0.07349780
C       -1.02484085      -1.40866665      -0.00773721
C       -1.34599209       0.05418555      -0.00245903
N       -2.61897387       0.63947987      -0.27087448
C       -0.13767213       0.80438532      -0.03165986
H        2.83860522      -0.45899573      -0.48430124
H        2.43249830       1.25673292      -0.28656466
H        2.59532549       0.21011329       1.14157509
H        1.06814599      -2.17518171       0.15037480
H       -1.34120802      -0.46325418       1.08498158
H       -3.32395075      -0.07951102      -0.16151664
H       -2.65908450       0.93694694      -1.23639909
H        0.03665214       1.86810442      -0.08178355
15
Frame=2 idx=008883 GeodesicLength=0.11584292019377423 rxn_smarts="[C:1]([n:2]1[c:3]([H:11])[c:4]([H:12])[c:5]([N:6]([H:13])[H:14])[c:7]1[H:15])([H:8])([H:9])[H:10]>>[C:1]([N:2]1[C:3]([H:11])=[C-:4][C@@:5]([N:6]([H:13])[H:14])([H:12])[C+:7]1[H:15])([H:8])([H:9])[H:10]"
C        2.26560664       0.25710084       0.09584103
N        0.85652491      -0.07615392       0.01336611
C        0.36054559      -1.36141536       0.07417109
C       -1.02252977      -1.40448487      -0.00348776
C       -1.34744186       0.05483141       0.00625914
N       -2.61630585       0.64048842      -0.27917162
C       -0.13860579       0.80530371      -0.01449974
H        2.83562615      -0.46087544      -0.49177000
H        2.43187463       1.25584859      -0.30227558
H        2.60388541       0.21738307       1.13137276
H        1.06830266      -2.17466609       0.15897995
H       -1.36264030      -0.48695313       1.09912496
H       -3.32569947      -0.07500352      -0.17772578
H       -2.64426774       0.93942661      -1.24461642
H        0.03512479       1.86916970      -0.06556816
15
Frame=3 idx=008883 GeodesicLength=0.17378306514884326 rxn_smarts="[C:1]([n:2]1[c:3]([H:11])[c:4]([H:12])[c:5]([N:6]([H:13])[H:14])[c:7]1[H:15])([H:8])([H:9])[H:10]>>[C:1]([N:2]1[C:3]([H:11])=[C-:4][C@@:5]([N:6]([H:13])[H:14])([H:12])[C+:7]1[H:15])([H:8])([H:9])[H:10]"
C        2.26645030       0.25897441       0.08758316
N        0.85710464      -0.07416750       0.01776381
C        0.36121394      -1.36130969       0.07524741
C       -1.02019591      -1.40028920       0.00089616
C       -1.34885421       0.05548932       0.01504574
N       -2.61330700       0.64162729      -0.28743553
C       -0.13946235       0.80610946       0.00270477
H        2.83254697      -0.46275085      -0.49929325
H        2.43090215       1.25493489      -0.31840335
H        2.61244551       0.22499189       1.12084702
H        1.06845278      -2.17406388       0.16800666
H       -1.38482719      -0.51149950       1.11260758
H       -3.32710615      -0.07026601      -0.19406599
H       -2.62902854       0.94207047      -1.25263641
H        0.03366507       1.87014890      -0.04886777
15
Frame=4 idx=008883 GeodesicLength=0.2317226982489301 rxn_smarts="[C:1]([n:2]1[c:3]([H:11])[c:4]([H:12])[c:5]([N:6]([H:13])[H:14])[c:7]1[H:15])([H:8])([H:9])[H:10]>>[C:1]([N:2]1[C:3]([H:11])=[C-:4][C@@:5]([N:6]([H:13])[H:14])([H:12])[C+:7]1[H:15])([H:8])([H:9])[H:10]"
C        2.26718838       0.26092325       0.07927499
N        0.85771789      -0.07219154       0.02195929
C        0.36188820      -1.36119078       0.07652115
C       -1.01784668      -1.39606482       0.00544930
C       -1.35021460       0.05618033       0.02388648
N       -2.61000325       0.64290991      -0.29551958
C       -0.14021640       0.80680475       0.01965753
H        2.82950830      -0.46461850      -0.50659209
H        2.42967255       1.25398855      -0.33472463
H        2.62076144       0.23291007       1.11023045
H        1.06860066      -2.17338628       0.17719607
H       -1.40762149      -0.53683500       1.12538589
H       -3.32819174      -0.06526045      -0.21020086
H       -2.61355649       0.94479871      -1.26033731
H        0.03231324       1.87103178      -0.03218667
15
Frame=5 idx=008883 GeodesicLength=0.28965894280842774 rxn_smarts="[C:1]([n:2]1[c:3]([H:11])[c:4]([H:12])[c:5]([N:6]([H:13])[H:14])[c:7]1[H:15])([H:8])([H:9])[H:10]>>[C:1]([N:2]1[C:3]([H:11])=[C-:4][C@@:5]([N:6]([H:13])[H:14])([H:12])[C+:7]1[H:15])([H:8])([H:9])[H:10]"
C        2.26783023       0.26294002       0.07099119
N        0.85837265      -0.07022209       0.02585869
C        0.36256980      -1.36105552       0.07790064
C       -1.01548648      -1.39179990       0.01019851
C       -1.35151708       0.05692071       0.03278255
N       -2.60641745       0.64433798      -0.30335092
C       -0.14085330       0.80740354       0.03620638
H        2.82658151      -0.46648081      -0.51353926
H        2.42824895       1.25300311      -0.35113094
H        2.62872982       0.24111665       1.09963593
H        1.06874767      -2.17263507       0.18642596
H       -1.43096652      -0.56294246       1.13741875
H       -3.32897789      -0.05997625      -0.22596480
H       -2.59795415       0.94756362      -1.26766594
H        0.03109226       1.87182647      -0.01576673
15
Frame=6 idx=008883 GeodesicLength=0.34760940650344224 rxn_smarts="[C:1]([n:2]1[c:3]([H:11])[c:4]([H:12])[c:5]([N:6]([H:13])[H:14])[c:7]1[H:15])([H:8])([H:9])[H:10]>>[C:1]([N:2]1[C:3]([H:11])=[C-:4][C@@:5]([N:6]([H:13])[H:14])([H:12])[C+:7]1[H:15])([H:8])([H:9])[H:10]"
C        2.26839363       0.26501957       0.06279515
N        0.85907597      -0.06825091       0.02939386
C        0.36325489      -1.36090376       0.07931385
C       -1.01312463      -1.38748982       0.01516841
C       -1.35275932       0.05772684       0.04174205
N       -2.60257714       0.64590990      -0.31086710
C       -0.14135806       0.80793113       0.05222666
H        2.82383114      -0.46834461      -0.52003391
H        2.42670486       1.25197687      -0.36753609
H        2.63627778       0.24959665       1.08916493
H        1.06888916      -2.17181947       0.19558304
H       -1.45482769      -0.58981797       1.14867525
H       -3.32949561      -0.05441495      -0.24121982
H       -2.58231182       0.95032286      -1.27458673
H        0.03002685       1.87255766       0.00018045
15
Frame=7 idx=008883 GeodesicLength=0.4054911368666052 rxn_smarts="[C:1]([n:2]1[c:3]([H:11])[c:4]([H:12])[c:5]([N:6]([H:13])[H:14])[c:7]1[H:15])([H:8])([H:9])[H:10]>>[C:1]([N:2]1[C:3]([H:11])=[C-:4][C@@:5]([N:6]([H:13])[H:14])([H:12])[C+:7]1[H:15])([H:8])([H:9])[H:10]"
C        2.26888234       0.26714616       0.05469665
N        0.85982242      -0.06627580       0.03258312
C        0.36395305      -1.36070310       0.08077939
C       -1.01074177      -1.38308808       0.02038654
C       -1.35393607       0.05861581       0.05077623
N       -2.59849095       0.64762427      -0.31806943
C       -0.14173698       0.80838646       0.06769635
H        2.82125530      -0.47021150      -0.52605869
H        2.42504572       1.25087000      -0.38392268
H        2.64342185       0.25833284       1.07881034
H        1.06904248      -2.17090804       0.20463367
H       -1.47920824      -0.61746349       1.15906875
H       -3.32975115      -0.04854772      -0.25592252
H       -2.56666177       0.95301501      -1.28110340
H        0.02910377       1.87320716       0.01564569
15
Frame=8 idx=008883 GeodesicLength=0.4634423461777816 rxn_smarts="[C:1]([n:2]1[c:3]([H:11])[c:4]([H:12])[c:5]([N:6]([H:13])[H:14])[c:7]1[H:15])([H:8])([H:9])[H:10]>>[C:1]([N:2]1[C:3]([H:11])=[C-:4][C@@:5]([N:6]([H:13])[H:14])([H:12])[C+:7]1[H:15])([H:8])([H:9])[H:10]"
C        2.26927167       0.26936640       0.04620187
N        0.86057014      -0.06426770       0.03601498
C        0.36464617      -1.36047612       0.08296875
C       -1.00833510      -1.37866931       0.02584139
C       -1.35508814       0.05953768       0.06001865
N       -2.59403402       0.64946440      -0.32532955
C       -0.14203798       0.80879363       0.08350529
H        2.81843184      -0.47209855      -0.53243797
H        2.42293671       1.24970607      -0.40099795
H        2.65083696       0.26747080       1.06783976
H        1.06921106      -2.16988311       0.21442269
H       -1.50469579      -0.64622868       1.16846973
H       -3.32962559      -0.04247742      -0.27104830
H       -2.55036432       0.95591478      -1.28751275
H        0.02827639       1.87384711       0.03204343
15
Frame=9 idx=008883 GeodesicLength=0.5213728139125772 rxn_smarts="[C:1]([n:2]1[c:3]([H:11])[c:4]([H:12])[c:5]([N:6]([H:13])[H:14])[c:7]1[H:15])([H:8])([H:9])[H:10]>>[C:1]([N:2]1[C:3]([H:11])=[C-:4][C@@:5]([N:6]([H:13])[H:14])([H:12])[C+:7]1[H:15])([H:8])([H:9])[H:10]"
C        2.26959514       0.27163442       0.03775252
N        0.86136048      -0.06223507       0.03914930
C        0.36534853      -1.36019761       0.08527687
C       -1.00591491      -1.37416082       0.03159045
C       -1.35618111       0.06055657       0.06939700
N       -2.58933170       0.65143656      -0.33227107
C       -0.14220567       0.80916793       0.09882557
H        2.81575017      -0.47399490      -0.53843770
H        2.42070681       1.24845705      -0.41811235
H        2.65791756       0.27686039       1.05690762
H        1.06939227      -2.16874222       0.22425158
H       -1.53081284      -0.67587338       1.17685649
H       -3.32923113      -0.03613853      -0.28570480
H       -2.53400560       0.95878772      -1.29350924
H        0.02761199       1.87444187       0.04802775
15
Frame=10 idx=008883 GeodesicLength=0.5793319367349187 rxn_smarts="[C:1]([n:2]1[c:3]([H:11])[c:4]([H:12])[c:5]([N:6]([H:13])[H:14])[c:7]1[H:15])([H:8])([H:9])[H:10]>>[C:1]([N:2]1[C:3]([H:11])=[C-:4][C@@:5]([N:6]([H:13])[H:14])([H:12])[C+:7]1[H:15])([H:8])([H:9])[H:10]"
C        2.26988720       0.27394780       0.02945435
N        0.86220577      -0.06016653       0.04187189
C        0.36604804      -1.35987822       0.08756229
C       -1.00350100      -1.36956882       0.03765707
C       -1.35721099       0.06169604       0.07891850
N       -2.58442839       0.65354230      -0.33879663
C       -0.14221435       0.80955862       0.11346479
H        2.81331666      -0.47590834      -0.54390291
H        2.41849334       1.24714142      -0.43512560
H        2.66454807       0.28647470       1.04619756
H        1.06956179      -2.16752466       0.23395108
H       -1.55749155      -0.70639573       1.18419579
H       -3.32862961      -0.02953171      -0.29964295
H       -2.51773989       0.96155643      -1.29905823
H        0.02715491       1.87505670       0.06325299
15
Frame=11 idx=008883 GeodesicLength=0.6372179900140093 rxn_smarts="[C:1]([n:2]1[c:3]([H:11])[c:4]([H:12])[c:5]([N:6]([H:13])[H:14])[c:7]1[H:15])([H:8])([H:9])[H:10]>>[C:1]([N:2]1[C:3]([H:11])=[C-:4][C@@:5]([N:6]([H:13])[H:14])([H:12])[C+:7]1[H:15])([H:8])([H:9])[H:10]"
C        2.27014798       0.27628581       0.02130604
N        0.86310006      -0.05805949       0.04421890
C        0.36675996      -1.35947411       0.08984454
C       -1.00106609      -1.36483687       0.04406630
C       -1.35817120       0.06297248       0.08860001
N       -2.57933196       0.65577699      -0.34490597
C       -0.14207289       0.80996469       0.12742996
H        2.81111573      -0.47784322      -0.54882563
H        2.41628766       1.24570320      -0.45204356
H        2.67076203       0.29629703       1.03567709
H        1.06974096      -2.16617970       0.24353897
H       -1.58474127      -0.73781365       1.19034941
H       -3.32782592      -0.02262871      -0.31283615
H       -2.50159015       0.96417029      -1.30415395
H        0.02688510       1.87566526       0.07773403
15
Frame=12 idx=008883 GeodesicLength=0.6951521195368777 rxn_smarts="[C:1]([n:2]1[c:3]([H:11])[c:4]([H:12])[c:5]([N:6]([H:13])[H:14])[c:7]1[H:15])([H:8])([H:9])[H:10]>>[C:1]([N:2]1[C:3]([H:11])=[C-:4][C@@:5]([N:6]([H:13])[H:14])([H:12])[C+:7]1[H:15])([H:8])([H:9])[H:10]"
C        2.27032419       0.27869742       0.01283421
N        0.86400558      -0.05589460       0.04671860
C        0.36747414      -1.35900888       0.09277865
C       -0.99860636      -1.36002979       0.05084106
C       -1.35909842       0.06433954       0.09859377
N       -2.57388830       0.65813857      -0.35092830
C       -0.14182680       0.81038145       0.14158380
H        2.80874035      -0.47980708      -0.55396469
H        2.41370998       1.24416056      -0.46953061
H        2.67714921       0.30648382       1.02462613
H        1.06994934      -2.16467137       0.25382705
H       -1.61312427      -0.77048347       1.19508502
H       -3.32665905      -0.01549911      -0.32619732
H       -2.48490954       0.96689786      -1.30902511
H        0.02675994       1.87629509       0.09275775
15
Frame=13 idx=008883 GeodesicLength=0.7530858486108994 rxn_smarts="[C:1]([n:2]1[c:3]([H:11])[c:4]([H:12])[c:5]([N:6]([H:13])[H:14])[c:7]1[H:15])([H:8])([H:9])[H:10]>>[C:1]([N:2]1[C:3]([H:11])=[C-:4][C@@:5]([N:6]([H:13])[H:14])([H:12])[C+:7]1[H:15])([H:8])([H:9])[H:10]"
C        2.27047487       0.28114197       0.00441459
N        0.86495510      -0.05366959       0.04893833
C        0.36818956      -1.35846382       0.09585413
C       -0.99613632      -1.35509376       0.05803678
C       -1.35996429       0.06585927       0.10884252
N       -2.56823133       0.66062514      -0.35655391
C       -0.14142412       0.81086127       0.15522728
H        2.80652747      -0.48180862      -0.55871305
H        2.41110643       1.24249634      -0.48706002
H        2.68324389       0.31690771       1.01362687
H        1.07016206      -2.16302518       0.26420650
H       -1.64224284      -0.80421356       1.19838228
H       -3.32527172      -0.00810574      -0.33894696
H       -2.46823082       0.96951244      -1.31346773
H        0.02684208       1.87697613       0.10721239
15
Frame=14 idx=008883 GeodesicLength=0.8110640565023886 rxn_smarts="[C:1]([n:2]1[c:3]([H:11])[c:4]([H:12])[c:5]([N:6]([H:13])[H:14])[c:7]1[H:15])([H:8])([H:9])[H:10]>>[C:1]([N:2]1[C:3]([H:11])=[C-:4][C@@:5]([N:6]([H:13])[H:14])([H:12])[C+:7]1[H:15])([H:8])([H:9])[H:10]"
C        2.27062318       0.28362445      -0.00397104
N        0.86595165      -0.05137179       0.05089629
C        0.36889340      -1.35784324       0.09909682
C       -0.99367529      -1.35003620       0.06570955
C       -1.36077785       0.06754600       0.11939093
N       -2.56237030       0.66323116      -0.36177416
C       -0.14085557       0.81144198       0.16838973
H        2.80448605      -0.48385823      -0.56310326
H        2.40851833       1.24071707      -0.50466384
H        2.68908231       0.32758215       1.00266373
H        1.07036379      -2.16125323       0.27470533
H       -1.67216605      -0.83906433       1.20011846
H       -3.32369020      -0.00046534      -0.35107318
H       -2.45153999       0.97198687      -1.31750095
H        0.02715653       1.87776266       0.12111560
15
Frame=15 idx=008883 GeodesicLength=0.8689435514541117 rxn_smarts="[C:1]([n:2]1[c:3]([H:11])[c:4]([H:12])[c:5]([N:6]([H:13])[H:14])[c:7]1[H:15])([H:8])([H:9])[H:10]>>[C:1]([N:2]1[C:3]([H:11])=[C-:4][C@@:5]([N:6]([H:13])[H:14])([H:12])[C+:7]1[H:15])([H:8])([H:9])[H:10]"
C        2.27072142       0.28611858      -0.01238019
N        0.86697420      -0.04900596       0.05268305
C        0.36961166      -1.35709030       0.10261968
C       -0.99116973      -1.34478085       0.07394705
C       -1.36152046       0.06941559       0.13027288
N       -2.55626590       0.66595675      -0.36663654
C       -0.14014325       0.81209368       0.18118250
H        2.80251042      -0.48595338      -0.56720248
H        2.40581434       1.23874429      -0.52241643
H        2.69473767       0.33848952       0.99159692
H        1.07060137      -2.15927451       0.28542211
H       -1.70289891      -0.87504939       1.20004838
H       -3.32185431       0.00747213      -0.36265484
H       -2.43477161       0.97428400      -1.32113547
H        0.02765309       1.87857984       0.13465339
15
Frame=16 idx=008883 GeodesicLength=0.9268964455106238 rxn_smarts="[C:1]([n:2]1[c:3]([H:11])[c:4]([H:12])[c:5]([N:6]([H:13])[H:14])[c:7]1[H:15])([H:8])([H:9])[H:10]>>[C:1]([N:2]1[C:3]([H:11])=[C-:4][C@@:5]([N:6]([H:13])[H:14])([H:12])[C+:7]1[H:15])([H:8])([H:9])[H:10]"
C        2.27072282       0.28868197      -0.02118420
N        0.86800171      -0.04655457       0.05470373
C        0.37032330      -1.35625379       0.10690472
C       -0.98865143      -1.33941634       0.08279105
C       -1.36223276       0.07142567       0.14164714
N       -2.54977725       0.66880735      -0.37133998
C       -0.13930380       0.81282443       0.19429619
H        2.80029745      -0.48810004      -0.57159835
H        2.40268593       1.23661850      -0.54085319
H        2.70063890       0.34979531       0.97986811
H        1.07086271      -2.15708012       0.29706816
H       -1.73490996      -0.91251692       1.19783614
H       -3.31961834       0.01563432      -0.37437062
H       -2.41738679       0.97664862      -1.32449119
H        0.02834752       1.87948560       0.14872227
