18
Frame=0 idx=007519 GeodesicLength=0.0 rxn_smarts="[C:1]([C:2]([C:3]([C:4]([H:13])([H:14])[H:15])([C:5]([H:16])([H:17])[H:18])[C:6]#[N:7])([H:11])[H:12])([H:8])([H:9])[H:10]>>[C:1](=[C:2]([C:3]([C:4]([H:13])([H:14])[H:15])([C:5]([H:16])([H:17])[H:18])[H:12])[H:11])([H:8])[H:10].[C:6](#[N:7])[H:9]"
C        2.08103476      -0.00431159      -0.24681208
C        0.89263426      -0.80425524      -0.13451062
C       -0.44885609      -0.25946940      -0.16119450
C       -1.59033537      -1.04665354       0.38509571
C       -0.78983857       0.91149653      -1.02438336
C        0.45709470       1.26498296       1.63873333
N       -0.22248207       1.80311178       2.39732362
H        3.02013872      -0.52055975      -0.08725247
H        1.37893908       0.83484398       0.96336545
H        2.12571822       0.75696888      -1.01917699
H        0.97591152      -1.66517697       0.52725547
H        0.49774937      -1.22594302      -1.13655489
H       -1.27113810      -2.00310159       0.79691266
H       -2.03388361      -0.46130458       1.19576282
H       -2.37181684      -1.21058417      -0.36116097
H       -1.18211416       0.57386820      -1.99007860
H       -1.57928657       1.48937683      -0.54346063
H        0.06053078       1.56671061      -1.19986387
18
Frame=1 idx=007519 GeodesicLength=0.11721130604615292 rxn_smarts="[C:1]([C:2]([C:3]([C:4]([H:13])([H:14])[H:15])([C:5]([H:16])([H:17])[H:18])[C:6]#[N:7])([H:11])[H:12])([H:8])([H:9])[H:10]>>[C:1](=[C:2]([C:3]([C:4]([H:13])([H:14])[H:15])([C:5]([H:16])([H:17])[H:18])[H:12])[H:11])([H:8])[H:10].[C:6](#[N:7])[H:9]"
C        2.08322102       0.00068918      -0.23622346
C        0.89850652      -0.80333584      -0.13450158
C       -0.44558772      -0.25658655      -0.16311040
C       -1.58687771      -1.04544843       0.38550850
C       -0.78970298       0.90513989      -1.03813738
C        0.43446408       1.24247845       1.65644799
N       -0.23190194       1.79514848       2.41610450
H        3.02472374      -0.52188499      -0.11447541
H        1.40190529       0.82953340       0.98567103
H        2.13088249       0.78723425      -0.98274696
H        0.98163839      -1.66499189       0.52666236
H        0.47495166      -1.22560982      -1.13995037
H       -1.26668209      -1.99073465       0.82188385
H       -2.05019812      -0.44934730       1.17678228
H       -2.35401678      -1.23635656      -0.36899526
H       -1.24547099       0.57009118      -1.97601370
H       -1.52607323       1.53244930      -0.53601452
H        0.06621836       1.53153189      -1.27889149
18
Frame=2 idx=007519 GeodesicLength=0.23412938768267952 rxn_smarts="[C:1]([C:2]([C:3]([C:4]([H:13])([H:14])[H:15])([C:5]([H:16])([H:17])[H:18])[C:6]#[N:7])([H:11])[H:12])([H:8])([H:9])[H:10]>>[C:1](=[C:2]([C:3]([C:4]([H:13])([H:14])[H:15])([C:5]([H:16])([H:17])[H:18])[H:12])[H:11])([H:8])[H:10].[C:6](#[N:7])[H:9]"
C        2.08480236       0.00685983      -0.22575656
C        0.90449004      -0.80228964      -0.13459016
C       -0.44233876      -0.25374702      -0.16520697
C       -1.58364424      -1.04389530       0.38587160
C       -0.78907450       0.89873307      -1.05217263
C        0.41146004       1.21848273       1.67500226
N       -0.24152512       1.78552965       2.43550948
H        3.02850286      -0.52001006      -0.14431322
H        1.42493210       0.82270301       1.00972586
H        2.13376304       0.81871315      -0.94473543
H        0.98766123      -1.66407580       0.52671944
H        0.45198429      -1.22620273      -1.14259346
H       -1.26262634      -1.97699916       0.84740649
H       -2.06697324      -0.43697323       1.15641017
H       -2.33560216      -1.26230987      -0.37624556
H       -1.30934351       0.56968501      -1.95763756
H       -1.46634987       1.57581216      -0.53237895
H        0.06988176       1.48998418      -1.36101481
18
Frame=3 idx=007519 GeodesicLength=0.3507129461629501 rxn_smarts="[C:1]([C:2]([C:3]([C:4]([H:13])([H:14])[H:15])([C:5]([H:16])([H:17])[H:18])[C:6]#[N:7])([H:11])[H:12])([H:8])([H:9])[H:10]>>[C:1](=[C:2]([C:3]([C:4]([H:13])([H:14])[H:15])([C:5]([H:16])([H:17])[H:18])[H:12])[H:11])([H:8])[H:10].[C:6](#[N:7])[H:9]"
C        2.08568756       0.01433294      -0.21549764
C        0.91060483      -0.80111181      -0.13467290
C       -0.43910907      -0.25099726      -0.16745259
C       -1.58069338      -1.04199880       0.38613653
C       -0.78778873       0.89227055      -1.06649412
C        0.38798532       1.19310689       1.69423171
N       -0.25137162       1.77399825       2.45571978
H        3.03130275      -0.51441951      -0.17685377
H        1.44806247       0.81438973       1.03540445
H        2.13394002       0.85120259      -0.90546816
H        0.99401986      -1.66231460       0.52766095
H        0.42885465      -1.22787001      -1.14431776
H       -1.25911778      -1.96194021       0.87323532
H       -2.08409475      -0.42429179       1.13467100
H       -2.31666302      -1.28817767      -0.38292377
H       -1.37309422       0.57332843      -1.93470025
H       -1.39947518       1.61900243      -0.53313193
H        0.07095026       1.44148984      -1.44554686
18
Frame=4 idx=007519 GeodesicLength=0.4669687663572652 rxn_smarts="[C:1]([C:2]([C:3]([C:4]([H:13])([H:14])[H:15])([C:5]([H:16])([H:17])[H:18])[C:6]#[N:7])([H:11])[H:12])([H:8])([H:9])[H:10]>>[C:1](=[C:2]([C:3]([C:4]([H:13])([H:14])[H:15])([C:5]([H:16])([H:17])[H:18])[H:12])[H:11])([H:8])[H:10].[C:6](#[N:7])[H:9]"
C        2.08584082       0.02320437      -0.20547533
C        0.91687573      -0.79979483      -0.13460371
C       -0.43591141      -0.24838957      -0.16979939
C       -1.57810641      -1.03980392       0.38624009
C       -0.78571116       0.88577287      -1.08108228
C        0.36395686       1.16664775       1.71381435
N       -0.26140979       1.76031942       2.47690735
H        3.03294532      -0.50471729      -0.21209971
H        1.47136578       0.80476908       1.06246151
H        2.13114176       0.88437870      -0.86540747
H        1.00074894      -1.65962246       0.52974810
H        0.40558975      -1.23071122      -1.14494196
H       -1.25633641      -1.94573658       0.89901916
H       -2.10140184      -0.41150033       1.11168105
H       -2.29737510      -1.31363546      -0.38908433
H       -1.43591630       0.58176346      -1.90703515
H       -1.32506343       1.66127274      -0.53892981
H        0.06876690       1.38578329      -1.53141248
18
Frame=5 idx=007519 GeodesicLength=0.5828574448998672 rxn_smarts="[C:1]([C:2]([C:3]([C:4]([H:13])([H:14])[H:15])([C:5]([H:16])([H:17])[H:18])[C:6]#[N:7])([H:11])[H:12])([H:8])([H:9])[H:10]>>[C:1](=[C:2]([C:3]([C:4]([H:13])([H:14])[H:15])([C:5]([H:16])([H:17])[H:18])[H:12])[H:11])([H:8])[H:10].[C:6](#[N:7])[H:9]"
C        2.08521266       0.03342860      -0.19580921
C        0.92331291      -0.79837688      -0.13432843
C       -0.43274701      -0.24601663      -0.17217174
C       -1.57592206      -1.03741428       0.38612379
C       -0.78279095       0.87923520      -1.09577003
C        0.33935046       1.13956262       1.73329572
N       -0.27176787       1.74464499       2.49889976
H        3.03322698      -0.49062557      -0.24950337
H        1.49493269       0.79413348       1.09042731
H        2.12523412       0.91772879      -0.82520649
H        1.00786000      -1.65600050       0.53302449
H        0.38222219      -1.23478604      -1.14439473
H       -1.25442774      -1.92886156       0.92406063
H       -2.11851591      -0.39891232       1.08783823
H       -2.27810182      -1.33814311      -0.39471940
H       -1.49663991       0.59550406      -1.87458241
H       -1.24296891       1.70168294      -0.55024903
H        0.06253017       1.32321622      -1.61693508
18
Frame=6 idx=007519 GeodesicLength=0.6984223174263153 rxn_smarts="[C:1]([C:2]([C:3]([C:4]([H:13])([H:14])[H:15])([C:5]([H:16])([H:17])[H:18])[C:6]#[N:7])([H:11])[H:12])([H:8])([H:9])[H:10]>>[C:1](=[C:2]([C:3]([C:4]([H:13])([H:14])[H:15])([C:5]([H:16])([H:17])[H:18])[H:12])[H:11])([H:8])[H:10].[C:6](#[N:7])[H:9]"
C        2.08390324       0.04487146      -0.18639257
C        0.92992230      -0.79686849      -0.13372465
C       -0.42963832      -0.24395686      -0.17448991
C       -1.57419555      -1.03500780       0.38570600
C       -0.77902083       0.87275726      -1.11033080
C        0.31411173       1.11248788       1.75214500
N       -0.28232029       1.72748622       2.52134230
H        3.03198569      -0.47228849      -0.28874081
H        1.51886196       0.78283175       1.11888913
H        2.11651631       0.95071484      -0.78539107
H        1.01531908      -1.65154659       0.53752967
H        0.35881911      -1.23995212      -1.14267795
H       -1.25352259      -1.91184614       0.94781095
H       -2.13518287      -0.38695419       1.06355425
H       -2.25910379      -1.36135119      -0.40003289
H       -1.55412569       0.61521472      -1.83748700
H       -1.15396229       1.73880957      -0.56738539
H        0.05163279       1.25459817      -1.70032426
18
Frame=7 idx=007519 GeodesicLength=0.8136963758821844 rxn_smarts="[C:1]([C:2]([C:3]([C:4]([H:13])([H:14])[H:15])([C:5]([H:16])([H:17])[H:18])[C:6]#[N:7])([H:11])[H:12])([H:8])([H:9])[H:10]>>[C:1](=[C:2]([C:3]([C:4]([H:13])([H:14])[H:15])([C:5]([H:16])([H:17])[H:18])[H:12])[H:11])([H:8])[H:10].[C:6](#[N:7])[H:9]"
C        2.08201377       0.05724252      -0.17722373
C        0.93670265      -0.79530474      -0.13281824
C       -0.42658978      -0.24228540      -0.17669093
C       -1.57290912      -1.03274082       0.38491869
C       -0.77454442       0.86641348      -1.12446113
C        0.28827093       1.08607848       1.76974530
N       -0.29304315       1.70955225       2.54369542
H        3.02914363      -0.45003699      -0.32883216
H        1.54331053       0.77117365       1.14729428
H        2.10547024       0.98279090      -0.74641121
H        1.02309701      -1.64643990       0.54300597
H        0.33542268      -1.24597505      -1.13994052
H       -1.25361055      -1.89527529       0.96966301
H       -2.15107914      -0.37598240       1.03930601
H       -2.24070464      -1.38286770      -0.40516389
H       -1.60718453       0.64104909      -1.79601517
H       -1.05917199       1.77130146      -0.59029433
H        0.03540586       1.18130646      -1.77977737
18
Frame=8 idx=007519 GeodesicLength=0.9287758361911406 rxn_smarts="[C:1]([C:2]([C:3]([C:4]([H:13])([H:14])[H:15])([C:5]([H:16])([H:17])[H:18])[C:6]#[N:7])([H:11])[H:12])([H:8])([H:9])[H:10]>>[C:1](=[C:2]([C:3]([C:4]([H:13])([H:14])[H:15])([C:5]([H:16])([H:17])[H:18])[H:12])[H:11])([H:8])[H:10].[C:6](#[N:7])[H:9]"
C        2.07970887       0.07024412      -0.16820346
C        0.94362345      -0.79368649      -0.13162215
C       -0.42359892      -0.24103016      -0.17872162
C       -1.57204880      -1.03074556       0.38374749
C       -0.76945360       0.86028229      -1.13797212
C        0.26179828       1.06110013       1.78557286
N       -0.30372153       1.69145383       2.56563403
H        3.02460816      -0.42445043      -0.36928019
H        1.56842779       0.75938529       1.17533380
H        2.09279920       1.01366595      -0.70836210
H        1.03107712      -1.64089493       0.54918164
H        0.31209720      -1.25255071      -1.13640454
H       -1.25470527      -1.87965081       0.98928325
H       -2.16601462      -0.36624365       1.01554295
H       -2.22312399      -1.40247665      -0.41027084
H       -1.65462625       0.67275390      -1.75073576
H       -0.96037513       1.79786564      -0.61882679
H        0.01352804       1.10497823      -1.85389643
18
Frame=9 idx=007519 GeodesicLength=1.0437401417245658 rxn_smarts="[C:1]([C:2]([C:3]([C:4]([H:13])([H:14])[H:15])([C:5]([H:16])([H:17])[H:18])[C:6]#[N:7])([H:11])[H:12])([H:8])([H:9])[H:10]>>[C:1](=[C:2]([C:3]([C:4]([H:13])([H:14])[H:15])([C:5]([H:16])([H:17])[H:18])[H:12])[H:11])([H:8])[H:10].[C:6](#[N:7])[H:9]"
C        2.07716255       0.08352102      -0.15926193
C        0.95067837      -0.79205932      -0.13022978
C       -0.42063630      -0.24019040      -0.18054978
C       -1.57152840      -1.02909934       0.38220390
C       -0.76394349       0.85446092      -1.15069350
C        0.23480606       1.03818264       1.79921160
N       -0.31431821       1.67382466       2.58659418
H        3.01844367      -0.39618403      -0.40928215
H        1.59448616       0.74748533       1.20279563
H        2.07918905       1.04314328      -0.67112054
H        1.03921490      -1.63522983       0.55563492
H        0.28884603      -1.25938819      -1.13235592
H       -1.25665156      -1.86540082       1.00644582
H       -2.17979504      -0.35781739       0.99262370
H       -2.20656839      -1.42005454      -0.41544212
H       -1.69561696       0.70966151      -1.70230130
H       -0.85954891       1.81770051      -0.65262686
H       -0.01421952       1.02744397      -1.92164587
18
Frame=10 idx=007519 GeodesicLength=1.1587004900150526 rxn_smarts="[C:1]([C:2]([C:3]([C:4]([H:13])([H:14])[H:15])([C:5]([H:16])([H:17])[H:18])[C:6]#[N:7])([H:11])[H:12])([H:8])([H:9])[H:10]>>[C:1](=[C:2]([C:3]([C:4]([H:13])([H:14])[H:15])([C:5]([H:16])([H:17])[H:18])[H:12])[H:11])([H:8])[H:10].[C:6](#[N:7])[H:9]"
C        2.07456413       0.09680911      -0.15027459
C        0.95787055      -0.79041528      -0.12871827
C       -0.41767881      -0.23974613      -0.18219663
C       -1.57132223      -1.02780475       0.38027421
C       -0.75810174       0.84897560      -1.16256714
C        0.20724467       1.01761883       1.81049501
N       -0.32445698       1.65732358       2.60636782
H        3.01071934      -0.36573187      -0.44862104
H        1.62166062       0.73531268       1.22965563
H        2.06525846       1.07118518      -0.63431062
H        1.04743696      -1.62964189       0.56203620
H        0.26573856      -1.26619522      -1.12806735
H       -1.25937340      -1.85256660       1.02125623
H       -2.19254830      -0.35066137       0.97059530
H       -2.19100682      -1.43571596      -0.42082642
H       -1.72952129       0.75095028      -1.65147582
H       -0.75878627       1.83021550      -0.69104372
H       -0.04769746       0.95008832      -1.98257881
18
Frame=11 idx=007519 GeodesicLength=1.2737552593143306 rxn_smarts="[C:1]([C:2]([C:3]([C:4]([H:13])([H:14])[H:15])([C:5]([H:16])([H:17])[H:18])[C:6]#[N:7])([H:11])[H:12])([H:8])([H:9])[H:10]>>[C:1](=[C:2]([C:3]([C:4]([H:13])([H:14])[H:15])([C:5]([H:16])([H:17])[H:18])[H:12])[H:11])([H:8])[H:10].[C:6](#[N:7])[H:9]"
C        2.07204520       0.10991021      -0.14119306
C        0.96519995      -0.78876635      -0.12718617
C       -0.41468433      -0.23964713      -0.18370523
C       -1.57135410      -1.02680409       0.37800419
C       -0.75204687       0.84382503      -1.17368265
C        0.17922227       0.99963792       1.81936094
N       -0.33408286       1.64205500       2.62486600
H        3.00156216      -0.33351177      -0.48681499
H        1.65024230       0.72268980       1.25592195
H        2.05144229       1.09782734      -0.59760741
H        1.05571080      -1.62432799       0.56809206
H        0.24274905      -1.27279782      -1.12378818
H       -1.26270894      -1.84109808       1.03394342
H       -2.20431217      -0.34455971       0.94944510
H       -2.17643524      -1.44963933      -0.42642347
H       -1.75610406       0.79560499      -1.59900805
H       -0.65974283       1.83541660      -0.73361780
H       -0.08670260       0.87418538      -2.03660664
18
Frame=12 idx=007519 GeodesicLength=1.38895841432774 rxn_smarts="[C:1]([C:2]([C:3]([C:4]([H:13])([H:14])[H:15])([C:5]([H:16])([H:17])[H:18])[C:6]#[N:7])([H:11])[H:12])([H:8])([H:9])[H:10]>>[C:1](=[C:2]([C:3]([C:4]([H:13])([H:14])[H:15])([C:5]([H:16])([H:17])[H:18])[H:12])[H:11])([H:8])[H:10].[C:6](#[N:7])[H:9]"
C        2.06969208       0.12273365      -0.13193318
C        0.97268132      -0.78708416      -0.12566386
C       -0.41162331      -0.23984716      -0.18513448
C       -1.57159698      -1.02599303       0.37538906
C       -0.74579166       0.83894272      -1.18416787
C        0.15066680       0.98413819       1.82588816
N       -0.34289815       1.62809442       2.64222509
H        2.99099459      -0.29969665      -0.52388251
H        1.68039810       0.70939057       1.28163607
H        2.03795222       1.12316567      -0.56060790
H        1.06401099      -1.61933851       0.57367036
H        0.21993737      -1.27906727      -1.11963991
H       -1.26658845      -1.83070372       1.04483562
H       -2.21530970      -0.33926094       0.92890641
H       -2.16267976      -1.46207558      -0.43225941
H       -1.77525437       0.84271175      -1.54558276
H       -0.56371846       1.83345768      -0.77977165
H       -0.13087262       0.80043236      -2.08390722
18
Frame=13 idx=007519 GeodesicLength=1.5044036600595299 rxn_smarts="[C:1]([C:2]([C:3]([C:4]([H:13])([H:14])[H:15])([C:5]([H:16])([H:17])[H:18])[C:6]#[N:7])([H:11])[H:12])([H:8])([H:9])[H:10]>>[C:1](=[C:2]([C:3]([C:4]([H:13])([H:14])[H:15])([C:5]([H:16])([H:17])[H:18])[H:12])[H:11])([H:8])[H:10].[C:6](#[N:7])[H:9]"
C        2.06753561       0.13528056      -0.12246214
C        0.98031519      -0.78534884      -0.12415546
C       -0.40846814      -0.24029896      -0.18654499
C       -1.57201944      -1.02527255       0.37247619
C       -0.73935975       0.83423523      -1.19427437
C        0.12159659       0.97107953       1.83022586
N       -0.35083663       1.61499077       2.65867892
H        2.97903954      -0.26433680      -0.55967717
H        1.71237723       0.69528005       1.30685623
H        2.02483918       1.14734357      -0.52305704
H        1.07232057      -1.61469913       0.57875763
H        0.19728682      -1.28498698      -1.11571851
H       -1.27093658      -1.82111854       1.05431219
H       -2.22567294      -0.33447526       0.90876138
H       -2.14964331      -1.47329921      -0.43828419
H       -1.78710316       0.89152385      -1.49174948
H       -0.47140692       1.82476038      -0.82929492
H       -0.17986388       0.72934232      -2.12485013
18
Frame=14 idx=007519 GeodesicLength=1.6201488674151179 rxn_smarts="[C:1]([C:2]([C:3]([C:4]([H:13])([H:14])[H:15])([C:5]([H:16])([H:17])[H:18])[C:6]#[N:7])([H:11])[H:12])([H:8])([H:9])[H:10]>>[C:1](=[C:2]([C:3]([C:4]([H:13])([H:14])[H:15])([C:5]([H:16])([H:17])[H:18])[H:12])[H:11])([H:8])[H:10].[C:6](#[N:7])[H:9]"
C        2.06556947       0.14761385      -0.11275545
C        0.98812015      -0.78351603      -0.12262409
C       -0.40520573      -0.24097432      -0.18799759
C       -1.57262987      -1.02453208       0.36924787
C       -0.73272103       0.82958394      -1.20419340
C        0.09190978       0.96022460       1.83252726
N       -0.35773289       1.60238566       2.67460444
H        2.96564394      -0.22732769      -0.59424564
H        1.74637807       0.68026347       1.33154526
H        2.01199098       1.17047784      -0.48475137
H        1.08064587      -1.61032018       0.58343203
H        0.17484362      -1.29055573      -1.11202302
H       -1.27574884      -1.81198089       1.06268964
H       -2.23562237      -0.32994716       0.88864162
H       -2.13716125      -1.48356321      -0.44448278
H       -1.79174830       0.94147228      -1.43793935
H       -0.38313244       1.80962987      -0.88190932
H       -0.23339916       0.66106578      -2.15976613
18
Frame=15 idx=007519 GeodesicLength=1.7362801539550905 rxn_smarts="[C:1]([C:2]([C:3]([C:4]([H:13])([H:14])[H:15])([C:5]([H:16])([H:17])[H:18])[C:6]#[N:7])([H:11])[H:12])([H:8])([H:9])[H:10]>>[C:1](=[C:2]([C:3]([C:4]([H:13])([H:14])[H:15])([C:5]([H:16])([H:17])[H:18])[H:12])[H:11])([H:8])[H:10].[C:6](#[N:7])[H:9]"
C        2.06374186       0.15986392      -0.10281550
C        0.99609902      -0.78154260      -0.12098166
C       -0.40183246      -0.24185594      -0.18954011
C       -1.57345254      -1.02368115       0.36571695
C       -0.72583785       0.82485026      -1.21418168
C        0.06150036       0.95147034       1.83294043
N       -0.36348259       1.58952880       2.69044011
H        2.95069363      -0.18848147      -0.62760930
H        1.78264653       0.66435721       1.35565144
H        1.99917136       1.19272117      -0.44559632
H        1.08898101      -1.60607891       0.58790019
H        0.15262898      -1.29584356      -1.10851992
H       -1.28105662      -1.80299908       1.07027843
H       -2.24531988      -0.32543274       0.86824853
H       -2.12513862      -1.49309869      -0.45081544
H       -1.78926969       0.99221528      -1.38447106
H       -0.29886845       1.78831829      -0.93766103
H       -0.29120403       0.59568887      -2.18898405
18
Frame=16 idx=007519 GeodesicLength=1.8528812363542173 rxn_smarts="[C:1]([C:2]([C:3]([C:4]([H:13])([H:14])[H:15])([C:5]([H:16])([H:17])[H:18])[C:6]#[N:7])([H:11])[H:12])([H:8])([H:9])[H:10]>>[C:1](=[C:2]([C:3]([C:4]([H:13])([H:14])[H:15])([C:5]([H:16])([H:17])[H:18])[H:12])[H:11])([H:8])[H:10].[C:6](#[N:7])[H:9]"
C        2.06197639       0.17218600      -0.09266066
C        1.00426567      -0.77938163      -0.11910777
C       -0.39835032      -0.24294799      -0.19120682
C       -1.57453364      -1.02263544       0.36185233
C       -0.71863605       0.81991053      -1.22441522
C        0.03020807       0.94463387       1.83159640
N       -0.36798641       1.57575593       2.70663086
H        2.93399319      -0.14753906      -0.65986396
H        1.82146235       0.64764094       1.37902288
H        1.98603098       1.21419052      -0.40556640
H        1.09733444      -1.60179094       0.59243357
H        0.13069744      -1.30091814      -1.10513360
H       -1.28693745      -1.79387136       1.07730956
H       -2.25494970      -0.32072678       0.84721298
H       -2.11346427      -1.50209893      -0.45727823
H       -1.77960159       1.04353970      -1.33160338
H       -0.21838973       1.76084484      -0.99653793
H       -0.35311935       0.53320794      -2.21268461
