12
Frame=0 idx=007312 GeodesicLength=0.0 rxn_smarts="[O:1]([C:2]([c:3]1[n:4][n:5]([H:11])[c:6]([H:12])[n:7]1)([H:9])[H:10])[H:8]>>[O:1]([C:2]([C:3]1=[N:7][C:6]([H:11])([H:12])[N:5]=[N:4]1)([H:9])[H:10])[H:8]"
O       -2.30816677       0.92107659      -0.28447233
C       -1.64261503      -0.24245966       0.12415327
C       -0.15593347      -0.07805650       0.12726366
N        0.42355997       0.91999174      -0.56611065
N        1.72095544       0.82604257      -0.36260458
C        1.88117920      -0.34802085       0.41892480
N        0.69539465      -0.89424197       0.72931641
H       -1.73269209       1.39981521      -0.88951432
H       -1.88788444      -1.09609409      -0.52297462
H       -1.97269653      -0.49790677       1.13270013
H        2.15776046      -0.34046311      -0.81324580
H        2.82113856      -0.56968312       0.90656399
12
Frame=1 idx=007312 GeodesicLength=0.03881890361707675 rxn_smarts="[O:1]([C:2]([c:3]1[n:4][n:5]([H:11])[c:6]([H:12])[n:7]1)([H:9])[H:10])[H:8]>>[O:1]([C:2]([C:3]1=[N:7][C:6]([H:11])([H:12])[N:5]=[N:4]1)([H:9])[H:10])[H:8]"
O       -2.30743955       0.92701045      -0.27317687
C       -1.64452671      -0.24161372       0.12594298
C       -0.15726523      -0.08353169       0.12253851
N        0.42394186       0.91280875      -0.57582218
N        1.71867527       0.81892110      -0.36678640
C        1.88158991      -0.35185945       0.41584105
N        0.69408754      -0.90030409       0.72210882
H       -1.73721686       1.40157251      -0.88632765
H       -1.89701098      -1.09045591      -0.52462217
H       -1.97104319      -0.50049046       1.13474553
H        2.18263435      -0.33736818      -0.82095254
H        2.81357359      -0.55468931       0.92651091
12
Frame=2 idx=007312 GeodesicLength=0.07764918936117399 rxn_smarts="[O:1]([C:2]([c:3]1[n:4][n:5]([H:11])[c:6]([H:12])[n:7]1)([H:9])[H:10])[H:8]>>[O:1]([C:2]([C:3]1=[N:7][C:6]([H:11])([H:12])[N:5]=[N:4]1)([H:9])[H:10])[H:8]"
O       -2.30647103       0.93298559      -0.26177390
C       -1.64642874      -0.24075829       0.12782377
C       -0.15862456      -0.08921637       0.11764279
N        0.42430738       0.90525999      -0.58589314
N        1.71633987       0.81161507      -0.37112576
C        1.88200387      -0.35581951       0.41269797
N        0.69278335      -0.90666119       0.71456378
H       -1.74166009       1.40336557      -0.88300474
H       -1.90636721      -1.08475829      -0.52601544
H       -1.96927562      -0.50294883       1.13692071
H        2.20830402      -0.33358863      -0.82822213
H        2.80508877      -0.53947511       0.94638608
12
Frame=3 idx=007312 GeodesicLength=0.11648352041788398 rxn_smarts="[O:1]([C:2]([c:3]1[n:4][n:5]([H:11])[c:6]([H:12])[n:7]1)([H:9])[H:10])[H:8]>>[O:1]([C:2]([C:3]1=[N:7][C:6]([H:11])([H:12])[N:5]=[N:4]1)([H:9])[H:10])[H:8]"
O       -2.30523829       0.93900814      -0.25026026
C       -1.64831657      -0.23989076       0.12980544
C       -0.16001187      -0.09513267       0.11255184
N        0.42465490       0.89732193      -0.59634687
N        1.71393840       0.80412535      -0.37562439
C        1.88240797      -0.35988937       0.40950361
N        0.69148064      -0.91333187       0.70665217
H       -1.74600765       1.40517817      -0.87956419
H       -1.91597245      -1.07900078      -0.52712354
H       -1.96737374      -0.50526132       1.13924516
H        2.23479158      -0.32904623      -0.83498641
H        2.79564708      -0.52408058       0.96614746
12
Frame=4 idx=007312 GeodesicLength=0.15530636611927096 rxn_smarts="[O:1]([C:2]([c:3]1[n:4][n:5]([H:11])[c:6]([H:12])[n:7]1)([H:9])[H:10])[H:8]>>[O:1]([C:2]([C:3]1=[N:7][C:6]([H:11])([H:12])[N:5]=[N:4]1)([H:9])[H:10])[H:8]"
O       -2.30382843       0.94493940      -0.23887801
C       -1.65016533      -0.23902384       0.13184934
C       -0.16143141      -0.10099650       0.10766346
N        0.42498235       0.88926811      -0.60679476
N        1.71152408       0.79640206      -0.38033982
C        1.88283772      -0.36410888       0.40622038
N        0.69017188      -0.92002030       0.69880170
H       -1.75026306       1.40696525      -0.87610267
H       -1.92546694      -1.07325237      -0.52804694
H       -1.96553280      -0.50748902       1.14159897
H        2.26173870      -0.32388500      -0.84135658
H        2.78543322      -0.50879891       0.98538493
12
Frame=5 idx=007312 GeodesicLength=0.19412825499284653 rxn_smarts="[O:1]([C:2]([c:3]1[n:4][n:5]([H:11])[c:6]([H:12])[n:7]1)([H:9])[H:10])[H:8]>>[O:1]([C:2]([C:3]1=[N:7][C:6]([H:11])([H:12])[N:5]=[N:4]1)([H:9])[H:10])[H:8]"
O       -2.30223245       0.95080877      -0.22758916
C       -1.65198678      -0.23815349       0.13396505
C       -0.16288549      -0.10686557       0.10289900
N        0.42528866       0.88104275      -0.61731035
N        1.70909155       0.78844558      -0.38527306
C        1.88328615      -0.36846236       0.40286662
N        0.68885262      -0.92677727       0.69094260
H       -1.75442591       1.40872963      -0.87261565
H       -1.93492728      -1.06750665      -0.52875815
H       -1.96372321      -0.50960864       1.14401250
H        2.28922154      -0.31803128      -0.84725726
H        2.77444059      -0.49362147       1.00411787
12
Frame=6 idx=007312 GeodesicLength=0.23291030837146454 rxn_smarts="[O:1]([C:2]([c:3]1[n:4][n:5]([H:11])[c:6]([H:12])[n:7]1)([H:9])[H:10])[H:8]>>[O:1]([C:2]([C:3]1=[N:7][C:6]([H:11])([H:12])[N:5]=[N:4]1)([H:9])[H:10])[H:8]"
O       -2.30044347       0.95662375      -0.21639564
C       -1.65377822      -0.23727353       0.13615705
C       -0.16436854      -0.11275371       0.09822945
N        0.42556759       0.87263592      -0.62790335
N        1.70662751       0.78025255      -0.39041868
C        1.88373407      -0.37294439       0.39945977
N        0.68752286      -0.93361007       0.68305772
H       -1.75850056       1.41044912      -0.86913216
H       -1.94437431      -1.06176494      -0.52923662
H       -1.96192232      -0.51159383       1.14650183
H        2.31723999      -0.31141526      -0.85261787
H        2.76269540      -0.47860560       1.02229850
12
Frame=7 idx=007312 GeodesicLength=0.27167789758043914 rxn_smarts="[O:1]([C:2]([c:3]1[n:4][n:5]([H:11])[c:6]([H:12])[n:7]1)([H:9])[H:10])[H:8]>>[O:1]([C:2]([C:3]1=[N:7][C:6]([H:11])([H:12])[N:5]=[N:4]1)([H:9])[H:10])[H:8]"
O       -2.29859077       0.96223503      -0.20555335
C       -1.65552500      -0.23639873       0.13837415
C       -0.16588898      -0.11835328       0.09409440
N        0.42581626       0.86435605      -0.63813468
N        1.70420297       0.77175792      -0.39583802
C        1.88423343      -0.37760600       0.39594543
N        0.68615755      -0.94019365       0.67563500
H       -1.76250379       1.41209446      -0.86573559
H       -1.95341847      -1.05609465      -0.52962381
H       -1.96036025      -0.51352682       1.14892251
H        2.34541076      -0.30425063      -0.85763028
H        2.75046630      -0.46401969       1.03954424
12
Frame=8 idx=007312 GeodesicLength=0.31043522317309213 rxn_smarts="[O:1]([C:2]([c:3]1[n:4][n:5]([H:11])[c:6]([H:12])[n:7]1)([H:9])[H:10])[H:8]>>[O:1]([C:2]([C:3]1=[N:7][C:6]([H:11])([H:12])[N:5]=[N:4]1)([H:9])[H:10])[H:8]"
O       -2.29670944       0.96766140      -0.19506183
C       -1.65725360      -0.23552344       0.14062019
C       -0.16744678      -0.12367911       0.09046169
N        0.42603811       0.85620652      -0.64800868
N        1.70183395       0.76296628      -0.40151484
C        1.88478792      -0.38244881       0.39233936
N        0.68475022      -0.94654597       0.66865683
H       -1.76646522       1.41365177      -0.86245975
H       -1.96211216      -1.05051406      -0.52990752
H       -1.95905253      -0.51537639       1.15129577
H        2.37377619      -0.29648795      -0.86225045
H        2.73785333      -0.44991024       1.05582924
12
Frame=9 idx=007312 GeodesicLength=0.3491435015005259 rxn_smarts="[O:1]([C:2]([c:3]1[n:4][n:5]([H:11])[c:6]([H:12])[n:7]1)([H:9])[H:10])[H:8]>>[O:1]([C:2]([C:3]1=[N:7][C:6]([H:11])([H:12])[N:5]=[N:4]1)([H:9])[H:10])[H:8]"
O       -2.29481249       0.97288567      -0.18495873
C       -1.65894849      -0.23464470       0.14289098
C       -0.16902758      -0.12869014       0.08737236
N        0.42623097       0.84823759      -0.65746865
N        1.69950085       0.75386344      -0.40745783
C        1.88535902      -0.38747799       0.38865343
N        0.68328810      -0.95261650       0.66219384
H       -1.77038722       1.41509617      -0.85934683
H       -1.97039328      -1.04503525      -0.53010053
H       -1.95800805      -0.51713749       1.15361908
H        2.40226302      -0.28810153      -0.86646430
H        2.72493516      -0.43637927       1.07106718
12
Frame=10 idx=007312 GeodesicLength=0.3876857641727918 rxn_smarts="[O:1]([C:2]([c:3]1[n:4][n:5]([H:11])[c:6]([H:12])[n:7]1)([H:9])[H:10])[H:8]>>[O:1]([C:2]([C:3]1=[N:7][C:6]([H:11])([H:12])[N:5]=[N:4]1)([H:9])[H:10])[H:8]"
O       -2.29309646       0.97773777      -0.17554447
C       -1.66061856      -0.23377466       0.14511892
C       -0.17062403      -0.13302331       0.08534503
N        0.42642252       0.84082512      -0.66595762
N        1.69732834       0.74438040      -0.41367456
C        1.88601680      -0.39277376       0.38480294
N        0.68174227      -0.95803770       0.65680584
H       -1.77431950       1.41636673      -0.85651999
H       -1.97784663      -1.03974692      -0.53038577
H       -1.95752933      -0.51888489       1.15570837
H        2.43037224      -0.27935524      -0.87055260
H        2.71215233      -0.42371355       1.08485392
12
Frame=11 idx=007312 GeodesicLength=0.4262633453238203 rxn_smarts="[O:1]([C:2]([c:3]1[n:4][n:5]([H:11])[c:6]([H:12])[n:7]1)([H:9])[H:10])[H:8]>>[O:1]([C:2]([C:3]1=[N:7][C:6]([H:11])([H:12])[N:5]=[N:4]1)([H:9])[H:10])[H:8]"
O       -2.29143836       0.98242345      -0.16648593
C       -1.66229740      -0.23289385       0.14736688
C       -0.17226018      -0.13706573       0.08380937
N        0.42656815       0.83357917      -0.67407258
N        1.69520621       0.73454011      -0.42019417
C        1.88671589      -0.39827233       0.38088135
N        0.68012170      -0.96321235       0.65190226
H       -1.77826179       1.41756497      -0.85382862
H       -1.98496622      -1.03456021      -0.53060174
H       -1.95732316      -0.52053818       1.15775911
H        2.45871042      -0.26998556      -0.87420146
H        2.69922474      -0.41157949       1.09766552
12
Frame=12 idx=007312 GeodesicLength=0.4648363253884359 rxn_smarts="[O:1]([C:2]([c:3]1[n:4][n:5]([H:11])[c:6]([H:12])[n:7]1)([H:9])[H:10])[H:8]>>[O:1]([C:2]([C:3]1=[N:7][C:6]([H:11])([H:12])[N:5]=[N:4]1)([H:9])[H:10])[H:8]"
O       -2.28967801       0.98709575      -0.15751113
C       -1.66399664      -0.23198298       0.14968934
C       -0.17394036      -0.14115230       0.08231815
N        0.42666877       0.82612372      -0.68228776
N        1.69306651       0.72432727      -0.42704150
C        1.88739774      -0.40392246       0.37692126
N        0.67843430      -0.96846818       0.64700262
H       -1.78216130       1.41873082      -0.85115321
H       -1.99215268      -1.02937493      -0.53059768
H       -1.95715008      -0.52201324       1.15991127
H        2.48764415      -0.25967490      -0.87709458
H        2.68586761      -0.39968857       1.10984324
12
Frame=13 idx=007312 GeodesicLength=0.5033702260588415 rxn_smarts="[O:1]([C:2]([c:3]1[n:4][n:5]([H:11])[c:6]([H:12])[n:7]1)([H:9])[H:10])[H:8]>>[O:1]([C:2]([C:3]1=[N:7][C:6]([H:11])([H:12])[N:5]=[N:4]1)([H:9])[H:10])[H:8]"
O       -2.28806694       0.99154074      -0.14901685
C       -1.66570525      -0.23105930       0.15200405
C       -0.17564786      -0.14478245       0.08155249
N        0.42673774       0.81900124      -0.68987807
N        1.69101931       0.71367181      -0.43423438
C        1.88812355      -0.40983329       0.37284369
N        0.67664853      -0.97331344       0.64284864
H       -1.78610122       1.41978604      -0.84868912
H       -1.99881526      -1.02432440      -0.53061435
H       -1.95738446      -0.52342361       1.16194698
H        2.51656147      -0.24877850      -0.87961730
H        2.67263038      -0.38848484       1.12085421
12
Frame=14 idx=007312 GeodesicLength=0.541893814456944 rxn_smarts="[O:1]([C:2]([c:3]1[n:4][n:5]([H:11])[c:6]([H:12])[n:7]1)([H:9])[H:10])[H:8]>>[O:1]([C:2]([C:3]1=[N:7][C:6]([H:11])([H:12])[N:5]=[N:4]1)([H:9])[H:10])[H:8]"
O       -2.28646019       0.99591475      -0.14074322
C       -1.66743713      -0.23010571       0.15436670
C       -0.17739177      -0.14827591       0.08108207
N        0.42676385       0.81186422      -0.69731006
N        1.68899392       0.70255636      -0.44181761
C        1.88884725      -0.41596282       0.36868480
N        0.67477549      -0.97807304       0.63897564
H       -1.79004079       1.42078926      -0.84632256
H       -2.00534149      -1.01932234      -0.53050817
H       -1.95779405      -0.52469476       1.16401453
H        2.54584655      -0.23700117      -0.88146216
H        2.65923835      -0.37768885       1.13104004
12
Frame=15 idx=007312 GeodesicLength=0.5804348830099499 rxn_smarts="[O:1]([C:2]([c:3]1[n:4][n:5]([H:11])[c:6]([H:12])[n:7]1)([H:9])[H:10])[H:8]>>[O:1]([C:2]([C:3]1=[N:7][C:6]([H:11])([H:12])[N:5]=[N:4]1)([H:9])[H:10])[H:8]"
O       -2.28465984       1.00040660      -0.13236340
C       -1.66919933      -0.22910473       0.15683784
C       -0.17918798      -0.15202344       0.08038249
N        0.42672213       0.80427520      -0.70515960
N        1.68690669       0.69093049      -0.44989146
C        1.88952458      -0.42225058       0.36449588
N        0.67284019      -0.98312007       0.63484550
H       -1.79392131       1.42182714      -0.84388496
H       -2.01218464      -1.01424887      -0.53011497
H       -1.95809060      -0.52575879       1.16627477
H        2.57593175      -0.22399407      -0.88221773
H        2.64531835      -0.36693887       1.14079563
12
Frame=16 idx=007312 GeodesicLength=0.6189610206314022 rxn_smarts="[O:1]([C:2]([c:3]1[n:4][n:5]([H:11])[c:6]([H:12])[n:7]1)([H:9])[H:10])[H:8]>>[O:1]([C:2]([C:3]1=[N:7][C:6]([H:11])([H:12])[N:5]=[N:4]1)([H:9])[H:10])[H:8]"
O       -2.28258917       1.00502694      -0.12385858
C       -1.67098000      -0.22804616       0.15943980
C       -0.18103497      -0.15609360       0.07938768
N        0.42663025       0.79616634      -0.71346309
N        1.68476321       0.67873807      -0.45847775
C        1.89013293      -0.42871109       0.36023717
N        0.67082344      -0.98851839       0.63035914
H       -1.79768946       1.42285926      -0.84138756
H       -2.01941428      -1.00908384      -0.52935922
H       -1.95822309      -0.52655777       1.16875819
H        2.60680339      -0.20956687      -0.88174973
H        2.63077773      -0.35621289       1.15011395
