18
Frame=0 idx=006297 GeodesicLength=0.0 rxn_smarts="[C:1]([C:2]([C@@:3]([C:4]([H:13])([H:14])[H:15])([O:5][C:6]([H:16])([H:17])[H:18])[H:12])([H:10])[H:11])([H:7])([H:8])[H:9]>>[C:1]([C:2]([H:10])([H:11])[H:17])([H:7])([H:8])[H:9].[C:3]([C:4]([H:13])([H:14])[H:15])(=[O+:5][C-:6]([H:16])[H:18])[H:12]"
C       -0.80060684      -2.29497694       0.29894004
C       -0.75727304      -0.77129547       0.15153722
C        0.38022075       1.21015813      -0.53827337
C       -0.56064778       2.35254397      -0.48996884
O        1.27955910       1.11692750       0.38627388
C        1.87926576      -0.11689118       0.51284906
H       -0.29806399      -2.78419713      -0.53950665
H       -0.29642336      -2.61821691       1.21292436
H       -1.82675716      -2.67295552       0.32948832
H       -1.24886102      -0.28663440       0.99938599
H       -1.30980411      -0.49779359      -0.74877792
H        0.57560813       0.70417312      -1.47999731
H       -1.55400653       2.01373347      -0.79740385
H       -0.26726329       3.15656273      -1.17139764
H       -0.62389757       2.75011384       0.52224395
H        2.52768343      -0.12215181       1.38261839
H        0.54137383      -0.67588024       0.37352013
H        2.35989364      -0.46321955      -0.40445577
18
Frame=1 idx=006297 GeodesicLength=0.08804990471570744 rxn_smarts="[C:1]([C:2]([C@@:3]([C:4]([H:13])([H:14])[H:15])([O:5][C:6]([H:16])([H:17])[H:18])[H:12])([H:10])[H:11])([H:7])([H:8])[H:9]>>[C:1]([C:2]([H:10])([H:11])[H:17])([H:7])([H:8])[H:9].[C:3]([C:4]([H:13])([H:14])[H:15])(=[O+:5][C-:6]([H:16])[H:18])[H:12]"
C       -0.81710641      -2.29915254       0.30338808
C       -0.75287259      -0.77720327       0.14286902
C        0.36761516       1.19949941      -0.52918364
C       -0.56332856       2.35113932      -0.48782255
O        1.27112298       1.11551785       0.39748665
C        1.90231911      -0.10299847       0.50558703
H       -0.32390067      -2.80111444      -0.53300804
H       -0.31779908      -2.62002514       1.22075186
H       -1.84778552      -2.66392395       0.33890610
H       -1.24929760      -0.29010023       0.98731346
H       -1.31398119      -0.50960936      -0.75463199
H        0.57352211       0.70562433      -1.47572676
H       -1.55553159       2.02329117      -0.81067092
H       -0.24945585       3.15532137      -1.15980001
H       -0.63899406       2.74315553       0.52580241
H        2.54283060      -0.10906710       1.38100809
H        0.57480080      -0.70311717       0.36294495
H        2.39784236      -0.41723731      -0.41521374
18
Frame=2 idx=006297 GeodesicLength=0.17538620685837586 rxn_smarts="[C:1]([C:2]([C@@:3]([C:4]([H:13])([H:14])[H:15])([O:5][C:6]([H:16])([H:17])[H:18])[H:12])([H:10])[H:11])([H:7])([H:8])[H:9]>>[C:1]([C:2]([H:10])([H:11])[H:17])([H:7])([H:8])[H:9].[C:3]([C:4]([H:13])([H:14])[H:15])(=[O+:5][C-:6]([H:16])[H:18])[H:12]"
C       -0.83297654      -2.30290170       0.30787470
C       -0.74934552      -0.78296021       0.13437805
C        0.35506181       1.18840901      -0.52022228
C       -0.56546824       2.34954902      -0.48575053
O        1.26235830       1.11308324       0.40885516
C        1.92444831      -0.08917436       0.49833164
H       -0.34924251      -2.81693896      -0.52668060
H       -0.33749231      -2.62083856       1.22822820
H       -1.86770348      -2.65530557       0.34886579
H       -1.25070820      -0.29360523       0.97542276
H       -1.31892707      -0.52132988      -0.76027656
H        0.57118310       0.70655811      -1.47134097
H       -1.55630654       2.03305105      -0.82392472
H       -0.23103094       3.15347762      -1.14799898
H       -0.65349853       2.73623007       0.52902400
H        2.55701414      -0.09706845       1.37933328
H        0.60834531      -0.73016728       0.35119154
H        2.43428889      -0.37006792      -0.42531051
18
Frame=3 idx=006297 GeodesicLength=0.2621002898470029 rxn_smarts="[C:1]([C:2]([C@@:3]([C:4]([H:13])([H:14])[H:15])([O:5][C:6]([H:16])([H:17])[H:18])[H:12])([H:10])[H:11])([H:7])([H:8])[H:9]>>[C:1]([C:2]([H:10])([H:11])[H:17])([H:7])([H:8])[H:9].[C:3]([C:4]([H:13])([H:14])[H:15])(=[O+:5][C-:6]([H:16])[H:18])[H:12]"
C       -0.84820538      -2.30620400       0.31242242
C       -0.74674844      -0.78851015       0.12603490
C        0.34257799       1.17691146      -0.51141301
C       -0.56707748       2.34775406      -0.48371966
O        1.25331336       1.10962693       0.42034024
C        1.94568939      -0.07542550       0.49105015
H       -0.37394673      -2.83167368      -0.52042751
H       -0.35559335      -2.62060987       1.23543933
H       -1.88649972      -2.64711993       0.35928820
H       -1.25318768      -0.29706963       0.96364461
H       -1.32460746      -0.53297003      -0.76581479
H        0.56859999       0.70697724      -1.46686678
H       -1.55632029       2.04297974      -0.83715199
H       -0.21202496       3.15103331      -1.13592004
H       -0.66743371       2.72927327       0.53196456
H        2.57032522      -0.08616565       1.37751153
H        0.64201940      -0.75696330       0.33833106
H        2.46911985      -0.32184426      -0.43471324
18
Frame=4 idx=006297 GeodesicLength=0.348295739731201 rxn_smarts="[C:1]([C:2]([C@@:3]([C:4]([H:13])([H:14])[H:15])([O:5][C:6]([H:16])([H:17])[H:18])[H:12])([H:10])[H:11])([H:7])([H:8])[H:9]>>[C:1]([C:2]([H:10])([H:11])[H:17])([H:7])([H:8])[H:9].[C:3]([C:4]([H:13])([H:14])[H:15])(=[O+:5][C-:6]([H:16])[H:18])[H:12]"
C       -0.86279372      -2.30904593       0.31704642
C       -0.74513873      -0.79380489       0.11781285
C        0.33017699       1.16502499      -0.50277159
C       -0.56816634       2.34573548      -0.48170525
O        1.24402149       1.10514667       0.43192103
C        1.96608384      -0.06174790       0.48372465
H       -0.39791287      -2.84532745      -0.51417552
H       -0.37219061      -2.61931188       1.24245183
H       -1.90418818      -2.63938534       0.37011429
H       -1.25681412      -0.30042829       0.95192351
H       -1.33100177      -0.54454092      -0.77133576
H        0.56578588       0.70688077      -1.46232547
H       -1.55556157       2.05304398      -0.85034047
H       -0.19246180       3.14797865      -1.12349918
H       -0.68082133       2.72223767       0.53466265
H        2.58286680      -0.07633896       1.37547304
H        0.67584891      -0.78346380       0.32442360
H        2.50226714      -0.27265284      -0.44340063
18
Frame=5 idx=006297 GeodesicLength=0.43405277235205914 rxn_smarts="[C:1]([C:2]([C@@:3]([C:4]([H:13])([H:14])[H:15])([O:5][C:6]([H:16])([H:17])[H:18])[H:12])([H:10])[H:11])([H:7])([H:8])[H:9]>>[C:1]([C:2]([H:10])([H:11])[H:17])([H:7])([H:8])[H:9].[C:3]([C:4]([H:13])([H:14])[H:15])(=[O+:5][C-:6]([H:16])[H:18])[H:12]"
C       -0.87674849      -2.31141679       0.32176258
C       -0.74457884      -0.79879494       0.10969040
C        0.31787205       1.15276378      -0.49431692
C       -0.56873901       2.34347566      -0.47968014
O        1.23450869       1.09962806       0.44356546
C        1.98566902      -0.04813684       0.47634255
H       -0.42105628      -2.85791554      -0.50786594
H       -0.38735436      -2.61691439       1.24931660
H       -1.92077599      -2.63212482       0.38130091
H       -1.26167895      -0.30362039       0.94020472
H       -1.33809851      -0.55605832      -0.77692846
H        0.56275113       0.70625873      -1.45774412
H       -1.55401941       2.06321926      -0.86346734
H       -0.17236897       3.14430265      -1.11068654
H       -0.69366824       2.71508297       0.53715579
H        2.59472052      -0.06758651       1.37315639
H        0.70986045      -0.80961258       0.30954614
H        2.53370519      -0.22254999      -0.45135208
18
Frame=6 idx=006297 GeodesicLength=0.5194805485560283 rxn_smarts="[C:1]([C:2]([C@@:3]([C:4]([H:13])([H:14])[H:15])([O:5][C:6]([H:16])([H:17])[H:18])[H:12])([H:10])[H:11])([H:7])([H:8])[H:9]>>[C:1]([C:2]([H:10])([H:11])[H:17])([H:7])([H:8])[H:9].[C:3]([C:4]([H:13])([H:14])[H:15])(=[O+:5][C-:6]([H:16])[H:18])[H:12]"
C       -0.89008506      -2.31330534       0.32656846
C       -0.74512273      -0.80343999       0.10165175
C        0.30566651       1.14012746      -0.48606254
C       -0.56879878       2.34095251      -0.47763454
O        1.22480426       1.09306915       0.45525736
C        2.00448912      -0.03457484       0.46890401
H       -0.44333497      -2.86944583      -0.50147651
H       -0.40115257      -2.61340190       1.25604646
H       -1.93629095      -2.62535168       0.39281844
H       -1.26780761      -0.30660034       0.92848044
H       -1.34592101      -0.56751542      -0.78263277
H        0.55950925       0.70509273      -1.45313741
H       -1.55168434       2.07347953      -0.87651780
H       -0.15177726       3.13997780      -1.09746219
H       -0.70597600       2.70778003       0.53945949
H        2.60596777      -0.05986779       1.37053331
H        0.74411882      -0.83541582       0.29371031
H        2.56339552      -0.17156025      -0.45850627
18
Frame=7 idx=006297 GeodesicLength=0.6046282700662127 rxn_smarts="[C:1]([C:2]([C@@:3]([C:4]([H:13])([H:14])[H:15])([O:5][C:6]([H:16])([H:17])[H:18])[H:12])([H:10])[H:11])([H:7])([H:8])[H:9]>>[C:1]([C:2]([H:10])([H:11])[H:17])([H:7])([H:8])[H:9].[C:3]([C:4]([H:13])([H:14])[H:15])(=[O+:5][C-:6]([H:16])[H:18])[H:12]"
C       -0.90281976      -2.31470500       0.33146890
C       -0.74682780      -0.80769450       0.09368092
C        0.29357025       1.12711850      -0.47802863
C       -0.56834555       2.33814865      -0.47555136
O        1.21493436       1.08544829       0.46696038
C        2.02257782      -0.02105060       0.46140221
H       -0.46469108      -2.87994001      -0.49497419
H       -0.41364353      -2.60875372       1.26266315
H       -1.95076076      -2.61908965       0.40463222
H       -1.27525099      -0.30932202       0.91672971
H       -1.35449109      -0.57891337      -0.78850023
H        0.55606553       0.70336490      -1.44853136
H       -1.54854294       2.08380622      -0.88947010
H       -0.13071272       3.13499053      -1.08380227
H       -0.71773963       2.70029532       0.54160032
H        2.61668211      -0.05315253       1.36755449
H        0.77867024      -0.86084794       0.27696399
H        2.59132553      -0.11970309      -0.46479814
18
Frame=8 idx=006297 GeodesicLength=0.6896145567123146 rxn_smarts="[C:1]([C:2]([C@@:3]([C:4]([H:13])([H:14])[H:15])([O:5][C:6]([H:16])([H:17])[H:18])[H:12])([H:10])[H:11])([H:7])([H:8])[H:9]>>[C:1]([C:2]([H:10])([H:11])[H:17])([H:7])([H:8])[H:9].[C:3]([C:4]([H:13])([H:14])[H:15])(=[O+:5][C-:6]([H:16])[H:18])[H:12]"
C       -0.91497196      -2.31560000       0.33645925
C       -0.74976244      -0.81152372       0.08575844
C        0.28158045       1.11372094      -0.47022873
C       -0.56737555       2.33503708      -0.47342689
O        1.20490806       1.07673527       0.47865680
C        2.03997258      -0.00754342       0.45384664
H       -0.48512935      -2.88939374      -0.48836713
H       -0.42485014      -2.60295108       1.26915167
H       -1.96421371      -2.61333868       0.41676371
H       -1.28403821      -0.31175170       0.90495044
H       -1.36386300      -0.59024479      -0.79456066
H        0.55243195       0.70104046      -1.44394401
H       -1.54458343       2.09417613      -0.90230543
H       -0.10919088       3.12929420      -1.06969731
H       -0.72894530       2.69260788       0.54358302
H        2.62692451      -0.04740591       1.36420885
H        0.81360508      -0.88593212       0.25929318
H        2.61750134      -0.06692680      -0.47014183
18
Frame=9 idx=006297 GeodesicLength=0.7747917215674557 rxn_smarts="[C:1]([C:2]([C@@:3]([C:4]([H:13])([H:14])[H:15])([O:5][C:6]([H:16])([H:17])[H:18])[H:12])([H:10])[H:11])([H:7])([H:8])[H:9]>>[C:1]([C:2]([H:10])([H:11])[H:17])([H:7])([H:8])[H:9].[C:3]([C:4]([H:13])([H:14])[H:15])(=[O+:5][C-:6]([H:16])[H:18])[H:12]"
C       -0.92662237      -2.31589956       0.34151993
C       -0.75397658      -0.81492383       0.07789485
C        0.26965042       1.09984226      -0.46261788
C       -0.56591519       2.33152149      -0.47126562
O        1.19467667       1.06689641       0.49043764
C        2.05677930       0.00593719       0.44620272
H       -0.50479644      -2.89774671      -0.48170451
H       -0.43486974      -2.59589566       1.27544333
H       -1.97672431      -2.60795373       0.42923718
H       -1.29415549      -0.31388174       0.89319535
H       -1.37411733      -0.60148656      -0.80077137
H        0.54864735       0.69802890      -1.43930928
H       -1.53982782       2.10449282      -0.91503333
H       -0.08730347       3.12281745      -1.05525776
H       -0.73960348       2.68466158       0.54539884
H        2.63678219      -0.04264346       1.36041810
H        0.84913026      -0.91089390       0.24057393
H        2.64224603      -0.01287294      -0.47436212
18
Frame=10 idx=006297 GeodesicLength=0.8598980690165371 rxn_smarts="[C:1]([C:2]([C@@:3]([C:4]([H:13])([H:14])[H:15])([O:5][C:6]([H:16])([H:17])[H:18])[H:12])([H:10])[H:11])([H:7])([H:8])[H:9]>>[C:1]([C:2]([H:10])([H:11])[H:17])([H:7])([H:8])[H:9].[C:3]([C:4]([H:13])([H:14])[H:15])(=[O+:5][C-:6]([H:16])[H:18])[H:12]"
C       -0.93769356      -2.31565741       0.34666197
C       -0.75957562      -0.81780548       0.07004787
C        0.25782130       1.08555351      -0.45526731
C       -0.56392446       2.32765836      -0.46904849
O        1.18428631       1.05588183       0.50218387
C        2.07293039       0.01942652       0.43851337
H       -0.52344964      -2.90504904      -0.47492977
H       -0.44362323      -2.58759813       1.28157999
H       -1.98821818      -2.60313507       0.44203015
H       -1.30571446      -0.31564473       0.88141326
H       -1.38531059      -0.61264142      -0.80722939
H        0.54468975       0.69436087      -1.43472967
H       -1.53422124       2.11482375      -0.92761480
H       -0.06495929       3.11557246      -1.04036610
H       -0.74967203       2.67647495       0.54707977
H        2.64628139      -0.03879027       1.35618784
H        0.88520178      -0.93547069       0.22094440
H        2.66515137       0.04203998      -0.47745697
18
Frame=11 idx=006297 GeodesicLength=0.9449402308571413 rxn_smarts="[C:1]([C:2]([C@@:3]([C:4]([H:13])([H:14])[H:15])([O:5][C:6]([H:16])([H:17])[H:18])[H:12])([H:10])[H:11])([H:7])([H:8])[H:9]>>[C:1]([C:2]([H:10])([H:11])[H:17])([H:7])([H:8])[H:9].[C:3]([C:4]([H:13])([H:14])[H:15])(=[O+:5][C-:6]([H:16])[H:18])[H:12]"
C       -0.94819726      -2.31485805       0.35187141
C       -0.76662651      -0.82012634       0.06220301
C        0.24608522       1.07084457      -0.44818373
C       -0.56139768       2.32342999      -0.46677742
O        1.17373080       1.04366861       0.51389311
C        2.08842864       0.03293698       0.43080730
H       -0.54105444      -2.91129681      -0.46806681
H       -0.45110642      -2.57804088       1.28752505
H       -1.99870792      -2.59890214       0.45515660
H       -1.31874083      -0.31701091       0.86962188
H       -1.39752627      -0.62369070      -0.81393628
H        0.54056955       0.69000529      -1.43021170
H       -1.52775346       2.12514889      -0.94003476
H       -0.04215176       3.10751770      -1.02504287
H       -0.75912859       2.66804624       0.54862489
H        2.65547576      -0.03579283       1.35149830
H        0.92191202      -0.95965359       0.20041192
H        2.68618914       0.09777397      -0.47935991
18
Frame=12 idx=006297 GeodesicLength=1.029972430829471 rxn_smarts="[C:1]([C:2]([C@@:3]([C:4]([H:13])([H:14])[H:15])([O:5][C:6]([H:16])([H:17])[H:18])[H:12])([H:10])[H:11])([H:7])([H:8])[H:9]>>[C:1]([C:2]([H:10])([H:11])[H:17])([H:7])([H:8])[H:9].[C:3]([C:4]([H:13])([H:14])[H:15])(=[O+:5][C-:6]([H:16])[H:18])[H:12]"
C       -0.95813429      -2.31347609       0.35713927
C       -0.77521695      -0.82184150       0.05433982
C        0.23443108       1.05569153      -0.44138193
C       -0.55832336       2.31881220      -0.46445384
O        1.16299558       1.03019602       0.52554873
C        2.10328190       0.04649347       0.42311698
H       -0.55758745      -2.91647165      -0.46113228
H       -0.45730098      -2.56716458       1.29323762
H       -2.00818905      -2.59527604       0.46865220
H       -1.33327152      -0.31794745       0.85783806
H       -1.41087234      -0.63461349      -0.82089586
H        0.53629248       0.68492067      -1.42577378
H       -1.52039884       2.13545235      -0.95228767
H       -0.01886350       3.09860137      -1.00927977
H       -0.76795417       2.65935388       0.55003661
H        2.66440027      -0.03360411       1.34634548
H        0.95938339      -0.98344340       0.17893857
H        2.70532776       0.15431681      -0.47998820
18
Frame=13 idx=006297 GeodesicLength=1.1150049358502718 rxn_smarts="[C:1]([C:2]([C@@:3]([C:4]([H:13])([H:14])[H:15])([O:5][C:6]([H:16])([H:17])[H:18])[H:12])([H:10])[H:11])([H:7])([H:8])[H:9]>>[C:1]([C:2]([H:10])([H:11])[H:17])([H:7])([H:8])[H:9].[C:3]([C:4]([H:13])([H:14])[H:15])(=[O+:5][C-:6]([H:16])[H:18])[H:12]"
C       -0.96751917      -2.31148337       0.36245217
C       -0.78542497      -0.82291772       0.04643898
C        0.22284624       1.04006636      -0.43487675
C       -0.55468102       2.31377841      -0.46207652
O        1.15206893       1.01540560       0.53712574
C        2.11749131       0.06010559       0.41546585
H       -0.57302876      -2.92056455      -0.45413948
H       -0.46219680      -2.55492098       1.29867798
H       -2.01666236      -2.59226858       0.48253671
H       -1.34933215      -0.31843261       0.84608206
H       -1.42545737      -0.64539221      -0.82810235
H        0.53185925       0.67905975      -1.42143397
H       -1.51213775       2.14571743      -0.96435635
H        0.00492021       3.08877684      -0.99309577
H       -0.77611179       2.65037845       0.55132359
H        2.67309652      -0.03216149       1.34071569
H        0.99773813      -1.00682862       0.15649272
H        2.72253157       0.21168171      -0.47923031
18
Frame=14 idx=006297 GeodesicLength=1.2000947015080161 rxn_smarts="[C:1]([C:2]([C@@:3]([C:4]([H:13])([H:14])[H:15])([O:5][C:6]([H:16])([H:17])[H:18])[H:12])([H:10])[H:11])([H:7])([H:8])[H:9]>>[C:1]([C:2]([H:10])([H:11])[H:17])([H:7])([H:8])[H:9].[C:3]([C:4]([H:13])([H:14])[H:15])(=[O+:5][C-:6]([H:16])[H:18])[H:12]"
C       -0.97635538      -2.30885446       0.36779767
C       -0.79733005      -0.82331307       0.03847590
C        0.21131271       1.02394209      -0.42868020
C       -0.55046296       2.30829860      -0.45965611
O        1.14094094       0.99924763       0.54862860
C        2.13106557       0.07380395       0.40788067
H       -0.58736810      -2.92354745      -0.44712509
H       -0.46575611      -2.54126364       1.30378440
H       -2.02413083      -2.58988340       0.49687224
H       -1.36692976      -0.31843614       0.83439025
H       -1.44141402      -0.65599690      -0.83552932
H        0.52728418       0.67237709      -1.41720117
H       -1.50294548       2.15592442      -0.97624735
H        0.02921753       3.07798657      -0.97650798
H       -0.78358537       2.64110456       0.55247525
H        2.68158653      -0.03142334       1.33461726
H        1.03712525      -1.02982594       0.13298562
H        2.73774535       0.26985942      -0.47696064
18
Frame=15 idx=006297 GeodesicLength=1.2852795862042126 rxn_smarts="[C:1]([C:2]([C@@:3]([C:4]([H:13])([H:14])[H:15])([O:5][C:6]([H:16])([H:17])[H:18])[H:12])([H:10])[H:11])([H:7])([H:8])[H:9]>>[C:1]([C:2]([H:10])([H:11])[H:17])([H:7])([H:8])[H:9].[C:3]([C:4]([H:13])([H:14])[H:15])(=[O+:5][C-:6]([H:16])[H:18])[H:12]"
C       -0.98464423      -2.30555444       0.37316400
C       -0.81101533      -0.82299116       0.03042181
C        0.19981211       1.00728351      -0.42280956
C       -0.54565291       2.30234029      -0.45720008
O        1.12959949       0.98165352       0.56003490
C        2.14400199       0.08761100       0.40039149
H       -0.60059542      -2.92538876      -0.44011578
H       -0.46793633      -2.52612780       1.30849704
H       -2.03058163      -2.58811649       0.51171630
H       -1.38607659      -0.31793249       0.82279401
H       -1.45887954      -0.66640176      -0.84315265
H        0.52257337       0.66481947      -1.41309130
H       -1.49279596       2.16605238      -0.98795899
H        0.05404098       3.06617870      -0.95953656
H       -0.79034316       2.63150869       0.55349010
H        2.68988219      -0.03135553       1.32805158
H        1.07770551      -1.05242627       0.10833161
H        2.75090545       0.32884714      -0.47302792
18
Frame=16 idx=006297 GeodesicLength=1.3706094642192366 rxn_smarts="[C:1]([C:2]([C@@:3]([C:4]([H:13])([H:14])[H:15])([O:5][C:6]([H:16])([H:17])[H:18])[H:12])([H:10])[H:11])([H:7])([H:8])[H:9]>>[C:1]([C:2]([H:10])([H:11])[H:17])([H:7])([H:8])[H:9].[C:3]([C:4]([H:13])([H:14])[H:15])(=[O+:5][C-:6]([H:16])[H:18])[H:12]"
C       -0.99238795      -2.30154744       0.37853450
C       -0.82656656      -0.82191573       0.02225717
C        0.18831864       0.99004960      -0.41727954
C       -0.54023410       2.29587089      -0.45472388
O        1.11803202       0.96254588       0.57133326
C        2.15630020       0.10155427       0.39302656
H       -0.61270043      -2.92604958      -0.43314933
H       -0.46868982      -2.50945407       1.31274490
H       -2.03600063      -2.58696731       0.52712336
H       -1.40677926      -0.31689536       0.81134250
H       -1.47800608      -0.67657470      -0.85092934
H        0.51772914       0.65632435      -1.40911428
H       -1.48166133       2.17608275      -0.99949660
H        0.07941967       3.05329246      -0.94221683
H       -0.79635180       2.62156904       0.55436129
H        2.69800459      -0.03190224       1.32102169
H        1.11964586      -1.07461706       0.08242253
H        2.76192784       0.38863426      -0.46725795
