11
Frame=0 idx=004759 GeodesicLength=0.0 rxn_smarts="[N:1]([C:2](=[O:3])[C:4]([C:5]#[C:6][H:11])([H:9])[H:10])([H:7])[H:8]>>[C:4](=[C:5]=[C:6]([H:8])[H:11])([H:9])[H:10].[N:1](=[C:2]=[O:3])[H:7]"
N       -0.95296142       1.08366721       0.23167639
C       -1.33710479      -0.11870072       0.20869085
O       -2.24824690      -0.88020278       0.30264412
C        0.22216747      -1.28017596      -0.12810341
C        1.21940160      -0.36413659      -0.22631250
C        1.65565820       0.81060481      -0.21187424
H       -1.66111718       1.77990663       0.39722874
H        0.48955418       1.24978175       0.00841792
H        0.17301480      -1.89022885       0.76734875
H       -0.12314595      -1.76421513      -1.03519324
H        2.56278000       1.37369964      -0.31452336
11
Frame=1 idx=004759 GeodesicLength=0.07562360271413192 rxn_smarts="[N:1]([C:2](=[O:3])[C:4]([C:5]#[C:6][H:11])([H:9])[H:10])([H:7])[H:8]>>[C:4](=[C:5]=[C:6]([H:8])[H:11])([H:9])[H:10].[N:1](=[C:2]=[O:3])[H:7]"
N       -0.95228892       1.07546296       0.29233108
C       -1.35131462      -0.12169563       0.22811267
O       -2.26777263      -0.87418850       0.33649287
C        0.22492656      -1.28002397      -0.13986370
C        1.22296773      -0.36314007      -0.24555622
C        1.65676629       0.81256911      -0.22662475
H       -1.66323433       1.78778804       0.31579922
H        0.48331289       1.26193584       0.02229806
H        0.19278084      -1.89786411       0.75124854
H       -0.11972761      -1.76707394      -1.04586066
H        2.57358380       1.36623027      -0.28837710
11
Frame=2 idx=004759 GeodesicLength=0.15181239521956505 rxn_smarts="[N:1]([C:2](=[O:3])[C:4]([C:5]#[C:6][H:11])([H:9])[H:10])([H:7])[H:8]>>[C:4](=[C:5]=[C:6]([H:8])[H:11])([H:9])[H:10].[N:1](=[C:2]=[O:3])[H:7]"
N       -0.95799116       1.07055015       0.32671978
C       -1.36375164      -0.12561588       0.26135171
O       -2.28562710      -0.86849261       0.38476672
C        0.22647601      -1.27872753      -0.15377801
C        1.22538073      -0.36084227      -0.26507268
C        1.65765041       0.81534937      -0.23470077
H       -1.65639977       1.78829430       0.22290967
H        0.47852529       1.27325986       0.05203213
H        0.21505115      -1.91051977       0.72828263
H       -0.12162916      -1.76235767      -1.06057406
H        2.58231523       1.35910203      -0.26193709
11
Frame=3 idx=004759 GeodesicLength=0.22854823234984595 rxn_smarts="[N:1]([C:2](=[O:3])[C:4]([C:5]#[C:6][H:11])([H:9])[H:10])([H:7])[H:8]>>[C:4](=[C:5]=[C:6]([H:8])[H:11])([H:9])[H:10].[N:1](=[C:2]=[O:3])[H:7]"
N       -0.96702636       1.06769830       0.34785364
C       -1.37610585      -0.12934097       0.29665228
O       -2.30330373      -0.86194336       0.43634764
C        0.22729402      -1.27639055      -0.16763997
C        1.22735793      -0.35769154      -0.28320154
C        1.65808155       0.81883654      -0.24039638
H       -1.64319055       1.78150670       0.13036599
H        0.47530900       1.28345227       0.09208578
H        0.23624549      -1.92323745       0.70371809
H       -0.12395136      -1.75536282      -1.07597813
H        2.58928986       1.35247289      -0.23980740
11
Frame=4 idx=004759 GeodesicLength=0.3056045384523039 rxn_smarts="[N:1]([C:2](=[O:3])[C:4]([C:5]#[C:6][H:11])([H:9])[H:10])([H:7])[H:8]>>[C:4](=[C:5]=[C:6]([H:8])[H:11])([H:9])[H:10].[N:1](=[C:2]=[O:3])[H:7]"
N       -0.97794956       1.06722875       0.35859456
C       -1.38655511      -0.13229609       0.33862853
O       -2.31891226      -0.85390023       0.49650067
C        0.22718046      -1.27270920      -0.18269972
C        1.22911472      -0.35375468      -0.30125536
C        1.65953273       0.82228859      -0.24111305
H       -1.62849141       1.76499051       0.03550205
H        0.47113032       1.29437548       0.12657055
H        0.25726168      -1.93726042       0.67502073
H       -0.12933989      -1.74342224      -1.09356527
H        2.59702832       1.34445952      -0.21218370
11
Frame=5 idx=004759 GeodesicLength=0.3832863366112964 rxn_smarts="[N:1]([C:2](=[O:3])[C:4]([C:5]#[C:6][H:11])([H:9])[H:10])([H:7])[H:8]>>[C:4](=[C:5]=[C:6]([H:8])[H:11])([H:9])[H:10].[N:1](=[C:2]=[O:3])[H:7]"
N       -0.98993800       1.06765866       0.36470663
C       -1.39649662      -0.13412934       0.38019274
O       -2.33362488      -0.84402661       0.55866340
C        0.22658445      -1.26819127      -0.19767893
C        1.23116933      -0.34952519      -0.31766200
C        1.66158646       0.82565228      -0.23923581
H       -1.61120783       1.74077605      -0.05468809
H        0.46561938       1.30614923       0.15586298
H        0.27616138      -1.95049082       0.64534972
H       -0.13451791      -1.72986192      -1.11165589
H        2.60466424       1.33598893      -0.18385475
11
Frame=6 idx=004759 GeodesicLength=0.46146543774787074 rxn_smarts="[N:1]([C:2](=[O:3])[C:4]([C:5]#[C:6][H:11])([H:9])[H:10])([H:7])[H:8]>>[C:4](=[C:5]=[C:6]([H:8])[H:11])([H:9])[H:10].[N:1](=[C:2]=[O:3])[H:7]"
N       -1.00269562       1.06850677       0.36779612
C       -1.40621081      -0.13487125       0.41977665
O       -2.34742922      -0.83230305       0.62192238
C        0.22573262      -1.26308200      -0.21253364
C        1.23360518      -0.34519625      -0.33292593
C        1.66415931       0.82879275      -0.23617149
H       -1.59194855       1.71038350      -0.13844377
H        0.45854137       1.31912451       0.17891451
H        0.29299873      -1.96240482       0.61546808
H       -0.13885345      -1.71579757      -1.12990442
H        2.61210043       1.32684741      -0.15389849
11
Frame=7 idx=004759 GeodesicLength=0.5400412871588114 rxn_smarts="[N:1]([C:2](=[O:3])[C:4]([C:5]#[C:6][H:11])([H:9])[H:10])([H:7])[H:8]>>[C:4](=[C:5]=[C:6]([H:8])[H:11])([H:9])[H:10].[N:1](=[C:2]=[O:3])[H:7]"
N       -1.01607174       1.06950233       0.36841703
C       -1.41586730      -0.13464832       0.45679993
O       -2.36035928      -0.81866700       0.68571628
C        0.22482865      -1.25761043      -0.22727623
C        1.23651185      -0.34092537      -0.34733216
C        1.66715528       0.83167615      -0.23278832
H       -1.57146488       1.67528158      -0.21523736
H        0.45006323       1.33330206       0.19644541
H        0.30800237      -1.97294199       0.58575992
H       -0.14193153      -1.70188972      -1.14821186
H        2.61913335       1.31692070      -0.12229263
11
Frame=8 idx=004759 GeodesicLength=0.6189301414247943 rxn_smarts="[N:1]([C:2](=[O:3])[C:4]([C:5]#[C:6][H:11])([H:9])[H:10])([H:7])[H:8]>>[C:4](=[C:5]=[C:6]([H:8])[H:11])([H:9])[H:10].[N:1](=[C:2]=[O:3])[H:7]"
N       -1.02998002       1.07055820       0.36670812
C       -1.42527174      -0.13352154       0.49194324
O       -2.37217397      -0.80299921       0.75028157
C        0.22395204      -1.25188932      -0.24206847
C        1.23999894      -0.33686370      -0.36094258
C        1.67065770       0.83417042      -0.22909202
H       -1.55061471       1.63605578      -0.28586014
H        0.44027614       1.34879679       0.20859707
H        0.32138395      -1.98250394       0.55595083
H       -0.14387154      -1.68793350      -1.16682828
H        2.62564322       1.30613001      -0.08868935
11
Frame=9 idx=004759 GeodesicLength=0.6981093406693641 rxn_smarts="[N:1]([C:2](=[O:3])[C:4]([C:5]#[C:6][H:11])([H:9])[H:10])([H:7])[H:8]>>[C:4](=[C:5]=[C:6]([H:8])[H:11])([H:9])[H:10].[N:1](=[C:2]=[O:3])[H:7]"
N       -1.04433610       1.07141944       0.36322421
C       -1.43475480      -0.13170265       0.52463153
O       -2.38313131      -0.78524596       0.81491059
C        0.22325630      -1.24612354      -0.25686057
C        1.24411653      -0.33312058      -0.37376596
C        1.67446846       0.83633028      -0.22544987
H       -1.52938783       1.59401121      -0.35017900
H        0.42942022       1.36526554       0.21690311
H        0.33326626      -1.99108969       0.52642433
H       -0.14420452      -1.67449414      -1.18567348
H        2.63128680       1.29475009      -0.05416489
11
Frame=10 idx=004759 GeodesicLength=0.7775367704726375 rxn_smarts="[N:1]([C:2](=[O:3])[C:4]([C:5]#[C:6][H:11])([H:9])[H:10])([H:7])[H:8]>>[C:4](=[C:5]=[C:6]([H:8])[H:11])([H:9])[H:10].[N:1](=[C:2]=[O:3])[H:7]"
N       -1.05907880       1.07196318       0.35820296
C       -1.44437475      -0.12933302       0.55504862
O       -2.39319047      -0.76531122       0.87960898
C        0.22281571      -1.24042410      -0.27174783
C        1.24887558      -0.32976040      -0.38594778
C        1.67853189       0.83814098      -0.22194190
H       -1.50802070       1.54985248      -0.40863163
H        0.41758140       1.38258653       0.22184269
H        0.34387090      -1.99886782       0.49715626
H       -0.14287594      -1.66169060      -1.20484071
H        2.63586517       1.28284400      -0.01874965
11
Frame=11 idx=004759 GeodesicLength=0.8571603901546541 rxn_smarts="[N:1]([C:2](=[O:3])[C:4]([C:5]#[C:6][H:11])([H:9])[H:10])([H:7])[H:8]>>[C:4](=[C:5]=[C:6]([H:8])[H:11])([H:9])[H:10].[N:1](=[C:2]=[O:3])[H:7]"
N       -1.07414259       1.07212682       0.35178390
C       -1.45404010      -0.12647340       0.58368387
O       -2.40218329      -0.74308705       0.94446606
C        0.22266302      -1.23485816      -0.28684217
C        1.25429574      -0.32685179      -0.39758355
C        1.68285131       0.83954929      -0.21854472
H       -1.48681445       1.50392189      -0.46177131
H        0.40480244       1.40072934       0.22347738
H        0.35337218      -2.00606635       0.46798033
H       -0.13998368      -1.64942877      -1.22446377
H        2.63917943       1.27043819       0.01781399
11
Frame=12 idx=004759 GeodesicLength=0.9369463856625109 rxn_smarts="[N:1]([C:2](=[O:3])[C:4]([C:5]#[C:6][H:11])([H:9])[H:10])([H:7])[H:8]>>[C:4](=[C:5]=[C:6]([H:8])[H:11])([H:9])[H:10].[N:1](=[C:2]=[O:3])[H:7]"
N       -1.08947255       1.07166906       0.34455282
C       -1.46435012      -0.12348722       0.60969960
O       -2.41060003      -0.71852251       1.00871848
C        0.22292514      -1.22959879      -0.30205218
C        1.26030394      -0.32438724      -0.40875400
C        1.68717838       0.84068880      -0.21555845
H       -1.46535415       1.45759168      -0.50928873
H        0.39127519       1.41918415       0.22355536
H        0.36198043      -2.01252737       0.43943131
H       -0.13497242      -1.63847761      -1.24435159
H        2.64108617       1.25786706       0.05404739
11
Frame=13 idx=004759 GeodesicLength=1.0168652501675104 rxn_smarts="[N:1]([C:2](=[O:3])[C:4]([C:5]#[C:6][H:11])([H:9])[H:10])([H:7])[H:8]>>[C:4](=[C:5]=[C:6]([H:8])[H:11])([H:9])[H:10].[N:1](=[C:2]=[O:3])[H:7]"
N       -1.10506318       1.07064368       0.33623694
C       -1.47489570      -0.12026237       0.63420196
O       -2.41776165      -0.69145868       1.07326830
C        0.22354341      -1.22460483      -0.31763220
C        1.26694786      -0.32242878      -0.41948134
C        1.69167568       0.84140292      -0.21255691
H       -1.44423893       1.41037055      -0.55228526
H        0.37686537       1.43822305       0.22103678
H        0.36977127      -2.01868094       0.41085117
H       -0.12831735      -1.62814942      -1.26486846
H        2.64147321       1.24494482       0.09122903
11
Frame=14 idx=004759 GeodesicLength=1.0968867589256366 rxn_smarts="[N:1]([C:2](=[O:3])[C:4]([C:5]#[C:6][H:11])([H:9])[H:10])([H:7])[H:8]>>[C:4](=[C:5]=[C:6]([H:8])[H:11])([H:9])[H:10].[N:1](=[C:2]=[O:3])[H:7]"
N       -1.12089580       1.06888864       0.32716513
C       -1.48609523      -0.11706687       0.65673644
O       -2.42378089      -0.66178097       1.13787930
C        0.22458126      -1.21997483      -0.33358641
C        1.27415983      -0.32095412      -0.42983224
C        1.69619982       0.84175565      -0.20960966
H       -1.42327915       1.36308238      -0.59076406
H        0.36163816       1.45754719       0.21690416
H        0.37689785      -2.02447223       0.38247228
H       -0.11971601      -1.61885175      -1.28595508
H        2.64029015       1.23182691       0.12859015
11
Frame=15 idx=004759 GeodesicLength=1.1769496052866533 rxn_smarts="[N:1]([C:2](=[O:3])[C:4]([C:5]#[C:6][H:11])([H:9])[H:10])([H:7])[H:8]>>[C:4](=[C:5]=[C:6]([H:8])[H:11])([H:9])[H:10].[N:1](=[C:2]=[O:3])[H:7]"
N       -1.13692779       1.06633898       0.31758575
C       -1.49813083      -0.11403442       0.67740897
O       -2.42864009      -0.62946220       1.20224624
C        0.22604412      -1.21575632      -0.34991979
C        1.28190263      -0.31998097      -0.43977759
C        1.70069668       0.84174843      -0.20671609
H       -1.40246088       1.31612100      -0.62492542
H        0.34562922       1.47701833       0.21163091
H        0.38344934      -2.02996882       0.35434060
H       -0.10910632      -1.61067157      -1.30759089
H        2.63754391       1.21864757       0.16571732
11
Frame=16 idx=004759 GeodesicLength=1.2569955236778487 rxn_smarts="[N:1]([C:2](=[O:3])[C:4]([C:5]#[C:6][H:11])([H:9])[H:10])([H:7])[H:8]>>[C:4](=[C:5]=[C:6]([H:8])[H:11])([H:9])[H:10].[N:1](=[C:2]=[O:3])[H:7]"
N       -1.15313771       1.06294016       0.30767635
C       -1.51120585      -0.11128667       0.69629985
O       -2.43222305      -0.59449136       1.26621510
C        0.22792179      -1.21197783      -0.36665438
C        1.29013489      -0.31951853      -0.44926237
C        1.70512421       0.84137486      -0.20379995
H       -1.38180491       1.26979361      -0.65502047
H        0.32883583       1.49654291       0.20558535
H        0.38947778      -2.03524180       0.32645487
H       -0.09644698      -1.60363573      -1.32977755
H        2.63332402       1.20550038       0.20228320
