14
Frame=0 idx=007373 GeodesicLength=0.0 rxn_smarts="[C:1]1([H:8])([H:9])[C@@:2]2([H:10])[C:3]([H:11])([H:12])[O:4][C:5]([H:13])=[N:6][C@@:7]12[H:14]>>[C:1]1([H:8])([H:9])[C:2]([H:10])=[C:3]([H:11])[O:4][C:5]([H:12])([H:13])[N:6]=[C:7]1[H:14]"
C       -1.38568311      -0.46873815       0.30948732
C       -0.83957500       0.75572956      -0.33597883
C        0.36559185       1.26072213       0.14642684
O        0.88470887       0.55118844       1.25764351
C        1.55813821      -0.35013218       0.39589547
N        0.92192109      -1.27650153      -0.31050453
C       -0.37408666      -1.20143601      -0.51184137
H       -1.26694195      -0.52435760       1.38509747
H       -2.39968569      -0.70776953       0.00517533
H       -1.32917423       1.21299205      -1.18464396
H        0.62355747       2.31352224       0.10588813
H        1.40043596       0.68426843      -0.55526061
H        2.59089230      -0.52456715       0.67999609
H       -0.75009906      -1.72492074      -1.38738088
14
Frame=1 idx=007373 GeodesicLength=0.05763263650062344 rxn_smarts="[C:1]1([H:8])([H:9])[C@@:2]2([H:10])[C:3]([H:11])([H:12])[O:4][C:5]([H:13])=[N:6][C@@:7]12[H:14]>>[C:1]1([H:8])([H:9])[C:2]([H:10])=[C:3]([H:11])[O:4][C:5]([H:12])([H:13])[N:6]=[C:7]1[H:14]"
C       -1.38965300      -0.46790432       0.30567830
C       -0.83624513       0.75382064      -0.33786221
C        0.36721216       1.26806866       0.14278162
O        0.90092261       0.55745814       1.24599707
C        1.56647597      -0.35273184       0.38933708
N        0.92172792      -1.28607608      -0.30206931
C       -0.37400881      -1.19951591      -0.51122312
H       -1.27651957      -0.52737599       1.38185065
H       -2.40247851      -0.70512612      -0.00468356
H       -1.33422079       1.22122880      -1.17615566
H        0.60310904       2.32651313       0.12285205
H        1.41136966       0.69229942      -0.56731370
H        2.59345744      -0.53960405       0.68603499
H       -0.75114898      -1.74105449      -1.37522421
14
Frame=2 idx=007373 GeodesicLength=0.11521296207326306 rxn_smarts="[C:1]1([H:8])([H:9])[C@@:2]2([H:10])[C:3]([H:11])([H:12])[O:4][C:5]([H:13])=[N:6][C@@:7]12[H:14]>>[C:1]1([H:8])([H:9])[C:2]([H:10])=[C:3]([H:11])[O:4][C:5]([H:12])([H:13])[N:6]=[C:7]1[H:14]"
C       -1.39361998      -0.46697417       0.30170985
C       -0.83277515       0.75195723      -0.33982611
C        0.36892477       1.27553406       0.13901347
O        0.91746887       0.56382250       1.23386099
C        1.57496978      -0.35539511       0.38247647
N        0.92138257      -1.29576621      -0.29310284
C       -0.37386447      -1.19759169      -0.51060500
H       -1.28638118      -0.53031674       1.37842606
H       -2.40519349      -0.70234988      -0.01484434
H       -1.33914352       1.22951449      -1.16742398
H        0.58214369       2.33888099       0.14066335
H        1.42237499       0.70038374      -0.57981478
H        2.59585574      -0.55443615       0.69196628
H       -0.75214261      -1.75726306      -1.36249943
14
Frame=3 idx=007373 GeodesicLength=0.17272341071845687 rxn_smarts="[C:1]1([H:8])([H:9])[C@@:2]2([H:10])[C:3]([H:11])([H:12])[O:4][C:5]([H:13])=[N:6][C@@:7]12[H:14]>>[C:1]1([H:8])([H:9])[C:2]([H:10])=[C:3]([H:11])[O:4][C:5]([H:12])([H:13])[N:6]=[C:7]1[H:14]"
C       -1.39759300      -0.46595189       0.29759002
C       -0.82917669       0.75013946      -0.34185483
C        0.37071774       1.28312214       0.13513679
O        0.93434004       0.57028335       1.22122767
C        1.58360540      -0.35813040       0.37532267
N        0.92086847      -1.30555678      -0.28355759
C       -0.37365488      -1.19567071      -0.50996886
H       -1.29654592      -0.53318141       1.37483010
H       -2.40783465      -0.69945259      -0.02530298
H       -1.34391377       1.23780912      -1.15847306
H        0.56072012       2.35052170       0.15930621
H        1.43343276       0.70851399      -0.59276786
H        2.59809889      -0.56899524       0.69775257
H       -0.75306451      -1.77345073      -1.34924085
14
Frame=4 idx=007373 GeodesicLength=0.23015097983728844 rxn_smarts="[C:1]1([H:8])([H:9])[C@@:2]2([H:10])[C:3]([H:11])([H:12])[O:4][C:5]([H:13])=[N:6][C@@:7]12[H:14]>>[C:1]1([H:8])([H:9])[C:2]([H:10])=[C:3]([H:11])[O:4][C:5]([H:12])([H:13])[N:6]=[C:7]1[H:14]"
C       -1.40158522      -0.46484305       0.29333427
C       -0.82546469       0.74836527      -0.34392736
C        0.37257643       1.29083544       0.13117121
O        0.95152674       0.57684063       1.20809172
C        1.59236762      -0.36094575       0.36788732
N        0.92017398      -1.31543118      -0.27338089
C       -0.37338324      -1.19376359      -0.50929025
H       -1.30703614      -0.53597160       1.37107818
H       -2.41041063      -0.69644764      -0.03604949
H       -1.34850554       1.24606549      -1.14933423
H        0.53890791       2.36132134       0.17874336
H        1.44452153       0.71668483      -0.60617439
H        2.60020315      -0.58321306       0.70335857
H       -0.75389190      -1.78949714      -1.33550802
14
Frame=5 idx=007373 GeodesicLength=0.2874817025931113 rxn_smarts="[C:1]1([H:8])([H:9])[C@@:2]2([H:10])[C:3]([H:11])([H:12])[O:4][C:5]([H:13])=[N:6][C@@:7]12[H:14]>>[C:1]1([H:8])([H:9])[C:2]([H:10])=[C:3]([H:11])[O:4][C:5]([H:12])([H:13])[N:6]=[C:7]1[H:14]"
C       -1.40559699      -0.46366132       0.28895116
C       -0.82166225       0.74663590      -0.34600082
C        0.37448194       1.29865823       0.12714514
O        0.96903416       0.58349681       1.19446514
C        1.60122392      -0.36386367       0.36020975
N        0.91927054      -1.32535150      -0.26256269
C       -0.37307428      -1.19187603      -0.50853863
H       -1.31786452      -0.53870495       1.36715186
H       -2.41290467      -0.69336331      -0.04706861
H       -1.35289165       1.25422525      -1.13998238
H        0.51675313       2.37132368       0.19884904
H        1.45562686       0.72487685      -0.62002239
H        2.60217738      -0.59710585       0.70876870
H       -0.75457359      -1.80529009      -1.32136527
14
Frame=6 idx=007373 GeodesicLength=0.3447010532364836 rxn_smarts="[C:1]1([H:8])([H:9])[C@@:2]2([H:10])[C:3]([H:11])([H:12])[O:4][C:5]([H:13])=[N:6][C@@:7]12[H:14]>>[C:1]1([H:8])([H:9])[C:2]([H:10])=[C:3]([H:11])[O:4][C:5]([H:12])([H:13])[N:6]=[C:7]1[H:14]"
C       -1.40965294      -0.46239593       0.28443886
C       -0.81776071       0.74494448      -0.34809881
C        0.37641952       1.30661871       0.12307358
O        0.98684177       0.59024789       1.18031015
C        1.61018303      -0.36686542       0.35223921
N        0.91814710      -1.33530233      -0.25101876
C       -0.37269359      -1.19001882      -0.50769319
H       -1.32907544      -0.54135640       1.36307721
H       -2.41534284      -0.69017782      -0.05839860
H       -1.35701089       1.26228125      -1.13054551
H        0.49434790       2.38025232       0.21982176
H        1.46671283       0.73312263      -0.63433637
H        2.60406074      -0.61049750       0.71389080
H       -0.75517648      -1.82085306      -1.30676033
14
Frame=7 idx=007373 GeodesicLength=0.4018254454520023 rxn_smarts="[C:1]1([H:8])([H:9])[C@@:2]2([H:10])[C:3]([H:11])([H:12])[O:4][C:5]([H:13])=[N:6][C@@:7]12[H:14]>>[C:1]1([H:8])([H:9])[C:2]([H:10])=[C:3]([H:11])[O:4][C:5]([H:12])([H:13])[N:6]=[C:7]1[H:14]"
C       -1.41375582      -0.46105980       0.27981979
C       -0.81378333       0.74329767      -0.35015933
C        0.37838466       1.31469360       0.11899305
O        1.00496002       0.59709116       1.16564592
C        1.61921079      -0.36998386       0.34405156
N        0.91680529      -1.34524582      -0.23874148
C       -0.37227169      -1.18819399      -0.50670343
H       -1.34068864      -0.54393902       1.35884610
H       -2.41770842      -0.68692792      -0.07001822
H       -1.36088559       1.27017986      -1.12094360
H        0.47170450       2.38821669       0.24142113
H        1.47777190       0.74138594      -0.64909888
H        2.60585149      -0.62347879       0.71872128
H       -0.75559515      -1.83603574      -1.29183389
14
Frame=8 idx=007373 GeodesicLength=0.4588672743720873 rxn_smarts="[C:1]1([H:8])([H:9])[C@@:2]2([H:10])[C:3]([H:11])([H:12])[O:4][C:5]([H:13])=[N:6][C@@:7]12[H:14]>>[C:1]1([H:8])([H:9])[C:2]([H:10])=[C:3]([H:11])[O:4][C:5]([H:12])([H:13])[N:6]=[C:7]1[H:14]"
C       -1.41794179      -0.45965090       0.27508110
C       -0.80974330       0.74169251      -0.35220048
C        0.38033443       1.32291500       0.11492644
O        1.02337033       0.60401892       1.15045055
C        1.62829571      -0.37320412       0.33559227
N        0.91521353      -1.35514183      -0.22565298
C       -0.37180157      -1.18641378      -0.50554851
H       -1.35276287      -0.54643737       1.35446333
H       -2.42003029      -0.68360984      -0.08197599
H       -1.36446384       1.27791028      -1.11130642
H        0.44899445       2.39498131       0.26384016
H        1.48876811       0.74971012      -0.66433027
H        2.60764828      -0.63587897       0.72317178
H       -0.75588117      -1.85089134      -1.27651098
14
Frame=9 idx=007373 GeodesicLength=0.515756537010845 rxn_smarts="[C:1]1([H:8])([H:9])[C@@:2]2([H:10])[C:3]([H:11])([H:12])[O:4][C:5]([H:13])=[N:6][C@@:7]12[H:14]>>[C:1]1([H:8])([H:9])[C:2]([H:10])=[C:3]([H:11])[O:4][C:5]([H:12])([H:13])[N:6]=[C:7]1[H:14]"
C       -1.42220319      -0.45819639       0.27024757
C       -0.80565544       0.74010687      -0.35413699
C        0.38227466       1.33120851       0.11093497
O        1.04208116       0.61103529       1.13473270
C        1.63741761      -0.37655592       0.32691900
N        0.91337519      -1.36497590      -0.21174874
C       -0.37128700      -1.18469959      -0.50419438
H       -1.36530471      -0.54890631       1.34991645
H       -2.42228090      -0.68023862      -0.09425017
H       -1.36774359       1.28545575      -1.10155738
H        0.42622141       2.40066951       0.28678059
H        1.49967966       0.75807231      -0.67998852
H        2.60940118      -0.64774790       0.72725858
H       -0.75597603      -1.86522761      -1.26091370
14
Frame=10 idx=007373 GeodesicLength=0.5725780556089664 rxn_smarts="[C:1]1([H:8])([H:9])[C@@:2]2([H:10])[C:3]([H:11])([H:12])[O:4][C:5]([H:13])=[N:6][C@@:7]12[H:14]>>[C:1]1([H:8])([H:9])[C:2]([H:10])=[C:3]([H:11])[O:4][C:5]([H:12])([H:13])[N:6]=[C:7]1[H:14]"
C       -1.42658536      -0.45666949       0.26531265
C       -0.80152561       0.73856293      -0.35601113
C        0.38416745       1.33965868       0.10701612
O        1.06107478       0.61813679       1.11845669
C        1.64655810      -0.38001698       0.31799541
N        0.91127336      -1.37467569      -0.19693512
C       -0.37072610      -1.18304139      -0.50257483
H       -1.37838868      -0.55125578       1.34522884
H       -2.42450025      -0.67682957      -0.10688891
H       -1.37070494       1.29276512      -1.09183473
H        0.40353917       2.40498929       0.31052079
H        1.51047547       0.76650049      -0.69612979
H        2.61123011      -0.65897607       0.73087592
H       -0.75588751      -1.87914833      -1.24503192
14
Frame=11 idx=007373 GeodesicLength=0.629283435442421 rxn_smarts="[C:1]1([H:8])([H:9])[C@@:2]2([H:10])[C:3]([H:11])([H:12])[O:4][C:5]([H:13])=[N:6][C@@:7]12[H:14]>>[C:1]1([H:8])([H:9])[C:2]([H:10])=[C:3]([H:11])[O:4][C:5]([H:12])([H:13])[N:6]=[C:7]1[H:14]"
C       -1.43107590      -0.45510650       0.26029238
C       -0.79737743       0.73704539      -0.35774118
C        0.38600891       1.34819369       0.10322600
O        1.08036042       0.62532456       1.10163569
C        1.65569469      -0.38362648       0.30887529
N        0.90889924      -1.38420911      -0.18124423
C       -0.37013045      -1.18145494      -0.50066456
H       -1.39201619      -0.55357860       1.34037148
H       -2.42664102      -0.67339909      -0.11987460
H       -1.37331090       1.29983494      -1.08208842
H        0.38094820       2.40816497       0.33481433
H        1.52113513       0.77496999      -0.71272285
H        2.61309081      -0.66963250       0.73404077
H       -0.75558551      -1.89252633      -1.22892010
14
Frame=12 idx=007373 GeodesicLength=0.6859056220259558 rxn_smarts="[C:1]1([H:8])([H:9])[C@@:2]2([H:10])[C:3]([H:11])([H:12])[O:4][C:5]([H:13])=[N:6][C@@:7]12[H:14]>>[C:1]1([H:8])([H:9])[C:2]([H:10])=[C:3]([H:11])[O:4][C:5]([H:12])([H:13])[N:6]=[C:7]1[H:14]"
C       -1.43571178      -0.45349169       0.25518061
C       -0.79321655       0.73556263      -0.35933519
C        0.38777427       1.35685345       0.09958730
O        1.09991973       0.63259601       1.08423512
C        1.66481023      -0.38736285       0.29953769
N        0.90626342      -1.39351319      -0.16460949
C       -0.36949127      -1.17993302      -0.49841394
H       -1.40625335      -0.55581894       1.33535349
H       -2.42873624      -0.66995640      -0.13325544
H       -1.37558279       1.30665401      -1.07237300
H        0.35860019       2.40997574       0.35977013
H        1.53162589       0.78351276      -0.72979274
H        2.61505741      -0.67964931       0.73670054
H       -0.75505917      -1.90542920      -1.21258508
14
Frame=13 idx=007373 GeodesicLength=0.7424433427839903 rxn_smarts="[C:1]1([H:8])([H:9])[C@@:2]2([H:10])[C:3]([H:11])([H:12])[O:4][C:5]([H:13])=[N:6][C@@:7]12[H:14]>>[C:1]1([H:8])([H:9])[C:2]([H:10])=[C:3]([H:11])[O:4][C:5]([H:12])([H:13])[N:6]=[C:7]1[H:14]"
C       -1.44050427      -0.45183141       0.24996003
C       -0.78904428       0.73410735      -0.36077315
C        0.38945660       1.36561979       0.09613521
O        1.11976100       0.63994860       1.06622815
C        1.67389099      -0.39123658       0.28997059
N        0.90335935      -1.40252898      -0.14700343
C       -0.36880820      -1.17848663      -0.49579860
H       -1.42114396      -0.55798697       1.33013838
H       -2.43076958      -0.66650000      -0.14708336
H       -1.37751509       1.31325158      -1.06268591
H        0.33654247       2.41040711       0.38539784
H        1.54192540       0.79214374      -0.74735094
H        2.61715184      -0.68901958       0.73882547
H       -0.75430226      -1.91788802      -1.19596029
14
Frame=14 idx=007373 GeodesicLength=0.7989403723484769 rxn_smarts="[C:1]1([H:8])([H:9])[C@@:2]2([H:10])[C:3]([H:11])([H:12])[O:4][C:5]([H:13])=[N:6][C@@:7]12[H:14]>>[C:1]1([H:8])([H:9])[C:2]([H:10])=[C:3]([H:11])[O:4][C:5]([H:12])([H:13])[N:6]=[C:7]1[H:14]"
C       -1.44547323      -0.45011849       0.24461057
C       -0.78486665       0.73269033      -0.36204892
C        0.39104251       1.37450397       0.09289415
O        1.13988800       0.64738635       1.04757849
C        1.68292321      -0.39524853       0.28016700
N        0.90019112      -1.41119664      -0.12838825
C       -0.36808023      -1.17710924      -0.49277642
H       -1.43674758      -0.56006582       1.32469558
H       -2.43273161      -0.66303201      -0.16141882
H       -1.37910799       1.31964542      -1.05302725
H        0.31483867       2.40940105       0.41176549
H        1.55200459       0.80087156      -0.76543022
H        2.61941259      -0.69774501       0.74037166
H       -0.75329341      -1.92998293      -1.17899305
14
Frame=15 idx=007373 GeodesicLength=0.8553620256835481 rxn_smarts="[C:1]1([H:8])([H:9])[C@@:2]2([H:10])[C:3]([H:11])([H:12])[O:4][C:5]([H:13])=[N:6][C@@:7]12[H:14]>>[C:1]1([H:8])([H:9])[C:2]([H:10])=[C:3]([H:11])[O:4][C:5]([H:12])([H:13])[N:6]=[C:7]1[H:14]"
C       -1.45062524      -0.44836829       0.23914289
C       -0.78070016       0.73130686      -0.36311539
C        0.39252275       1.38348619       0.08990608
O        1.16028279       0.65490932       1.02827182
C        1.69187854      -0.39940630       0.27015389
N        0.89676533      -1.41944448      -0.10877682
C       -0.36730877      -1.17580337      -0.48931294
H       -1.45308273      -0.56208961       1.31901676
H       -2.43460912      -0.65957480      -0.17626229
H       -1.38034435       1.32581516      -1.04342293
H        0.29357988       2.40696362       0.43879529
H        1.56183185       0.80969634      -0.78402666
H        2.62183608      -0.70583141       0.74134362
H       -0.75202684      -1.94165921      -1.16171331
14
Frame=16 idx=007373 GeodesicLength=0.9117455219306179 rxn_smarts="[C:1]1([H:8])([H:9])[C@@:2]2([H:10])[C:3]([H:11])([H:12])[O:4][C:5]([H:13])=[N:6][C@@:7]12[H:14]>>[C:1]1([H:8])([H:9])[C:2]([H:10])=[C:3]([H:11])[O:4][C:5]([H:12])([H:13])[N:6]=[C:7]1[H:14]"
C       -1.45597938      -0.44657341       0.23353452
C       -0.77654875       0.72996681      -0.36396407
C        0.39388713       1.39257495       0.08719598
O        1.18094558       0.66252093       1.00826128
C        1.70074297      -0.40370966       0.25992127
N        0.89309325      -1.42720151      -0.08813679
C       -0.36649183      -1.17456300      -0.48536709
H       -1.47021054      -0.56404172       1.31306340
H       -2.43638867      -0.65612898      -0.19167769
H       -1.38123357       1.33178694      -1.03387195
H        0.27283809       2.40301567       0.46655971
H        1.57137387       0.81862822      -0.80317939
H        2.62445180      -0.71327966       0.74171277
H       -0.75047996      -1.95299559      -1.14405194
