12
Frame=0 idx=003035 GeodesicLength=0.0 rxn_smarts="[O:1]=[C:2]([C:3]([C:4]([C:5](=[O:6])[H:12])([H:10])[H:11])([H:8])[H:9])[H:7]>>[O:1]=[C:2]([C:3]([H:7])([H:8])[H:9])[O:6][C:5](=[C:4]([H:10])[H:11])[H:12]"
O       -1.61389953       0.31437251      -1.25388148
C       -0.92482652      -0.49165570      -0.62348856
C       -0.73087287      -0.55347551       0.82007340
C        0.81126120       1.13700293       0.27771207
C        1.26886128       0.16113674      -0.54890273
O        0.49614975      -0.74707377      -1.10631916
H       -1.39060850      -1.58467843      -0.46244113
H       -0.01698096      -1.26390150       1.21689186
H       -1.55982452      -0.25073662       1.45544945
H       -0.18514076       1.55465825       0.12625075
H        1.52050977       1.72728329       0.84047187
H        2.32537167      -0.00293214      -0.74181637
12
Frame=1 idx=003035 GeodesicLength=0.09947347726089127 rxn_smarts="[O:1]=[C:2]([C:3]([C:4]([C:5](=[O:6])[H:12])([H:10])[H:11])([H:8])[H:9])[H:7]>>[O:1]=[C:2]([C:3]([H:7])([H:8])[H:9])[O:6][C:5](=[C:4]([H:10])[H:11])[H:12]"
O       -1.63772324       0.29379983      -1.26252394
C       -0.93631175      -0.49825513      -0.63337010
C       -0.72612973      -0.55743775       0.80982831
C        0.80750915       1.13790787       0.28200756
C        1.27124220       0.17336043      -0.55897684
O        0.50531453      -0.72847523      -1.13090117
H       -1.40827198      -1.59478226      -0.42465592
H       -0.01361013      -1.27421423       1.19894382
H       -1.53674374      -0.23463158       1.45838502
H       -0.17298741       1.58168548       0.10589160
H        1.51546334       1.70823571       0.86709495
H        2.33224876      -0.00719314      -0.71172330
12
Frame=2 idx=003035 GeodesicLength=0.19890634803339527 rxn_smarts="[O:1]=[C:2]([C:3]([C:4]([C:5](=[O:6])[H:12])([H:10])[H:11])([H:8])[H:9])[H:7]>>[O:1]=[C:2]([C:3]([H:7])([H:8])[H:9])[O:6][C:5](=[C:4]([H:10])[H:11])[H:12]"
O       -1.66065546       0.27254112      -1.27125059
C       -0.94763356      -0.50574286      -0.64316573
C       -0.72145657      -0.56161142       0.79958681
C        0.80358858       1.13876120       0.28645938
C        1.27417412       0.18524675      -0.56785006
O        0.51489415      -0.70912883      -1.15530240
H       -1.42708091      -1.60355979      -0.38632119
H       -0.01041975      -1.28464156       1.18114709
H       -1.51354980      -0.21934385       1.46050015
H       -0.15931518       1.60901349       0.08589494
H        1.50961026       1.68940319       0.89293074
H        2.33784411      -0.01093744      -0.68262915
12
Frame=3 idx=003035 GeodesicLength=0.2983220967843166 rxn_smarts="[O:1]=[C:2]([C:3]([C:4]([C:5](=[O:6])[H:12])([H:10])[H:11])([H:8])[H:9])[H:7]>>[O:1]=[C:2]([C:3]([H:7])([H:8])[H:9])[O:6][C:5](=[C:4]([H:10])[H:11])[H:12]"
O       -1.68274047       0.25050124      -1.28009982
C       -0.95879313      -0.51418520      -0.65290350
C       -0.71680262      -0.56601604       0.78931650
C        0.79945524       1.13962696       0.29100121
C        1.27758360       0.19688588      -0.57566158
O        0.52486270      -0.68892887      -1.17959956
H       -1.44716160      -1.61093610      -0.34729335
H       -0.00733188      -1.29519807       1.16342166
H       -1.49023689      -0.20492203       1.46181320
H       -0.14411908       1.63667935       0.06635504
H        1.50295225       1.67080521       0.91800426
H        2.34233189      -0.01431233      -0.65435404
12
Frame=4 idx=003035 GeodesicLength=0.39772565584164027 rxn_smarts="[O:1]=[C:2]([C:3]([C:4]([C:5](=[O:6])[H:12])([H:10])[H:11])([H:8])[H:9])[H:7]>>[O:1]=[C:2]([C:3]([H:7])([H:8])[H:9])[O:6][C:5](=[C:4]([H:10])[H:11])[H:12]"
O       -1.70401308       0.22757897      -1.28912124
C       -0.96978932      -0.52365832      -0.66260757
C       -0.71212990      -0.57066139       0.77898776
C        0.79507176       1.14055395       0.29558366
C        1.28139819       0.20836237      -0.58253738
O        0.53518961      -0.66778226      -1.20385016
H       -1.46857405      -1.61682728      -0.30744612
H       -0.00428750      -1.30589574       1.14570301
H       -1.46681513      -0.19140340       1.46233140
H       -0.12738627       1.66472658       0.04738770
H        1.49551247       1.65245367       0.94232931
H        2.34582322      -0.01744715      -0.62676037
12
Frame=5 idx=003035 GeodesicLength=0.4971382800471313 rxn_smarts="[O:1]=[C:2]([C:3]([C:4]([C:5](=[O:6])[H:12])([H:10])[H:11])([H:8])[H:9])[H:7]>>[O:1]=[C:2]([C:3]([H:7])([H:8])[H:9])[O:6][C:5](=[C:4]([H:10])[H:11])[H:12]"
O       -1.72453604       0.20364590      -1.29838304
C       -0.98062719      -0.53423427      -0.67230484
C       -0.70740218      -0.57554309       0.76855907
C        0.79040124       1.14159711       0.30015219
C        1.28553386       0.21978473      -0.58861871
O        0.54582210      -0.64558430      -1.22811482
H       -1.49127957      -1.62114844      -0.26664411
H       -0.00122351      -1.31672841       1.12792040
H       -1.44329709      -0.17880482       1.46205083
H       -0.10909307       1.69320901       0.02913942
H        1.48732966       1.63431634       0.96592080
H        2.34837180      -0.02050977      -0.59967718
12
Frame=6 idx=003035 GeodesicLength=0.5965777799039436 rxn_smarts="[O:1]=[C:2]([C:3]([C:4]([C:5](=[O:6])[H:12])([H:10])[H:11])([H:8])[H:9])[H:7]>>[O:1]=[C:2]([C:3]([H:7])([H:8])[H:9])[O:6][C:5](=[C:4]([H:10])[H:11])[H:12]"
O       -1.74428011       0.17856562      -1.30794757
C       -0.99127465      -0.54601211      -0.68201486
C       -0.70260851      -0.58068586       0.75800956
C        0.78542009       1.14276174       0.30469599
C        1.28994998       0.23118592      -0.59397523
O        0.55674438      -0.62225275      -1.25241810
H       -1.51526480      -1.62373314      -0.22475044
H        0.00185766      -1.32773380       1.11004403
H       -1.41971576      -0.16711371       1.46096730
H       -0.08916112       1.72217053       0.01172349
H        1.47836426       1.61637450       0.98881228
H        2.34996857      -0.02352696      -0.57314644
12
Frame=7 idx=003035 GeodesicLength=0.6960184681351388 rxn_smarts="[O:1]=[C:2]([C:3]([C:4]([C:5](=[O:6])[H:12])([H:10])[H:11])([H:8])[H:9])[H:7]>>[O:1]=[C:2]([C:3]([H:7])([H:8])[H:9])[O:6][C:5](=[C:4]([H:10])[H:11])[H:12]"
O       -1.76326448       0.15218399      -1.31787753
C       -1.00171859      -0.55908586      -0.69175174
C       -0.69775224      -0.58608698       0.74731713
C        0.78008998       1.14406796       0.30917704
C        1.29456908       0.24262486      -0.59870616
O        0.56789425      -0.59770296      -1.27678948
H       -1.54037421      -1.62443557      -0.18168978
H        0.00495146      -1.33889834       1.09205669
H       -1.39610506      -0.15630715       1.45907810
H       -0.06753265       1.75166519      -0.00469790
H        1.46863664       1.59857299       1.01102878
H        2.35060582      -0.02659813      -0.54714517
12
Frame=8 idx=003035 GeodesicLength=0.795437393583709 rxn_smarts="[O:1]=[C:2]([C:3]([C:4]([C:5](=[O:6])[H:12])([H:10])[H:11])([H:8])[H:9])[H:7]>>[O:1]=[C:2]([C:3]([H:7])([H:8])[H:9])[O:6][C:5](=[C:4]([H:10])[H:11])[H:12]"
O       -1.78149123       0.12431815      -1.32823276
C       -1.01193724      -0.57354768      -0.70151570
C       -0.69284891      -0.59173033       0.73647198
C        0.77437060       1.14553447       0.31356626
C        1.29931261       0.25415287      -0.60292119
O        0.57919616      -0.57186212      -1.30125046
H       -1.56638630      -1.62311289      -0.13743914
H        0.00804131      -1.35019491       1.07397270
H       -1.37252338      -0.14633837       1.45637894
H       -0.04413408       1.78178396      -0.01992623
H        1.45815792       1.58082971       1.03259024
H        2.35024253      -0.02983288      -0.52169465
12
Frame=9 idx=003035 GeodesicLength=0.8946708530728193 rxn_smarts="[O:1]=[C:2]([C:3]([C:4]([C:5](=[O:6])[H:12])([H:10])[H:11])([H:8])[H:9])[H:7]>>[O:1]=[C:2]([C:3]([H:7])([H:8])[H:9])[O:6][C:5](=[C:4]([H:10])[H:11])[H:12]"
O       -1.79922540       0.09457590      -1.33914019
C       -1.02194817      -0.58957777      -0.71134747
C       -0.68804433      -0.59744476       0.72542415
C        0.76824806       1.14725278       0.31785716
C        1.30399364       0.26593761      -0.60678841
O        0.59032665      -0.54452976      -1.32573517
H       -1.59253534      -1.61992104      -0.09197949
H        0.01103065      -1.36141252       1.05589450
H       -1.34919569      -0.13685806       1.45275173
H       -0.01855568       1.81260845      -0.03380678
H        1.44711335       1.56254714       1.05380967
H        2.34879226      -0.03317797      -0.49693968
12
Frame=10 idx=003035 GeodesicLength=0.9938190311372214 rxn_smarts="[O:1]=[C:2]([C:3]([C:4]([C:5](=[O:6])[H:12])([H:10])[H:11])([H:8])[H:9])[H:7]>>[O:1]=[C:2]([C:3]([H:7])([H:8])[H:9])[O:6][C:5](=[C:4]([H:10])[H:11])[H:12]"
O       -1.81626437       0.06292394      -1.35058973
C       -1.03170007      -0.60716497      -0.72118732
C       -0.68329866      -0.60332847       0.71421965
C        0.76169315       1.14916360       0.32201320
C        1.30861669       0.27788291      -0.61030139
O        0.60137830      -0.51577209      -1.35026721
H       -1.61893919      -1.61450102      -0.04544498
H        0.01392750      -1.37262054       1.03786395
H       -1.32611152      -0.12802433       1.44827044
H        0.00911636       1.84415272      -0.04604336
H        1.43536142       1.54405372       1.07440704
H        2.34622039      -0.03676546      -0.47294030
12
Frame=11 idx=003035 GeodesicLength=1.0929200819302807 rxn_smarts="[O:1]=[C:2]([C:3]([C:4]([C:5](=[O:6])[H:12])([H:10])[H:11])([H:8])[H:9])[H:7]>>[O:1]=[C:2]([C:3]([H:7])([H:8])[H:9])[O:6][C:5](=[C:4]([H:10])[H:11])[H:12]"
O       -1.83268088       0.02914493      -1.36264092
C       -1.04118725      -0.62636605      -0.73102907
C       -0.67868309      -0.60931485       0.70286155
C        0.75470274       1.15128531       0.32602005
C        1.31308024       0.29003137      -0.61354824
O        0.61221199      -0.48550426      -1.37481696
H       -1.64519597      -1.60684806       0.00206735
H        0.01667659      -1.38372116       1.01998540
H       -1.30340541      -0.11969652       1.44290230
H        0.03905745       1.87644705      -0.05642768
H        1.42297022       1.52518400       1.09442289
H        2.34245336      -0.04064176      -0.44979667
12
Frame=12 idx=003035 GeodesicLength=1.1919946907604217 rxn_smarts="[O:1]=[C:2]([C:3]([C:4]([C:5](=[O:6])[H:12])([H:10])[H:11])([H:8])[H:9])[H:7]>>[O:1]=[C:2]([C:3]([H:7])([H:8])[H:9])[O:6][C:5](=[C:4]([H:10])[H:11])[H:12]"
O       -1.84851928      -0.00701038      -1.37534270
C       -1.05038300      -0.64724269      -0.74085340
C       -0.67427970      -0.61533250       0.69135864
C        0.74727972       1.15363604       0.32987565
C        1.31728412       0.30241575      -0.61660941
O        0.62267691      -0.45365643      -1.39935149
H       -1.67093870      -1.59696490       0.05041210
H        0.01921710      -1.39458593       1.00240004
H       -1.28122642      -0.11172090       1.43660873
H        0.07148253       1.90952743      -0.06470959
H        1.40997561       1.50575959       1.11387359
H        2.33743110      -0.04482508      -0.42766215
12
Frame=13 idx=003035 GeodesicLength=1.2910723050727557 rxn_smarts="[O:1]=[C:2]([C:3]([C:4]([C:5](=[O:6])[H:12])([H:10])[H:11])([H:8])[H:9])[H:7]>>[O:1]=[C:2]([C:3]([H:7])([H:8])[H:9])[O:6][C:5](=[C:4]([H:10])[H:11])[H:12]"
O       -1.86380614      -0.04579685      -1.38871952
C       -1.05925003      -0.66986807      -0.75064405
C       -0.67017885      -0.62131095       0.67972100
C        0.73941920       1.15623562       0.33357196
C        1.32112090       0.31506534      -0.61957640
O        0.63262132      -0.42015883      -1.42384824
H       -1.69580400      -1.58482753       0.09941940
H        0.02148884      -1.40507166       0.98526796
H       -1.25971718      -0.10391899       1.42934812
H        0.10658824       1.94338617      -0.07064048
H        1.39641592       1.48559197       1.13279318
H        2.33110179      -0.04932622      -0.40669293
12
Frame=14 idx=003035 GeodesicLength=1.3901439473103672 rxn_smarts="[O:1]=[C:2]([C:3]([C:4]([C:5](=[O:6])[H:12])([H:10])[H:11])([H:8])[H:9])[H:7]>>[O:1]=[C:2]([C:3]([H:7])([H:8])[H:9])[O:6][C:5](=[C:4]([H:10])[H:11])[H:12]"
O       -1.87855045      -0.08750606      -1.40277672
C       -1.06774068      -0.69430421      -0.76036150
C       -0.66648985      -0.62712220       0.66797052
C        0.73113055       1.15914311       0.33708352
C        1.32447116       0.32801545      -0.62253918
O        0.64183992      -0.38491380      -1.44828031
H       -1.71940629      -1.57059664       0.14882987
H        0.02341677      -1.41496320       0.96881190
H       -1.23907862      -0.09606224       1.42105104
H        0.14469213       1.97801523      -0.07387677
H        1.38232991       1.46446410       1.15117009
H        2.32338545      -0.05416955      -0.38708247
12
Frame=15 idx=003035 GeodesicLength=1.4892074892978808 rxn_smarts="[O:1]=[C:2]([C:3]([C:4]([C:5](=[O:6])[H:12])([H:10])[H:11])([H:8])[H:9])[H:7]>>[O:1]=[C:2]([C:3]([H:7])([H:8])[H:9])[O:6][C:5](=[C:4]([H:10])[H:11])[H:12]"
O       -1.89271830      -0.13244176      -1.41750437
C       -1.07578336      -0.72064614      -0.76996139
C       -0.66331624      -0.63265898       0.65612975
C        0.72241583       1.16242377       0.34038001
C        1.32721878       0.34130542      -0.62559902
O        0.65013667      -0.34782512      -1.47262402
H       -1.74146282      -1.55434779       0.19838399
H        0.02494344      -1.42404995       0.95326877
H       -1.21949901      -0.08791989       1.41164037
H        0.18611527       2.01332217      -0.07405844
H        1.36773099       1.44217006       1.16898975
H        2.31421875      -0.05933180      -0.36904540
12
Frame=16 idx=003035 GeodesicLength=1.5882623609114979 rxn_smarts="[O:1]=[C:2]([C:3]([C:4]([C:5](=[O:6])[H:12])([H:10])[H:11])([H:8])[H:9])[H:7]>>[O:1]=[C:2]([C:3]([H:7])([H:8])[H:9])[O:6][C:5](=[C:4]([H:10])[H:11])[H:12]"
O       -1.90626099      -0.18090172      -1.43288137
C       -1.08330188      -0.74898588      -0.77939399
C       -0.66076603      -0.63778363       0.64422260
C        0.71329448       1.16617596       0.34341825
C        1.32924534       0.35498581      -0.62886613
O        0.65728567      -0.30878624      -1.49685380
H       -1.76170877      -1.53625248       0.24778791
H        0.02602032      -1.43208255       0.93891582
H       -1.20118258      -0.07922182       1.40101259
H        0.23121313       2.04915142      -0.07076507
H        1.35262878       1.41850156       1.18620391
H        2.30353253      -0.06480043      -0.35280072
