13
Frame=0 idx=000689 GeodesicLength=0.0 rxn_smarts="[C:1]([c:2]1[c:3]([H:10])[n:4]([H:11])[c:5]([H:12])[c:6]1[H:13])([H:7])([H:8])[H:9]>>[C+:1]([C:2]1=[C:3]([H:10])[N:4]([H:11])[C-:5]([H:12])[C:6]1([H:7])[H:13])([H:8])[H:9]"
C        2.02693373       0.11842392      -0.19732674
C        0.60414058       0.08694669      -0.15027657
C       -0.24235578      -1.06735363      -0.27745604
N       -1.56131157      -0.65822198      -0.14898778
C       -1.58599142       0.66900320       0.15215664
C       -0.32776725       1.17045936       0.16654613
H        0.83098869      -0.61435470       0.81127506
H        2.58057730      -0.72457011      -0.58143020
H        2.54562860       0.99768823       0.14758932
H        0.02983534      -2.06056070      -0.59339813
H       -2.33085754      -1.28394313      -0.00686223
H       -2.52263589       1.16933104       0.34604863
H       -0.04718484       2.19715179       0.33212186
13
Frame=1 idx=000689 GeodesicLength=0.12654341392995627 rxn_smarts="[C:1]([c:2]1[c:3]([H:10])[n:4]([H:11])[c:5]([H:12])[c:6]1[H:13])([H:7])([H:8])[H:9]>>[C+:1]([C:2]1=[C:3]([H:10])[N:4]([H:11])[C-:5]([H:12])[C:6]1([H:7])[H:13])([H:8])[H:9]"
C        2.02391886       0.11193569      -0.19774881
C        0.60076053       0.08481276      -0.17908856
C       -0.24357941      -1.07164112      -0.27433134
N       -1.56083684      -0.65522107      -0.16869230
C       -1.58648633       0.66626345       0.15217039
C       -0.31974074       1.15582655       0.21195702
H        0.84070788      -0.56435519       0.85112662
H        2.57738347      -0.73683161      -0.57034644
H        2.54381330       1.00669739       0.10351545
H        0.02595255      -2.06984164      -0.57657929
H       -2.33723959      -1.27865132      -0.05522114
H       -2.52182767       1.16180094       0.36310289
H       -0.04282600       2.18920516       0.34013552
13
Frame=2 idx=000689 GeodesicLength=0.2531900641840432 rxn_smarts="[C:1]([c:2]1[c:3]([H:10])[n:4]([H:11])[c:5]([H:12])[c:6]1[H:13])([H:7])([H:8])[H:9]>>[C+:1]([C:2]1=[C:3]([H:10])[N:4]([H:11])[C-:5]([H:12])[C:6]1([H:7])[H:13])([H:8])[H:9]"
C        2.02036924       0.10537830      -0.19565999
C        0.59719737       0.08231588      -0.20466801
C       -0.24490145      -1.07540664      -0.27350030
N       -1.56003743      -0.65232874      -0.18659194
C       -1.58641273       0.66309682       0.15429600
C       -0.31208654       1.14207118       0.24608437
H        0.85045468      -0.51225663       0.89098379
H        2.57359820      -0.74888075      -0.55707130
H        2.54153929       1.01358198       0.06091331
H        0.02152176      -2.07749621      -0.56545440
H       -2.34209282      -1.27327369      -0.09976314
H       -2.52040662       1.15343100       0.38195929
H       -0.03874296       2.17976748       0.34847231
13
Frame=3 idx=000689 GeodesicLength=0.3798840055363999 rxn_smarts="[C:1]([c:2]1[c:3]([H:10])[n:4]([H:11])[c:5]([H:12])[c:6]1[H:13])([H:7])([H:8])[H:9]>>[C+:1]([C:2]1=[C:3]([H:10])[N:4]([H:11])[C-:5]([H:12])[C:6]1([H:7])[H:13])([H:8])[H:9]"
C        2.01649858       0.09871490      -0.19125450
C        0.59368774       0.07942644      -0.22762435
C       -0.24637233      -1.07870586      -0.27532427
N       -1.55908913      -0.64970521      -0.20254914
C       -1.58613177       0.65933265       0.15842996
C       -0.30471237       1.12927392       0.27239460
H        0.86051882      -0.45802128       0.93070130
H        2.56942263      -0.76088333      -0.54157895
H        2.53916817       1.01796120       0.02047828
H        0.01652125      -2.08364727      -0.56058022
H       -2.34574905      -1.26808580      -0.14041622
H       -2.51871783       1.14408610       0.40254505
H       -0.03504470       2.17025354       0.35477845
13
Frame=4 idx=000689 GeodesicLength=0.5065718491384051 rxn_smarts="[C:1]([c:2]1[c:3]([H:10])[n:4]([H:11])[c:5]([H:12])[c:6]1[H:13])([H:7])([H:8])[H:9]>>[C+:1]([C:2]1=[C:3]([H:10])[N:4]([H:11])[C-:5]([H:12])[C:6]1([H:7])[H:13])([H:8])[H:9]"
C        2.01238337       0.09196143      -0.18485154
C        0.59033522       0.07619383      -0.24833292
C       -0.24801518      -1.08160791      -0.27995891
N       -1.55812492      -0.64745310      -0.21647868
C       -1.58578834       0.65490024       0.16442360
C       -0.29754136       1.11730126       0.29345193
H        0.87129832      -0.40145536       0.97022877
H        2.56487739      -0.77290894      -0.52407897
H        2.53696388       1.01966938      -0.01736786
H        0.01097804      -2.08841744      -0.56215252
H       -2.34851621      -1.26322760      -0.17707133
H       -2.51693306       1.13389842       0.42426005
H       -0.03191717       2.16114580       0.35792838
13
Frame=5 idx=000689 GeodesicLength=0.6332868396207101 rxn_smarts="[C:1]([c:2]1[c:3]([H:10])[n:4]([H:11])[c:5]([H:12])[c:6]1[H:13])([H:7])([H:8])[H:9]>>[C+:1]([C:2]1=[C:3]([H:10])[N:4]([H:11])[C-:5]([H:12])[C:6]1([H:7])[H:13])([H:8])[H:9]"
C        2.00803541       0.08508748      -0.17674258
C        0.58717203       0.07266213      -0.26711212
C       -0.24984206      -1.08416913      -0.28747919
N       -1.55722927      -0.64561962      -0.22847477
C       -1.58544668       0.64969310       0.17224768
C       -0.29051896       1.10601214       0.31079435
H        0.88322383      -0.34207022       1.00957107
H        2.55989136      -0.78512963      -0.50456363
H        2.53506914       1.01872986      -0.05280097
H        0.00493489      -2.09198039      -0.56990335
H       -2.35067890      -1.25873213      -0.21006445
H       -2.51513475       1.12298939       0.44667117
H       -0.02947604       2.15252703       0.35785680
13
Frame=6 idx=000689 GeodesicLength=0.7599526643157055 rxn_smarts="[C:1]([c:2]1[c:3]([H:10])[n:4]([H:11])[c:5]([H:12])[c:6]1[H:13])([H:7])([H:8])[H:9]>>[C+:1]([C:2]1=[C:3]([H:10])[N:4]([H:11])[C-:5]([H:12])[C:6]1([H:7])[H:13])([H:8])[H:9]"
C        2.00347144       0.07802432      -0.16707883
C        0.58423256       0.06886477      -0.28426938
C       -0.25189569      -1.08642462      -0.29805454
N       -1.55648577      -0.64422883      -0.23877138
C       -1.58508438       0.64364071       0.18184549
C       -0.28365234       1.09532242       0.32526890
H        0.89656628      -0.27916790       1.04868320
H        2.55443172      -0.79779332      -0.48277644
H        2.53363854       1.01512919      -0.08597983
H       -0.00157210      -2.09444253      -0.58365579
H       -2.35247405      -1.25462238      -0.23969284
H       -2.51329646       1.11132112       0.46992294
H       -0.02787975       2.14437707       0.35455851
13
Frame=7 idx=000689 GeodesicLength=0.8865897119184519 rxn_smarts="[C:1]([c:2]1[c:3]([H:10])[n:4]([H:11])[c:5]([H:12])[c:6]1[H:13])([H:7])([H:8])[H:9]>>[C+:1]([C:2]1=[C:3]([H:10])[N:4]([H:11])[C-:5]([H:12])[C:6]1([H:7])[H:13])([H:8])[H:9]"
C        1.99867369       0.07066468      -0.15590027
C        0.58153324       0.06482693      -0.30003181
C       -0.25422598      -1.08834507      -0.31191242
N       -1.55593674      -0.64327610      -0.24761398
C       -1.58465805       0.63654130       0.19341909
C       -0.27692534       1.08515231       0.33747810
H        0.91165661      -0.21187750       1.08748119
H        2.54837268      -0.81121126      -0.45827883
H        2.53278946       1.00882484      -0.11726883
H       -0.00853325      -2.09585167      -0.60323338
H       -2.35409307      -1.25085116      -0.26647477
H       -2.51137015       1.09875286       0.49425210
H       -0.02728309       2.13664983       0.34808379
13
Frame=8 idx=000689 GeodesicLength=1.0131813650906056 rxn_smarts="[C:1]([c:2]1[c:3]([H:10])[n:4]([H:11])[c:5]([H:12])[c:6]1[H:13])([H:7])([H:8])[H:9]>>[C+:1]([C:2]1=[C:3]([H:10])[N:4]([H:11])[C-:5]([H:12])[C:6]1([H:7])[H:13])([H:8])[H:9]"
C        1.99361595       0.06288136      -0.14313702
C        0.57909526       0.06057861      -0.31459478
C       -0.25690998      -1.08983740      -0.32941635
N       -1.55561373      -0.64275545      -0.25524828
C       -1.58407939       0.62815169       0.20726999
C       -0.27032805       1.07542240       0.34784406
H        0.92882858      -0.13912875       1.12574610
H        2.54154122      -0.82571224      -0.43050573
H        2.53266821       0.99964332      -0.14698556
H       -0.01595255      -2.09618488      -0.62854795
H       -2.35569050      -1.24737083      -0.29089595
H       -2.50927208       1.08506361       0.52003723
H       -0.02790293       2.12924856       0.33843423
13
Frame=9 idx=000689 GeodesicLength=1.1397579853500597 rxn_smarts="[C:1]([c:2]1[c:3]([H:10])[n:4]([H:11])[c:5]([H:12])[c:6]1[H:13])([H:7])([H:8])[H:9]>>[C+:1]([C:2]1=[C:3]([H:10])[N:4]([H:11])[C-:5]([H:12])[C:6]1([H:7])[H:13])([H:8])[H:9]"
C        1.98820671       0.05452205      -0.12865701
C        0.57692594       0.05615735      -0.32813916
C       -0.25994722      -1.09068844      -0.35117888
N       -1.55547369      -0.64266628      -0.26184582
C       -1.58329589       0.61806203       0.22408485
C       -0.26381282       1.06601109       0.35675590
H        0.94854962      -0.05965629       1.16303451
H        2.53355188      -0.84161526      -0.39875797
H        2.53342477       0.98720965      -0.17540488
H       -0.02381032      -2.09533768      -0.65951892
H       -2.35730747      -1.24409585      -0.31346474
H       -2.50701808       1.07008839       0.54751282
H       -0.02999342       2.12200925       0.32557931
13
Frame=10 idx=000689 GeodesicLength=1.2662451476162615 rxn_smarts="[C:1]([c:2]1[c:3]([H:10])[n:4]([H:11])[c:5]([H:12])[c:6]1[H:13])([H:7])([H:8])[H:9]>>[C+:1]([C:2]1=[C:3]([H:10])[N:4]([H:11])[C-:5]([H:12])[C:6]1([H:7])[H:13])([H:8])[H:9]"
C        1.98236383       0.04539360      -0.11211441
C        0.57506656       0.05165738      -0.34088033
C       -0.26349635      -1.09060326      -0.37799203
N       -1.55551763      -0.64304167      -0.26760342
C       -1.58202584       0.60582998       0.24447095
C       -0.25738450       1.05685546       0.36446873
H        0.97118520       0.02817722       1.19864837
H        2.52402883      -0.85938484      -0.36200461
H        2.53531654       0.97098026      -0.20267535
H       -0.03210933      -2.09307335      -0.69655415
H       -2.35901793      -1.24109122      -0.33433890
H       -2.50440732       1.05349738       0.57719553
H       -0.03400207       2.11480304       0.30937961
13
Frame=11 idx=000689 GeodesicLength=1.3926468720578653 rxn_smarts="[C:1]([c:2]1[c:3]([H:10])[n:4]([H:11])[c:5]([H:12])[c:6]1[H:13])([H:7])([H:8])[H:9]>>[C+:1]([C:2]1=[C:3]([H:10])[N:4]([H:11])[C-:5]([H:12])[C:6]1([H:7])[H:13])([H:8])[H:9]"
C        1.97589243       0.03524574      -0.09301552
C        0.57355376       0.04725962      -0.35311021
C       -0.26766694      -1.08898186      -0.41106399
N       -1.55565718      -0.64391605      -0.27263961
C       -1.57994567       0.59071515       0.26938402
C       -0.25099800       1.04786990       0.37125419
H        0.99723144       0.12639430       1.23142980
H        2.51222869      -0.87957800      -0.31888201
H        2.53869550       0.95008311      -0.22882828
H       -0.04082519      -2.08899613      -0.74016594
H       -2.36076722      -1.23839794      -0.35356488
H       -2.50123632       1.03484302       0.60955578
H       -0.04050530       2.10745913       0.28964665
13
Frame=12 idx=000689 GeodesicLength=1.5189206166330265 rxn_smarts="[C:1]([c:2]1[c:3]([H:10])[n:4]([H:11])[c:5]([H:12])[c:6]1[H:13])([H:7])([H:8])[H:9]>>[C+:1]([C:2]1=[C:3]([H:10])[N:4]([H:11])[C-:5]([H:12])[C:6]1([H:7])[H:13])([H:8])[H:9]"
C        1.96845596       0.02378022      -0.07070223
C        0.57243007       0.04331655      -0.36528372
C       -0.27260645      -1.08481806      -0.45219315
N       -1.55571514      -0.64537433      -0.27693830
C       -1.57653346       0.57168025       0.30017122
C       -0.24458987       1.03892020       0.37750873
H        1.02733776       0.23746739       1.25947628
H        2.49694935      -0.90282489      -0.26773001
H        2.54404381       0.92320098      -0.25365153
H       -0.04985875      -2.08254819      -0.79087778
H       -2.36237335      -1.23620235      -0.37093053
H       -2.49718184       1.01369150       0.64474935
H       -0.05035809       2.09971074       0.26640167
13
Frame=13 idx=000689 GeodesicLength=1.6449736158545656 rxn_smarts="[C:1]([c:2]1[c:3]([H:10])[n:4]([H:11])[c:5]([H:12])[c:6]1[H:13])([H:7])([H:8])[H:9]>>[C+:1]([C:2]1=[C:3]([H:10])[N:4]([H:11])[C-:5]([H:12])[C:6]1([H:7])[H:13])([H:8])[H:9]"
C        1.95940344       0.01056990      -0.04416106
C        0.57177328       0.04049125      -0.37830760
C       -0.27856351      -1.07630188      -0.50413259
N       -1.55533745      -0.64745295      -0.28062477
C       -1.57099192       0.54754298       0.33781925
C       -0.23808297       1.02993854       0.38347989
H        1.06206988       0.36458574       1.27963508
H        2.47609533      -0.92996530      -0.20624208
H        2.55206134       0.88822877      -0.27646799
H       -0.05895207      -2.07285218      -0.84851543
H       -2.36344428      -1.23471899      -0.38630340
H       -2.49130856       0.98862197       0.68406012
H       -0.06472251       2.09131217       0.23976059
13
Frame=14 idx=000689 GeodesicLength=1.7705293059418339 rxn_smarts="[C:1]([c:2]1[c:3]([H:10])[n:4]([H:11])[c:5]([H:12])[c:6]1[H:13])([H:7])([H:8])[H:9]>>[C+:1]([C:2]1=[C:3]([H:10])[N:4]([H:11])[C-:5]([H:12])[C:6]1([H:7])[H:13])([H:8])[H:9]"
C        1.94751277      -0.00502118      -0.01152526
C        0.57175596       0.03977086      -0.39378149
C       -0.28592113      -1.06077849      -0.57001365
N       -1.55386467      -0.65007168      -0.28445915
C       -1.56218945       0.51757378       0.38144441
C       -0.23135298       1.02125712       0.38855985
H        1.10168504       0.51230636       1.28655544
H        2.44607503      -0.96227545      -0.13043958
H        2.56392988       0.84169669      -0.29546440
H       -0.06774458      -2.05819830      -0.91285568
H       -2.36321155      -1.23418545      -0.40005925
H       -2.48163844       0.95571728       0.73320713
H       -0.08503589       2.08220845       0.20883163
13
Frame=15 idx=000689 GeodesicLength=1.8950314087706221 rxn_smarts="[C:1]([c:2]1[c:3]([H:10])[n:4]([H:11])[c:5]([H:12])[c:6]1[H:13])([H:7])([H:8])[H:9]>>[C+:1]([C:2]1=[C:3]([H:10])[N:4]([H:11])[C-:5]([H:12])[C:6]1([H:7])[H:13])([H:8])[H:9]"
C        1.93063370      -0.02352646       0.03017180
C        0.57259270       0.04200153      -0.41323570
C       -0.29468539      -1.03614462      -0.64913485
N       -1.54992047      -0.65386020      -0.28767226
C       -1.54843447       0.48102125       0.43004652
C       -0.22392250       1.01323194       0.39258242
H        1.14695268       0.68619233       1.27137951
H        2.40109984      -1.00065164      -0.03458522
H        2.58063342       0.77835876      -0.30788321
H       -0.07607709      -2.03399879      -0.99038385
H       -2.35995812      -1.23606975      -0.41007274
H       -2.46591349       0.91139009       0.79594257
H       -0.11300080       2.07205555       0.17284501
13
Frame=16 idx=000689 GeodesicLength=2.0177428345350856 rxn_smarts="[C:1]([c:2]1[c:3]([H:10])[n:4]([H:11])[c:5]([H:12])[c:6]1[H:13])([H:7])([H:8])[H:9]>>[C+:1]([C:2]1=[C:3]([H:10])[N:4]([H:11])[C-:5]([H:12])[C:6]1([H:7])[H:13])([H:8])[H:9]"
C        1.90587410      -0.04359829       0.08291002
C        0.57442663       0.04795774      -0.43833581
C       -0.30442594      -1.00224720      -0.73567659
N       -1.54196492      -0.65885947      -0.29033182
C       -1.52741826       0.43717863       0.48304110
C       -0.21440095       1.00527497       0.39754851
H        1.19888349       0.88633548       1.22072774
H        2.33487446      -1.04245960       0.08310020
H        2.60118208       0.69460926      -0.30942182
H       -0.08370990      -1.99752323      -1.08353923
H       -2.35199929      -1.24058844      -0.41675143
H       -2.44153782       0.85443284       0.87173676
H       -0.14978368       2.05948732       0.13499238
