17
Frame=0 idx=007086 GeodesicLength=0.0 rxn_smarts="[C:1]([C@@:2]([O:3][H:12])([C:4]([C:5]([C:6](=[O:7])[H:17])([H:15])[H:16])([H:13])[H:14])[H:11])([H:8])([H:9])[H:10]>>[C:1]([C@@:2]([O:3][H:12])([C:4](/[C:5](=[C:6](\[O:7][H:16])[H:17])[H:15])([H:13])[H:14])[H:11])([H:8])([H:9])[H:10]"
C       -2.22401428      -0.38736880      -0.25157443
C       -0.73978958      -0.32503991      -0.57263927
O       -0.41839163       0.87146030      -1.27200251
C        0.12807953      -0.46180975       0.68003259
C        1.62701555      -0.47205571       0.37171269
C        2.16048954       0.75310079      -0.08916058
O        2.26388906       1.58470959       0.87493951
H       -2.48713980      -1.34383364       0.20396604
H       -2.49961117       0.40349040       0.45335987
H       -2.81733546      -0.26210744      -1.15781011
H       -0.48379801      -1.12556756      -1.27300189
H       -0.73352053       1.61719216      -0.75430928
H       -0.13345618       0.35481749       1.36262688
H       -0.12901487      -1.38560911       1.20425241
H        1.93261753      -1.37217450      -0.16047485
H        2.02926626       0.51158344       1.45687717
H        2.52471408       1.03921228      -1.07679423
17
Frame=1 idx=007086 GeodesicLength=0.06676808495648513 rxn_smarts="[C:1]([C@@:2]([O:3][H:12])([C:4]([C:5]([C:6](=[O:7])[H:17])([H:15])[H:16])([H:13])[H:14])[H:11])([H:8])([H:9])[H:10]>>[C:1]([C@@:2]([O:3][H:12])([C:4](/[C:5](=[C:6](\[O:7][H:16])[H:17])[H:15])([H:13])[H:14])[H:11])([H:8])([H:9])[H:10]"
C       -2.23167259      -0.39059499      -0.24433658
C       -0.74964636      -0.33458615      -0.57625443
O       -0.42990252       0.85033610      -1.29530169
C        0.12684053      -0.45207491       0.67219194
C        1.62251793      -0.46248634       0.35410231
C        2.16720854       0.76942178      -0.07597897
O        2.28149256       1.57478029       0.90921222
H       -2.49173295      -1.33831096       0.23097144
H       -2.50313317       0.41345151       0.44707460
H       -2.83018083      -0.28192292      -1.14927803
H       -0.50076011      -1.14686449      -1.26559426
H       -0.72616224       1.60535683      -0.77977256
H       -0.13950658       0.36862321       1.34816903
H       -0.12185378      -1.37030329       1.21006496
H        1.92113729      -1.34296160      -0.21389224
H        2.03462750       0.48006673       1.47597401
H        2.57072679       1.05806921      -1.04735174
17
Frame=2 idx=007086 GeodesicLength=0.13282203510063467 rxn_smarts="[C:1]([C@@:2]([O:3][H:12])([C:4]([C:5]([C:6](=[O:7])[H:17])([H:15])[H:16])([H:13])[H:14])[H:11])([H:8])([H:9])[H:10]>>[C:1]([C@@:2]([O:3][H:12])([C:4](/[C:5](=[C:6](\[O:7][H:16])[H:17])[H:15])([H:13])[H:14])[H:11])([H:8])([H:9])[H:10]"
C       -2.23926600      -0.39399593      -0.23707162
C       -0.75954265      -0.34377484      -0.57972978
O       -0.44207398       0.82963071      -1.31794237
C        0.12558412      -0.44198779       0.66412093
C        1.61796064      -0.45207849       0.33626479
C        2.17410216       0.78564335      -0.06300595
O        2.29843080       1.56418416       0.94264164
H       -2.49572158      -1.33284738       0.25754842
H       -2.50698846       0.42268033       0.44078614
H       -2.84301772      -0.30191030      -1.14034855
H       -0.51724273      -1.16734309      -1.25796692
H       -0.71966352       1.59353953      -0.80495615
H       -0.14549312       0.38265689       1.33355505
H       -0.11439351      -1.35457174       1.21539335
H        1.90953306      -1.31175717      -0.26636816
H        2.03969783       0.44769415       1.49359964
H        2.61809465       1.07423761      -1.01652044
17
Frame=3 idx=007086 GeodesicLength=0.19813322176710355 rxn_smarts="[C:1]([C@@:2]([O:3][H:12])([C:4]([C:5]([C:6](=[O:7])[H:17])([H:15])[H:16])([H:13])[H:14])[H:11])([H:8])([H:9])[H:10]>>[C:1]([C@@:2]([O:3][H:12])([C:4](/[C:5](=[C:6](\[O:7][H:16])[H:17])[H:15])([H:13])[H:14])[H:11])([H:8])([H:9])[H:10]"
C       -2.24675879      -0.39762843      -0.22980529
C       -0.76943322      -0.35253666      -0.58305497
O       -0.45494467       0.80949826      -1.33982856
C        0.12430305      -0.43148918       0.65584464
C        1.61333837      -0.44082608       0.31827329
C        2.18129867       0.80167200      -0.05031997
O        2.31462354       1.55302810       0.97505178
H       -2.49903331      -1.32758908       0.28354158
H       -2.51122233       0.43103260       0.43457315
H       -2.85577507      -0.32205510      -1.13105323
H       -0.53310634      -1.18687426      -1.25017553
H       -0.71413638       1.58184638      -0.82970156
H       -0.15142663       0.39698069       1.31879624
H       -0.10667951      -1.33833612       1.22025904
H        1.89776076      -1.27867990      -0.31774819
H        2.04445532       0.41458813       1.50965577
H        2.66673655       1.08736864      -0.98430819
17
Frame=4 idx=007086 GeodesicLength=0.2626362152063678 rxn_smarts="[C:1]([C@@:2]([O:3][H:12])([C:4]([C:5]([C:6](=[O:7])[H:17])([H:15])[H:16])([H:13])[H:14])[H:11])([H:8])([H:9])[H:10]>>[C:1]([C@@:2]([O:3][H:12])([C:4](/[C:5](=[C:6](\[O:7][H:16])[H:17])[H:15])([H:13])[H:14])[H:11])([H:8])([H:9])[H:10]"
C       -2.25410314      -0.40153751      -0.22256377
C       -0.77926063      -0.36081856      -0.58622156
O       -0.46852033       0.79006780      -1.36089186
C        0.12299168      -0.42052976       0.64739181
C        1.60863942      -0.42873263       0.30021167
C        2.18891563       0.81741375      -0.03796407
O        2.33000327       1.54142007       1.00631574
H       -2.50160058      -1.32266676       0.30881810
H       -2.51585824       0.43840526       0.42850123
H       -2.86836327      -0.34233736      -1.12143347
H       -0.54821136      -1.20537072      -1.24226652
H       -0.70963977       1.57038285      -0.85388417
H       -0.15732247       0.41165237       1.30391119
H       -0.09875471      -1.32152989       1.22468221
H        1.88576892      -1.24385819      -0.36787182
H        2.04889959       0.38083981       1.52404475
H        2.71641600       1.09719945      -0.95077947
17
Frame=5 idx=007086 GeodesicLength=0.32637284289778246 rxn_smarts="[C:1]([C@@:2]([O:3][H:12])([C:4]([C:5]([C:6](=[O:7])[H:17])([H:15])[H:16])([H:13])[H:14])[H:11])([H:8])([H:9])[H:10]>>[C:1]([C@@:2]([O:3][H:12])([C:4](/[C:5](=[C:6](\[O:7][H:16])[H:17])[H:15])([H:13])[H:14])[H:11])([H:8])([H:9])[H:10]"
C       -2.26129475      -0.40578037      -0.21537753
C       -0.78898885      -0.36857671      -0.58923685
O       -0.48279510       0.77146929      -1.38110321
C        0.12165027      -0.40906909       0.63881226
C        1.60389591      -0.41578848       0.28218468
C        2.19712516       0.83280955      -0.02601406
O        2.34454701       1.52947680       1.03634567
H       -2.50343414      -1.31823392       0.33325892
H       -2.52093575       0.44469120       0.42264945
H       -2.88075008      -0.36274744      -1.11156213
H       -0.56246667      -1.22276285      -1.23432013
H       -0.70619579       1.55927191      -0.87741284
H       -0.16317287       0.42672586       1.28894865
H       -0.09068037      -1.30411451       1.22872727
H        1.87358003      -1.20734001      -0.41661038
H        2.05304328       0.34654901       1.53672078
H        2.76687270       1.10341974      -0.91601054
17
Frame=6 idx=007086 GeodesicLength=0.3892957694396506 rxn_smarts="[C:1]([C@@:2]([O:3][H:12])([C:4]([C:5]([C:6](=[O:7])[H:17])([H:15])[H:16])([H:13])[H:14])[H:11])([H:8])([H:9])[H:10]>>[C:1]([C@@:2]([O:3][H:12])([C:4](/[C:5](=[C:6](\[O:7][H:16])[H:17])[H:15])([H:13])[H:14])[H:11])([H:8])([H:9])[H:10]"
C       -2.26825088      -0.41021795      -0.20822707
C       -0.79853481      -0.37591904      -0.59213710
O       -0.49754805       0.75351140      -1.40059512
C        0.12036857      -0.39727284       0.63009329
C        1.59919842      -0.40233349       0.26413872
C        2.20607217       0.84746605      -0.01434049
O        2.35815960       1.51729839       1.06504413
H       -2.50461708      -1.31411583       0.35694904
H       -2.52620427       0.45011920       0.41704275
H       -2.89284453      -0.38306928      -1.10144979
H       -0.57595142      -1.23922200      -1.22637862
H       -0.70335092       1.54840443      -0.90037636
H       -0.16884829       0.44206364       1.27388351
H       -0.08246055      -1.28623298       1.23242934
H        1.86113492      -1.16996995      -0.46402531
H        2.05661459       0.31218014       1.54822548
H        2.81706254       1.10731013      -0.88027640
17
Frame=7 idx=007086 GeodesicLength=0.45158479811181695 rxn_smarts="[C:1]([C@@:2]([O:3][H:12])([C:4]([C:5]([C:6](=[O:7])[H:17])([H:15])[H:16])([H:13])[H:14])[H:11])([H:8])([H:9])[H:10]>>[C:1]([C@@:2]([O:3][H:12])([C:4](/[C:5](=[C:6](\[O:7][H:16])[H:17])[H:15])([H:13])[H:14])[H:11])([H:8])([H:9])[H:10]"
C       -2.27500242      -0.41509986      -0.20115011
C       -0.80793123      -0.38269852      -0.59487547
O       -0.51302053       0.73646533      -1.41927751
C        0.11899573      -0.38481541       0.62130012
C        1.59438503      -0.38789934       0.24628859
C        2.21580984       0.86183938      -0.00301204
O        2.37110683       1.50482729       1.09271169
H       -2.50497746      -1.31068741       0.37976470
H       -2.53197339       0.45435053       0.41168620
H       -2.90461602      -0.40366799      -1.09115039
H       -0.58841669      -1.25456224      -1.21838271
H       -0.70173565       1.53800313      -0.92276391
H       -0.17457580       0.45803696       1.25870369
H       -0.07420062      -1.26754204       1.23584032
H        1.84838896      -1.13065545      -0.51001578
H        2.06002343       0.27703246       1.55777845
H        2.86773999       1.10707318      -0.84344584
17
Frame=8 idx=007086 GeodesicLength=0.5132389373718025 rxn_smarts="[C:1]([C@@:2]([O:3][H:12])([C:4]([C:5]([C:6](=[O:7])[H:17])([H:15])[H:16])([H:13])[H:14])[H:11])([H:8])([H:9])[H:10]>>[C:1]([C@@:2]([O:3][H:12])([C:4](/[C:5](=[C:6](\[O:7][H:16])[H:17])[H:15])([H:13])[H:14])[H:11])([H:8])([H:9])[H:10]"
C       -2.28147336      -0.42016389      -0.19405771
C       -0.81709814      -0.38910213      -0.59753267
O       -0.52892260       0.71996223      -1.43739349
C        0.11770940      -0.37195812       0.61232957
C        1.58964958      -0.37292167       0.22840374
C        2.22638633       0.87540324       0.00810125
O        2.38315283       1.49211089       1.11920437
H       -2.50468289      -1.30757080       0.40196724
H       -2.53787329       0.45783393       0.40662245
H       -2.91604346      -0.42422081      -1.08057505
H       -0.60008379      -1.26909198      -1.21040576
H       -0.70063344       1.52779979      -0.94477873
H       -0.18011294       0.47437928       1.24327435
H       -0.06578707      -1.24826080       1.23891868
H        1.83543777      -1.09041431      -0.55478816
H        2.06285870       0.24165175       1.56620565
H        2.91751638       1.10456341      -0.80549572
17
Frame=9 idx=007086 GeodesicLength=0.5743552331671993 rxn_smarts="[C:1]([C@@:2]([O:3][H:12])([C:4]([C:5]([C:6](=[O:7])[H:17])([H:15])[H:16])([H:13])[H:14])[H:11])([H:8])([H:9])[H:10]>>[C:1]([C@@:2]([O:3][H:12])([C:4](/[C:5](=[C:6](\[O:7][H:16])[H:17])[H:15])([H:13])[H:14])[H:11])([H:8])([H:9])[H:10]"
C       -2.28768300      -0.42555585      -0.18700909
C       -0.82604290      -0.39506705      -0.60006403
O       -0.54533348       0.70411278      -1.45490364
C        0.11640011      -0.35852743       0.60328247
C        1.58489583      -0.35717612       0.21069073
C        2.23784609       0.88843661       0.01902911
O        2.39464727       1.47906436       1.14485292
H       -2.50367163      -1.30494234       0.42348830
H       -2.54408550       0.46039651       0.40177674
H       -2.92708123      -0.44497827      -1.06982880
H       -0.61079019      -1.28274523      -1.20237468
H       -0.70035433       1.51793204      -0.96644235
H       -0.18562161       0.49131452       1.22767522
H       -0.05735034      -1.22821338       1.24177116
H        1.82225006      -1.04870808      -0.59827987
H        2.06532490       0.20564693       1.57309669
H        2.96664995       1.09901001      -0.76676090
17
Frame=10 idx=007086 GeodesicLength=0.6350399099555412 rxn_smarts="[C:1]([C@@:2]([O:3][H:12])([C:4]([C:5]([C:6](=[O:7])[H:17])([H:15])[H:16])([H:13])[H:14])[H:11])([H:8])([H:9])[H:10]>>[C:1]([C@@:2]([O:3][H:12])([C:4](/[C:5](=[C:6](\[O:7][H:16])[H:17])[H:15])([H:13])[H:14])[H:11])([H:8])([H:9])[H:10]"
C       -2.29363452      -0.43124541      -0.17995656
C       -0.83476075      -0.40066419      -0.60249512
O       -0.56220366       0.68874488      -1.47196446
C        0.11508289      -0.34449385       0.59412474
C        1.58015566      -0.34064304       0.19308359
C        2.25019085       0.90093951       0.02990979
O        2.40569500       1.46554424       1.16987682
H       -2.50199170      -1.30268614       0.44453481
H       -2.55057487       0.46219185       0.39710086
H       -2.93774266      -0.46604593      -1.05886025
H       -0.62057956      -1.29568578      -1.19425491
H       -0.70077022       1.50830126      -0.98797414
H       -0.19108953       0.50891220       1.21181102
H       -0.04888923      -1.20732711       1.24441973
H        1.80886467      -1.00539217      -0.64067447
H        2.06743088       0.16883554       1.57846679
H        3.01481675       1.09071413      -0.72714823
17
Frame=11 idx=007086 GeodesicLength=0.6954664584337709 rxn_smarts="[C:1]([C@@:2]([O:3][H:12])([C:4]([C:5]([C:6](=[O:7])[H:17])([H:15])[H:16])([H:13])[H:14])[H:11])([H:8])([H:9])[H:10]>>[C:1]([C@@:2]([O:3][H:12])([C:4](/[C:5](=[C:6](\[O:7][H:16])[H:17])[H:15])([H:13])[H:14])[H:11])([H:8])([H:9])[H:10]"
C       -2.29926781      -0.43727407      -0.17289750
C       -0.84323911      -0.40586560      -0.60480465
O       -0.57958861       0.67382949      -1.48859614
C        0.11373758      -0.32974514       0.58484737
C        1.57537089      -0.32325038       0.17561184
C        2.26349713       0.91293263       0.04085652
O        2.41645561       1.45141533       1.19447157
H       -2.49950513      -1.30081530       0.46514846
H       -2.55734724       0.46316414       0.39252976
H       -2.94794701      -0.48755735      -1.04765463
H       -0.62938717      -1.30786502      -1.18595751
H       -0.70211772       1.49888648      -1.00948312
H       -0.19655086       0.52731429       1.19555533
H       -0.04041258      -1.18543499       1.24689538
H        1.79517254      -0.96026480      -0.68203361
H        2.06912559       0.13105177       1.58225809
H        3.06200389       1.07947852      -0.68674714
17
Frame=12 idx=007086 GeodesicLength=0.7554658574553942 rxn_smarts="[C:1]([C@@:2]([O:3][H:12])([C:4]([C:5]([C:6](=[O:7])[H:17])([H:15])[H:16])([H:13])[H:14])[H:11])([H:8])([H:9])[H:10]>>[C:1]([C@@:2]([O:3][H:12])([C:4](/[C:5](=[C:6](\[O:7][H:16])[H:17])[H:15])([H:13])[H:14])[H:11])([H:8])([H:9])[H:10]"
C       -2.30455934      -0.44353389      -0.16580829
C       -0.85141503      -0.41075674      -0.60701365
O       -0.59729718       0.65925819      -1.50485834
C        0.11241652      -0.31443983       0.57547855
C        1.57063769      -0.30514758       0.15828830
C        2.27758929       0.92420468       0.05185590
O        2.42675618       1.43674598       1.21847731
H       -2.49635572      -1.29920504       0.48538839
H       -2.56425088       0.46349991       0.38812868
H       -2.95766286      -0.50931277      -1.03621812
H       -0.63724502      -1.31943248      -1.17754926
H       -0.70389309       1.48962617      -1.03096651
H       -0.20194373       0.54633792       1.17900433
H       -0.03193404      -1.16271979       1.24920534
H        1.78131478      -0.91358333      -0.72231064
H        2.07026760       0.09250425       1.58463358
H        3.10757482       1.06595434      -0.64573556
17
Frame=13 idx=007086 GeodesicLength=0.8152064119055507 rxn_smarts="[C:1]([C@@:2]([O:3][H:12])([C:4]([C:5]([C:6](=[O:7])[H:17])([H:15])[H:16])([H:13])[H:14])[H:11])([H:8])([H:9])[H:10]>>[C:1]([C@@:2]([O:3][H:12])([C:4](/[C:5](=[C:6](\[O:7][H:16])[H:17])[H:15])([H:13])[H:14])[H:11])([H:8])([H:9])[H:10]"
C       -2.30951446      -0.45012385      -0.15871112
C       -0.85929927      -0.41530823      -0.60910103
O       -0.61538225       0.64503851      -1.52075138
C        0.11105301      -0.29843030       0.56604678
C        1.56589458      -0.28619303       0.14119684
C        2.29259260       0.93486597       0.06304677
O        2.43688356       1.42140669       1.24210895
H       -2.49248396      -1.29795746       0.50524600
H       -2.57138940       0.46309163       0.38383347
H       -2.96685831      -0.53152481      -1.02458477
H       -0.64407863      -1.33034834      -1.16896529
H       -0.70634279       1.48054759      -1.05248060
H       -0.20735667       0.56619129       1.16209546
H       -0.02354729      -1.13900241       1.25140488
H        1.76719268      -0.86503073      -0.76147085
H        2.07092020       0.05299937       1.58540781
H        3.15171641       1.04977810      -0.60432191
17
Frame=14 idx=007086 GeodesicLength=0.8748007342859935 rxn_smarts="[C:1]([C@@:2]([O:3][H:12])([C:4]([C:5]([C:6](=[O:7])[H:17])([H:15])[H:16])([H:13])[H:14])[H:11])([H:8])([H:9])[H:10]>>[C:1]([C@@:2]([O:3][H:12])([C:4](/[C:5](=[C:6](\[O:7][H:16])[H:17])[H:15])([H:13])[H:14])[H:11])([H:8])([H:9])[H:10]"
C       -2.31410348      -0.45703654      -0.15157501
C       -0.86686254      -0.41953712      -0.61106317
O       -0.63382000       0.63106354      -1.53633926
C        0.10964195      -0.28165222       0.55654140
C        1.56114589      -0.26637504       0.12431262
C        2.30847886       0.94486422       0.07451114
O        2.44691027       1.40523192       1.26553649
H       -2.48785059      -1.29698402       0.52484270
H       -2.57877354       0.46197939       0.37960672
H       -2.97547502      -0.55429458      -1.01271386
H       -0.64982396      -1.34064946      -1.16015515
H       -0.70950780       1.47157505      -1.07416140
H       -0.21281866       0.58696224       1.14473573
H       -0.01528064      -1.11413855       1.25354105
H        1.75280767      -0.81444102      -0.79961916
H        2.07103533       0.01237138       1.58453485
H        3.19429626       1.03106081      -0.56253569
17
Frame=15 idx=007086 GeodesicLength=0.9341469384844724 rxn_smarts="[C:1]([C@@:2]([O:3][H:12])([C:4]([C:5]([C:6](=[O:7])[H:17])([H:15])[H:16])([H:13])[H:14])[H:11])([H:8])([H:9])[H:10]>>[C:1]([C@@:2]([O:3][H:12])([C:4](/[C:5](=[C:6](\[O:7][H:16])[H:17])[H:15])([H:13])[H:14])[H:11])([H:8])([H:9])[H:10]"
C       -2.31826483      -0.46423711      -0.14440933
C       -0.87405563      -0.42345933      -0.61288382
O       -0.65249654       0.61733995      -1.55155841
C        0.10820264      -0.26420308       0.54700686
C        1.55641998      -0.24574880       0.10772438
C        2.32514408       0.95411688       0.08616439
O        2.45665208       1.38838329       1.28854283
H       -2.48248680      -1.29628813       0.54411337
H       -2.58625535       0.46018815       0.37549522
H       -2.98343781      -0.57748278      -1.00062987
H       -0.65448633      -1.35033491      -1.15114682
H       -0.71311761       1.46271972      -1.09589679
H       -0.21829308       0.60851915       1.12700181
H       -0.00716258      -1.08828045       1.25560764
H        1.73820168      -0.76190676      -0.83658144
H        2.07045834      -0.02915808       1.58197408
H        3.23497777       1.00983230      -0.52052409
17
Frame=16 idx=007086 GeodesicLength=0.9933556625008043 rxn_smarts="[C:1]([C@@:2]([O:3][H:12])([C:4]([C:5]([C:6](=[O:7])[H:17])([H:15])[H:16])([H:13])[H:14])[H:11])([H:8])([H:9])[H:10]>>[C:1]([C@@:2]([O:3][H:12])([C:4](/[C:5](=[C:6](\[O:7][H:16])[H:17])[H:15])([H:13])[H:14])[H:11])([H:8])([H:9])[H:10]"
C       -2.32200125      -0.47176395      -0.13721353
C       -0.88086202      -0.42707974      -0.61455310
O       -0.67141507       0.60379293      -1.56647711
C        0.10669986      -0.24597454       0.53747151
C        1.55170082      -0.22423886       0.09147640
C        2.34260215       0.96261263       0.09815954
O        2.46632153       1.37063809       1.31134187
H       -2.47636444      -1.29586631       0.56312683
H       -2.59392175       0.45770559       0.37143544
H       -2.99071206      -0.60123504      -0.98834786
H       -0.65797490      -1.35942864      -1.14187301
H       -0.71728653       1.45393804      -1.11781931
H       -0.22385502       0.63101540       1.10883313
H        0.00074491      -1.06125176       1.25769231
H        1.72333855      -0.70714762      -0.87233875
H        2.06921156      -0.07179551       1.57760982
H        3.27377365       0.98607929      -0.47852418
