15
Frame=0 idx=009099 GeodesicLength=0.0 rxn_smarts="[C:1]1([H:8])([H:9])[C@:2]2([H:10])[O:3][C:4]([H:11])([H:12])[C:5]([H:13])([H:14])[O:6][C@:7]12[H:15]>>[C:1](=[C:2]([O:3][C:4]([C:5]([O+:6]=[C-:7][H:15])([H:13])[H:14])([H:11])[H:12])[H:10])([H:8])[H:9]"
C       -1.69298546       0.35138321       0.70452165
C       -1.28331803       0.25287478      -0.57866889
O       -0.21485401       0.84966863      -1.16927322
C        0.97899963       0.98750577      -0.41977559
C        1.61939628      -0.36125772      -0.17581326
O        0.79624903      -1.12344154       0.70792090
C       -0.32223898      -1.55687085       0.14305542
H       -1.10047014       0.79266759       1.49249910
H       -2.67056866      -0.02886999       0.96173395
H       -1.94808359      -0.14309807      -1.33457267
H        0.79889536       1.50873952       0.52635450
H        1.63734045       1.60537847      -1.03050985
H        1.73093767      -0.90265080      -1.11788997
H        2.58587930      -0.24753263       0.31607470
H       -0.91517879      -1.98449632       0.97434317
15
Frame=1 idx=009099 GeodesicLength=0.03238293719533881 rxn_smarts="[C:1]1([H:8])([H:9])[C@:2]2([H:10])[O:3][C:4]([H:11])([H:12])[C:5]([H:13])([H:14])[O:6][C@:7]12[H:15]>>[C:1](=[C:2]([O:3][C:4]([C:5]([O+:6]=[C-:7][H:15])([H:13])[H:14])([H:11])[H:12])[H:10])([H:8])[H:9]"
C       -1.68968866       0.34118726       0.70564169
C       -1.28156821       0.25089653      -0.58224162
O       -0.21481916       0.85513481      -1.17053234
C        0.97982156       0.98964477      -0.42187837
C        1.61739333      -0.35985988      -0.17488588
O        0.79628159      -1.11943670       0.71299636
C       -0.32621150      -1.55237687       0.15353355
H       -1.09879799       0.78822130       1.49167322
H       -2.67529666      -0.02060345       0.95898913
H       -1.95225060      -0.13018649      -1.34071094
H        0.79968404       1.51216452       0.52356872
H        1.64034059       1.60458101      -1.03332216
H        1.72660385      -0.90513944      -1.11514215
H        2.58508294      -0.24622244       0.31467012
H       -0.90657513      -2.00800494       0.97764068
15
Frame=2 idx=009099 GeodesicLength=0.06469815232392148 rxn_smarts="[C:1]1([H:8])([H:9])[C@:2]2([H:10])[O:3][C:4]([H:11])([H:12])[C:5]([H:13])([H:14])[O:6][C@:7]12[H:15]>>[C:1](=[C:2]([O:3][C:4]([C:5]([O+:6]=[C-:7][H:15])([H:13])[H:14])([H:11])[H:12])[H:10])([H:8])[H:9]"
C       -1.68651858       0.33112816       0.70667882
C       -1.27982855       0.24876629      -0.58581960
O       -0.21484105       0.86047991      -1.17176476
C        0.98058289       0.99172282      -0.42397375
C        1.61535421      -0.35848355      -0.17386501
O        0.79628480      -1.11537883       0.71820631
C       -0.33017043      -1.54792248       0.16420455
H       -1.09725550       0.78395602       1.49070601
H       -2.67975922      -0.01198308       0.95639237
H       -1.95649154      -0.11717034      -1.34658520
H        0.80039944       1.51558347       0.52075576
H        1.64325583       1.60369042      -1.03616261
H        1.72222208      -0.90769642      -1.11224915
H        2.58424363      -0.24490599       0.31335093
H       -0.89747801      -2.03178639       0.98012532
15
Frame=3 idx=009099 GeodesicLength=0.09693773950439552 rxn_smarts="[C:1]1([H:8])([H:9])[C@:2]2([H:10])[O:3][C:4]([H:11])([H:12])[C:5]([H:13])([H:14])[O:6][C@:7]12[H:15]>>[C:1](=[C:2]([O:3][C:4]([C:5]([O+:6]=[C-:7][H:15])([H:13])[H:14])([H:11])[H:12])[H:10])([H:8])[H:9]"
C       -1.68347942       0.32122376       0.70763780
C       -1.27810039       0.24647902      -0.58940317
O       -0.21492086       0.86569786      -1.17297199
C        0.98128273       0.99373701      -0.42606316
C        1.61327655      -0.35713099      -0.17274711
O        0.79625384      -1.11126194       0.72355821
C       -0.33412239      -1.54350320       0.17508138
H       -1.09584025       0.77988078       1.48960086
H       -2.68394963      -0.00302462       0.95394612
H       -1.96079912      -0.10406259      -1.35218671
H        0.80104252       1.51899693       0.51791251
H        1.64608559       1.60270265      -1.03903327
H        1.71778864      -0.91032737      -1.10920476
H        2.58335936      -0.24358592       0.31212014
H       -0.88787716      -2.05582140       0.98175315
15
Frame=4 idx=009099 GeodesicLength=0.12909124743335446 rxn_smarts="[C:1]1([H:8])([H:9])[C@:2]2([H:10])[O:3][C:4]([H:11])([H:12])[C:5]([H:13])([H:14])[O:6][C@:7]12[H:15]>>[C:1](=[C:2]([O:3][C:4]([C:5]([O+:6]=[C-:7][H:15])([H:13])[H:14])([H:11])[H:12])[H:10])([H:8])[H:9]"
C       -1.68057504       0.31149316       0.70852474
C       -1.27638546       0.24403162      -0.59299129
O       -0.21506031       0.87078336      -1.17415470
C        0.98192020       0.99568418      -0.42814807
C        1.61115758      -0.35580483      -0.17152836
O        0.79618417      -1.10707871       0.72906094
C       -0.33807375      -1.53911225       0.18617926
H       -1.09454953       0.77600649       1.48836187
H       -2.68786122       0.00625092       0.95165174
H       -1.96516298      -0.09087984      -1.35750605
H        0.80161495       1.52240542       0.51503524
H        1.64882896       1.60161225      -1.04193701
H        1.71329815      -0.91303853      -1.10600179
H        2.58242861      -0.24226614       0.31097936
H       -0.87776432      -2.08008709       0.98247413
15
Frame=5 idx=009099 GeodesicLength=0.1611464051769792 rxn_smarts="[C:1]1([H:8])([H:9])[C@:2]2([H:10])[O:3][C:4]([H:11])([H:12])[C:5]([H:13])([H:14])[O:6][C@:7]12[H:15]>>[C:1](=[C:2]([O:3][C:4]([C:5]([O+:6]=[C-:7][H:15])([H:13])[H:14])([H:11])[H:12])[H:10])([H:8])[H:9]"
C       -1.67780853       0.30195515       0.70934455
C       -1.27468416       0.24142047      -0.59658377
O       -0.21525997       0.87573114      -1.17531320
C        0.98249379       0.99756108      -0.43022876
C        1.60899354      -0.35450858      -0.17020665
O        0.79607040      -1.10282382       0.73471973
C       -0.34203303      -1.53474412       0.19751348
H       -1.09338104       0.77234386       1.48699224
H       -2.69148900       0.01582468       0.94951007
H       -1.96957073      -0.07764129      -1.36253467
H        0.80211714       1.52580817       0.51212212
H        1.65148475       1.60041564      -1.04487266
H        1.70874394      -0.91583653      -1.10263519
H        2.58144753      -0.24095206       0.30992941
H       -0.86712461      -2.10455378       0.98224331
15
Frame=6 idx=009099 GeodesicLength=0.19310502044748387 rxn_smarts="[C:1]1([H:8])([H:9])[C@:2]2([H:10])[O:3][C:4]([H:11])([H:12])[C:5]([H:13])([H:14])[O:6][C@:7]12[H:15]>>[C:1](=[C:2]([O:3][C:4]([C:5]([O+:6]=[C-:7][H:15])([H:13])[H:14])([H:11])[H:12])[H:10])([H:8])[H:9]"
C       -1.67518260       0.29262909       0.71010802
C       -1.27300009       0.23864421      -0.60018077
O       -0.21552138       0.88053849      -1.17645285
C        0.98300542       0.99936818      -0.43230841
C        1.60678196      -0.35324513      -0.16877734
O        0.79590683      -1.09849220       0.74054780
C       -0.34601112      -1.53039502       0.20910255
H       -1.09232926       0.76890910       1.48550285
H       -2.69483118       0.02567125       0.94752443
H       -1.97401279      -0.06437160      -1.36726927
H        0.80255621       1.52921172       0.50917088
H        1.65405609       1.59911237      -1.04784784
H        1.70411832      -0.91873023      -1.09909987
H        2.58041649      -0.23964733       0.30897527
H       -0.85595291      -2.12920290       0.98100456
15
Frame=7 idx=009099 GeodesicLength=0.22494311455573351 rxn_smarts="[C:1]1([H:8])([H:9])[C@:2]2([H:10])[O:3][C:4]([H:11])([H:12])[C:5]([H:13])([H:14])[O:6][C@:7]12[H:15]>>[C:1](=[C:2]([O:3][C:4]([C:5]([O+:6]=[C-:7][H:15])([H:13])[H:14])([H:11])[H:12])[H:10])([H:8])[H:9]"
C       -1.67269981       0.28353185       0.71082531
C       -1.27133529       0.23570001      -0.60377156
O       -0.21584538       0.88519183      -1.17756756
C        0.98345477       1.00109532      -0.43438913
C        1.60452065      -0.35201506      -0.16723402
O        0.79568798      -1.09406816       0.74655363
C       -0.35001349      -1.52604578       0.22096475
H       -1.09139218       0.76571540       1.48389400
H       -2.69788517       0.03576109       0.94569990
H       -1.97847611      -0.05109499      -1.37168818
H        0.80293351       1.53261106       0.50616995
H        1.65654292       1.59768266      -1.05086746
H        1.69941952      -0.92172350      -1.09537915
H        2.57933356      -0.23835266       0.30811691
H       -0.84424547      -2.15398907       0.97867262
15
Frame=8 idx=009099 GeodesicLength=0.256663709407074 rxn_smarts="[C:1]1([H:8])([H:9])[C@:2]2([H:10])[O:3][C:4]([H:11])([H:12])[C:5]([H:13])([H:14])[O:6][C@:7]12[H:15]>>[C:1](=[C:2]([O:3][C:4]([C:5]([O+:6]=[C-:7][H:15])([H:13])[H:14])([H:11])[H:12])[H:10])([H:8])[H:9]"
C       -1.67035717       0.27467554       0.71150494
C       -1.26968947       0.23258187      -0.60735538
O       -0.21623658       0.88968512      -1.17865869
C        0.98383645       1.00273955      -0.43647341
C        1.60220368      -0.35082261      -0.16556985
O        0.79540868      -1.08954749       0.75274439
C       -0.35404677      -1.52169535       0.23311827
H       -1.09056313       0.76276844       1.48217218
H       -2.70065714       0.04610782       0.94402903
H       -1.98295559      -0.03781257      -1.37578565
H        0.80324352       1.53601224       0.50311247
H        1.65893913       1.59611561      -1.05393830
H        1.69463928      -0.92482858      -1.09146103
H        2.57818855      -0.23707217       0.30736675
H       -0.83195345      -2.17890742       0.97519427
15
Frame=9 idx=009099 GeodesicLength=0.28825445510189857 rxn_smarts="[C:1]1([H:8])([H:9])[C@:2]2([H:10])[O:3][C:4]([H:11])([H:12])[C:5]([H:13])([H:14])[O:6][C@:7]12[H:15]>>[C:1](=[C:2]([O:3][C:4]([C:5]([O+:6]=[C-:7][H:15])([H:13])[H:14])([H:11])[H:12])[H:10])([H:8])[H:9]"
C       -1.66815231       0.26608483       0.71216524
C       -1.26806481       0.22929290      -0.61092096
O       -0.21669615       0.89401009      -1.17972701
C        0.98415030       1.00429807      -0.43856498
C        1.59982382      -0.34967148      -0.16377389
O        0.79506035      -1.08491783       0.75914337
C       -0.35811833      -1.51733114       0.24559031
H       -1.08983466       0.76009998       1.48034837
H       -2.70313903       0.05667602       0.94252351
H       -1.98742799      -0.02457731      -1.37954716
H        0.80349281       1.53942525       0.49998944
H        1.66124342       1.59440149      -1.05707223
H        1.68976562      -0.92806039      -1.08732797
H        2.57697767      -0.23580937       0.30672617
H       -0.81908071      -2.20392110       0.97044779
15
Frame=10 idx=009099 GeodesicLength=0.3197457350305721 rxn_smarts="[C:1]1([H:8])([H:9])[C@:2]2([H:10])[O:3][C:4]([H:11])([H:12])[C:5]([H:13])([H:14])[O:6][C@:7]12[H:15]>>[C:1](=[C:2]([O:3][C:4]([C:5]([O+:6]=[C-:7][H:15])([H:13])[H:14])([H:11])[H:12])[H:10])([H:8])[H:9]"
C       -1.66608799       0.25776378       0.71282402
C       -1.26647024       0.22582304      -0.61446345
O       -0.21722837       0.89815304      -1.18078044
C        0.98440099       1.00576644      -0.44067358
C        1.59738307      -0.34856076      -0.16183239
O        0.79463784      -1.08016649       0.76577398
C       -0.36224172      -1.51294634       0.25841155
H       -1.08920051       0.75772048       1.47843401
H       -2.70535081       0.06746857       0.94118738
H       -1.99190966      -0.01138749      -1.38296561
H        0.80369234       1.54286027       0.49678493
H        1.66346456       1.59252531      -1.06029193
H        1.68479632      -0.93143117      -1.08295804
H        2.57570580      -0.23455787       0.30621421
H       -0.80559162      -2.22903080       0.96433535
15
Frame=11 idx=009099 GeodesicLength=0.3511349809733375 rxn_smarts="[C:1]1([H:8])([H:9])[C@:2]2([H:10])[O:3][C:4]([H:11])([H:12])[C:5]([H:13])([H:14])[O:6][C@:7]12[H:15]>>[C:1](=[C:2]([O:3][C:4]([C:5]([O+:6]=[C-:7][H:15])([H:13])[H:14])([H:11])[H:12])[H:10])([H:8])[H:9]"
C       -1.66416229       0.24972530       0.71349719
C       -1.26490656       0.22216354      -0.61797111
O       -0.21783752       0.90209696      -1.18181685
C        0.98458279       1.00713551      -0.44280272
C        1.59487522      -0.34749511      -0.15973120
O        0.79413576      -1.07527908       0.77265813
C       -0.36642049      -1.50853019       0.27161702
H       -1.08865928       0.75565072       1.47643357
H       -2.70729981       0.07849923       0.94002097
H       -1.99639348       0.00174000      -1.38602211
H        0.80383688       1.54632306       0.49348485
H        1.66559520       1.59046431      -1.06360966
H        1.67972078      -0.93495881      -1.07832520
H        2.57436581      -0.23332153       0.30583898
H       -0.79143300      -2.25421392       0.95672815
15
Frame=12 idx=009099 GeodesicLength=0.38245744351456695 rxn_smarts="[C:1]1([H:8])([H:9])[C@:2]2([H:10])[O:3][C:4]([H:11])([H:12])[C:5]([H:13])([H:14])[O:6][C@:7]12[H:15]>>[C:1](=[C:2]([O:3][C:4]([C:5]([O+:6]=[C-:7][H:15])([H:13])[H:14])([H:11])[H:12])[H:10])([H:8])[H:9]"
C       -1.66237046       0.24198324       0.71421612
C       -1.26338028       0.21830490      -0.62143085
O       -0.21852438       0.90582209      -1.18284788
C        0.98470076       1.00840473      -0.44496612
C        1.59229380      -0.34647288      -0.15744694
O        0.79354045      -1.07023912       0.77983715
C       -0.37067100      -1.50407805       0.28525070
H       -1.08819519       0.75392580       1.47436733
H       -2.70898933       0.08975701       0.93904544
H       -2.00088039       0.01477235      -1.38870514
H        0.80394048       1.54984224       0.49006765
H        1.66764347       1.58820034      -1.06706387
H        1.67452956      -0.93866655      -1.07339699
H        2.57295196      -0.23208591       0.30562700
H       -0.77658945      -2.27947020       0.94744640
15
Frame=13 idx=009099 GeodesicLength=0.4136362132921716 rxn_smarts="[C:1]1([H:8])([H:9])[C@:2]2([H:10])[O:3][C:4]([H:11])([H:12])[C:5]([H:13])([H:14])[O:6][C@:7]12[H:15]>>[C:1](=[C:2]([O:3][C:4]([C:5]([O+:6]=[C-:7][H:15])([H:13])[H:14])([H:11])[H:12])[H:10])([H:8])[H:9]"
C       -1.66070941       0.23455289       0.71498179
C       -1.26189451       0.21423750      -0.62481491
O       -0.21930965       0.90929023      -1.18384566
C        0.98472751       1.00953492      -0.44715876
C        1.58963059      -0.34550588      -0.15496020
O        0.79285680      -1.06502025       0.78731403
C       -0.37497788      -1.49955459       0.29934638
H       -1.08781472       0.75255707       1.47220355
H       -2.71042150       0.10128837       0.93824535
H       -2.00536886       0.02771513      -1.39095895
H        0.80397088       1.55338434       0.48650511
H        1.66957082       1.58566429      -1.07064309
H        1.66922247      -0.94256936      -1.06811768
H        2.57144608      -0.23087166       0.30559001
H       -0.76092861      -2.30470300       0.93631303
15
Frame=14 idx=009099 GeodesicLength=0.44480559955251103 rxn_smarts="[C:1]1([H:8])([H:9])[C@:2]2([H:10])[O:3][C:4]([H:11])([H:12])[C:5]([H:13])([H:14])[O:6][C@:7]12[H:15]>>[C:1](=[C:2]([O:3][C:4]([C:5]([O+:6]=[C-:7][H:15])([H:13])[H:14])([H:11])[H:12])[H:10])([H:8])[H:9]"
C       -1.65918768       0.22744564       0.71585006
C       -1.26046558       0.20994537      -0.62812491
O       -0.22018175       0.91249644      -1.18485904
C        0.98469476       1.01055259      -0.44940635
C        1.58688737      -0.34459010      -0.15224884
O        0.79206080      -1.05961898       0.79516429
C       -0.37939170      -1.49498791       0.31397769
H       -1.08750104       0.75159309       1.47000946
H       -2.71162603       0.11306947       0.93766799
H       -2.00986992       0.04048989      -1.39281642
H        0.80397901       1.55701408       0.48279056
H        1.67142783       1.58288594      -1.07441398
H        1.66377692      -0.94670307      -1.06248016
H        2.56986620      -0.22965234       0.30576220
H       -0.74446920      -2.32994012       0.92312744
15
Frame=15 idx=009099 GeodesicLength=0.47582273501876643 rxn_smarts="[C:1]1([H:8])([H:9])[C@:2]2([H:10])[O:3][C:4]([H:11])([H:12])[C:5]([H:13])([H:14])[O:6][C@:7]12[H:15]>>[C:1](=[C:2]([O:3][C:4]([C:5]([O+:6]=[C-:7][H:15])([H:13])[H:14])([H:11])[H:12])[H:10])([H:8])[H:9]"
C       -1.65779050       0.22070969       0.71683657
C       -1.25908945       0.20542982      -0.63129405
O       -0.22116529       0.91537575      -1.18583631
C        0.98456001       1.01139664      -0.45170217
C        1.58404663      -0.34374011      -0.14927820
O        0.79116027      -1.05398075       0.80340329
C       -0.38387687      -1.49030100       0.32920693
H       -1.08725883       0.75108105       1.46774309
H       -2.71257830       0.12512915       0.93730866
H       -2.01433639       0.05303401      -1.39417944
H        0.80391248       1.56069162       0.47887075
H        1.67314757       1.57974931      -1.07836745
H        1.65818776      -0.95109756      -1.05638644
H        2.56817856      -0.22844593       0.30614647
H       -0.72709766      -2.35503168       0.90752831
15
Frame=16 idx=009099 GeodesicLength=0.5068145763381805 rxn_smarts="[C:1]1([H:8])([H:9])[C@:2]2([H:10])[O:3][C:4]([H:11])([H:12])[C:5]([H:13])([H:14])[O:6][C@:7]12[H:15]>>[C:1](=[C:2]([O:3][C:4]([C:5]([O+:6]=[C-:7][H:15])([H:13])[H:14])([H:11])[H:12])[H:10])([H:8])[H:9]"
C       -1.65652197       0.21434693       0.71799105
C       -1.25778550       0.20065916      -0.63432274
O       -0.22225592       0.91789898      -1.18682614
C        0.98434258       1.01207662      -0.45407020
C        1.58110424      -0.34295729      -0.14601560
O        0.79012489      -1.04810376       0.81210000
C       -0.38848917      -1.48553233       0.34511138
H       -1.08706454       0.75105300       1.46546025
H       -2.71330480       0.13749514       0.93721174
H       -2.01880586       0.06529430      -1.39507006
H        0.80380907       1.56446837       0.47473058
H        1.67476482       1.57626254      -1.08256181
H        1.65243470      -0.95579450      -1.04980862
H        2.56638455      -0.22723055       0.30680470
H       -0.70873709      -2.37993660       0.88926546
