9
Frame=0 idx=002057 GeodesicLength=0.0 rxn_smarts="[N:1]([C:2]([C:3]#[N:4])([C:5]#[N:6])[H:9])([H:7])[H:8]>>[N:1]([C:3]1=[N:4][C@:2]1([C:5]#[N:6])[H:9])([H:7])[H:8]"
N       -0.29151913      -1.22281065      -0.25020843
C        0.03089678       0.59070604       0.58507432
C        0.92008960      -0.37053290      -0.04997437
N        2.10073792      -0.48479491      -0.27663188
C       -0.51208715       1.70691336      -0.09503248
N       -0.97424307       2.58373654      -0.68064207
H       -0.40960740      -2.07607788       0.28589524
H       -0.71241554      -1.24965994      -1.17199907
H       -0.15185203       0.52252035       1.65351873
9
Frame=1 idx=002057 GeodesicLength=0.06461294100770891 rxn_smarts="[N:1]([C:2]([C:3]#[N:4])([C:5]#[N:6])[H:9])([H:7])[H:8]>>[N:1]([C:3]1=[N:4][C@:2]1([C:5]#[N:6])[H:9])([H:7])[H:8]"
N       -0.30245546      -1.22785322      -0.25582053
C        0.03752518       0.57687562       0.57275895
C        0.92269163      -0.37344764      -0.07829443
N        2.11453359      -0.44356036      -0.24200644
C       -0.50501871       1.70180573      -0.09874242
N       -0.98149550       2.58375659      -0.66436026
H       -0.45046862      -2.05981878       0.30447550
H       -0.70964485      -1.27185974      -1.18264994
H       -0.12566726       0.51410180       1.64463958
9
Frame=2 idx=002057 GeodesicLength=0.12926248666839596 rxn_smarts="[N:1]([C:2]([C:3]#[N:4])([C:5]#[N:6])[H:9])([H:7])[H:8]>>[N:1]([C:3]1=[N:4][C@:2]1([C:5]#[N:6])[H:9])([H:7])[H:8]"
N       -0.31251257      -1.23230725      -0.26105009
C        0.04532526       0.56282956       0.56144168
C        0.92714730      -0.37721756      -0.10411454
N        2.12517800      -0.40101464      -0.20984788
C       -0.49690704       1.69618350      -0.10177123
N       -0.98899807       2.58038750      -0.64973897
H       -0.49300767      -2.04148959       0.32140206
H       -0.70600931      -1.29249284      -1.19244003
H       -0.10021589       0.50512133       1.63611900
9
Frame=3 idx=002057 GeodesicLength=0.1939820013034252 rxn_smarts="[N:1]([C:2]([C:3]#[N:4])([C:5]#[N:6])[H:9])([H:7])[H:8]>>[N:1]([C:3]1=[N:4][C@:2]1([C:5]#[N:6])[H:9])([H:7])[H:8]"
N       -0.32147648      -1.23682343      -0.26558308
C        0.05334909       0.54839819       0.55119041
C        0.93312261      -0.38166523      -0.12693519
N        2.13267868      -0.35653721      -0.18196579
C       -0.48953215       1.68933066      -0.10429517
N       -0.99410092       2.57584450      -0.63645255
H       -0.53659878      -2.02152778       0.33706144
H       -0.70109611      -1.31255881      -1.20116150
H       -0.07634593       0.49553911       1.62814144
9
Frame=4 idx=002057 GeodesicLength=0.2588684848660856 rxn_smarts="[N:1]([C:2]([C:3]#[N:4])([C:5]#[N:6])[H:9])([H:7])[H:8]>>[N:1]([C:3]1=[N:4][C@:2]1([C:5]#[N:6])[H:9])([H:7])[H:8]"
N       -0.32932566      -1.24110072      -0.26962552
C        0.06212648       0.53383238       0.54194843
C        0.94080482      -0.38666041      -0.14704095
N        2.13793613      -0.31165642      -0.15738632
C       -0.48201619       1.68169917      -0.10635378
N       -0.99927165       2.56900756      -0.62429748
H       -0.58216717      -1.99913592       0.35111945
H       -0.69475512      -1.33162356      -1.20912417
H       -0.05333163       0.48563792       1.62076035
9
Frame=5 idx=002057 GeodesicLength=0.32387266396611986 rxn_smarts="[N:1]([C:2]([C:3]#[N:4])([C:5]#[N:6])[H:9])([H:7])[H:8]>>[N:1]([C:3]1=[N:4][C@:2]1([C:5]#[N:6])[H:9])([H:7])[H:8]"
N       -0.33624592      -1.24480787      -0.27315749
C        0.07202764       0.51935571       0.53378920
C        0.95023190      -0.39213962      -0.16455576
N        2.14160800      -0.26748598      -0.13541350
C       -0.47363121       1.67372007      -0.10785863
N       -1.00622985       2.55874681      -0.61349403
H       -0.62990530      -1.97401040       0.36292493
H       -0.68720626      -1.34904632      -1.21636164
H       -0.03064899       0.47566761       1.61412693
9
Frame=6 idx=002057 GeodesicLength=0.38905004358181705 rxn_smarts="[N:1]([C:2]([C:3]#[N:4])([C:5]#[N:6])[H:9])([H:7])[H:8]>>[N:1]([C:3]1=[N:4][C@:2]1([C:5]#[N:6])[H:9])([H:7])[H:8]"
N       -0.34218043      -1.24966651      -0.27554848
C        0.08074626       0.50427033       0.52644429
C        0.96025365      -0.39792746      -0.17936623
N        2.14252913      -0.22082085      -0.11870949
C       -0.46829249       1.66378741      -0.10920757
N       -1.00758657       2.55112840      -0.60296504
H       -0.67738442      -1.94797964       0.37348973
H       -0.67801448      -1.36801659      -1.22219890
H       -0.01007065       0.46522490       1.60806170
9
Frame=7 idx=002057 GeodesicLength=0.4544169904553147 rxn_smarts="[N:1]([C:2]([C:3]#[N:4])([C:5]#[N:6])[H:9])([H:7])[H:8]>>[N:1]([C:3]1=[N:4][C@:2]1([C:5]#[N:6])[H:9])([H:7])[H:8]"
N       -0.34720674      -1.25398336      -0.27744682
C        0.09080199       0.48939689       0.51996087
C        0.97191942      -0.40396475      -0.19233333
N        2.14261194      -0.17592732      -0.10357173
C       -0.46179501       1.65379282      -0.11001869
N       -1.01223016       2.53973435      -0.59331688
H       -0.72754177      -1.91824579       0.38141519
H       -0.66752386      -1.38572683      -1.22733956
H        0.01096419       0.45492398       1.60265094
9
Frame=8 idx=002057 GeodesicLength=0.519726111552716 rxn_smarts="[N:1]([C:2]([C:3]#[N:4])([C:5]#[N:6])[H:9])([H:7])[H:8]>>[N:1]([C:3]1=[N:4][C@:2]1([C:5]#[N:6])[H:9])([H:7])[H:8]"
N       -0.35160214      -1.25884505      -0.27821191
C        0.10043083       0.47431357       0.51437080
C        0.98422407      -0.41004106      -0.20320355
N        2.14078151      -0.13048728      -0.09187413
C       -0.45703227       1.64268916      -0.11037888
N       -1.01409340       2.52898800      -0.58471872
H       -0.77688710      -1.88764882       0.38703463
H       -0.65654702      -1.40333402      -1.23097700
H        0.03072553       0.44436549       1.59795875
9
Frame=9 idx=002057 GeodesicLength=0.5855534466114221 rxn_smarts="[N:1]([C:2]([C:3]#[N:4])([C:5]#[N:6])[H:9])([H:7])[H:8]>>[N:1]([C:3]1=[N:4][C@:2]1([C:5]#[N:6])[H:9])([H:7])[H:8]"
N       -0.35484134      -1.26428861      -0.27804521
C        0.11042942       0.45912392       0.50912545
C        0.99757991      -0.41605091      -0.21299310
N        2.13772773      -0.08573033      -0.08213550
C       -0.45315167       1.63065167      -0.11067626
N       -1.01636351       2.51776040      -0.57547631
H       -0.82850079      -1.85319022       0.39013250
H       -0.64356120      -1.42216759      -1.23339980
H        0.05068146       0.43389167       1.59346823
9
Frame=10 idx=002057 GeodesicLength=0.651647402672167 rxn_smarts="[N:1]([C:2]([C:3]#[N:4])([C:5]#[N:6])[H:9])([H:7])[H:8]>>[N:1]([C:3]1=[N:4][C@:2]1([C:5]#[N:6])[H:9])([H:7])[H:8]"
N       -0.35726557      -1.27039956      -0.27668551
C        0.12048661       0.44380739       0.50445740
C        1.01171489      -0.42196488      -0.22150468
N        2.13334325      -0.04134695      -0.07476244
C       -0.45056657       1.61763164      -0.11069425
N       -1.01786405       2.50655231      -0.56628059
H       -0.88080801      -1.81588105       0.39032106
H       -0.62938404      -1.44176855      -1.23430757
H        0.07034349       0.42336966       1.58945658
9
Frame=11 idx=002057 GeodesicLength=0.717826904110835 rxn_smarts="[N:1]([C:2]([C:3]#[N:4])([C:5]#[N:6])[H:9])([H:7])[H:8]>>[N:1]([C:3]1=[N:4][C@:2]1([C:5]#[N:6])[H:9])([H:7])[H:8]"
N       -0.35937846      -1.27667275      -0.27408805
C        0.13084698       0.42862326       0.50040460
C        1.02647016      -0.42766239      -0.22904168
N        2.12788717       0.00170256      -0.06889696
C       -0.44838977       1.60427001      -0.11027356
N       -1.01982327       2.49439499      -0.55756698
H       -0.93288470      -1.77622728       0.38711620
H       -0.61470300      -1.46143312      -1.23364493
H        0.08997489       0.41300472       1.58599136
9
Frame=12 idx=002057 GeodesicLength=0.7839860204970313 rxn_smarts="[N:1]([C:2]([C:3]#[N:4])([C:5]#[N:6])[H:9])([H:7])[H:8]>>[N:1]([C:3]1=[N:4][C@:2]1([C:5]#[N:6])[H:9])([H:7])[H:8]"
N       -0.36132636      -1.28358431      -0.27026446
C        0.14052552       0.41338179       0.49670483
C        1.04113853      -0.43301848      -0.23567136
N        2.12034445       0.04424398      -0.06513274
C       -0.44812765       1.59008300      -0.10958727
N       -1.01899009       2.48414368      -0.54892617
H       -0.98224287      -1.73577834       0.38137734
H       -0.59975050      -1.48198917      -1.23116732
H        0.10842897       0.40251784       1.58266715
9
Frame=13 idx=002057 GeodesicLength=0.8506652465463951 rxn_smarts="[N:1]([C:2]([C:3]#[N:4])([C:5]#[N:6])[H:9])([H:7])[H:8]>>[N:1]([C:3]1=[N:4][C@:2]1([C:5]#[N:6])[H:9])([H:7])[H:8]"
N       -0.36305370      -1.29103577      -0.26512681
C        0.15044234       0.39818599       0.49351469
C        1.05634456      -0.43815116      -0.24158651
N        2.11184256       0.08597979      -0.06326898
C       -0.44875453       1.57528802      -0.10844511
N       -1.01832025       2.47364218      -0.53985559
H       -1.03223769      -1.69160081       0.37191521
H       -0.58332472      -1.50440617      -1.22705547
H        0.12706143       0.39209792       1.57990858
9
Frame=14 idx=002057 GeodesicLength=0.9177479664296935 rxn_smarts="[N:1]([C:2]([C:3]#[N:4])([C:5]#[N:6])[H:9])([H:7])[H:8]>>[N:1]([C:3]1=[N:4][C@:2]1([C:5]#[N:6])[H:9])([H:7])[H:8]"
N       -0.36433227      -1.29896737      -0.25799199
C        0.16039504       0.38314291       0.49041787
C        1.07157224      -0.44270062      -0.24758416
N        2.10191325       0.12585510      -0.06222295
C       -0.45037024       1.55999916      -0.10717805
N       -1.01775718       2.46340182      -0.53003914
H       -1.08147256      -1.64488225       0.35781976
H       -0.56596880      -1.52794432      -1.22018058
H        0.14602052       0.38209556       1.57695924
9
Frame=15 idx=002057 GeodesicLength=0.9852331912927219 rxn_smarts="[N:1]([C:2]([C:3]#[N:4])([C:5]#[N:6])[H:9])([H:7])[H:8]>>[N:1]([C:3]1=[N:4][C@:2]1([C:5]#[N:6])[H:9])([H:7])[H:8]"
N       -0.36577913      -1.30778495      -0.24920937
C        0.16966751       0.36817454       0.48747094
C        1.08652813      -0.44660769      -0.25349447
N        2.09031740       0.16531155      -0.06297418
C       -0.45414169       1.54386653      -0.10585656
N       -1.01454899       2.45563743      -0.51915786
H       -1.12865791      -1.59680857       0.33998083
H       -0.54773488      -1.55412470      -1.21095754
H        0.16434955       0.37233586       1.57419820
9
Frame=16 idx=002057 GeodesicLength=1.0531609350287656 rxn_smarts="[N:1]([C:2]([C:3]#[N:4])([C:5]#[N:6])[H:9])([H:7])[H:8]>>[N:1]([C:3]1=[N:4][C@:2]1([C:5]#[N:6])[H:9])([H:7])[H:8]"
N       -0.36774051      -1.31682324      -0.23907777
C        0.17841335       0.35338284       0.48469403
C        1.10100528      -0.45006698      -0.25913742
N        2.07688412       0.20367313      -0.06520981
C       -0.45931747       1.52739945      -0.10416311
N       -1.00957580       2.44932048      -0.50765254
H       -1.17277823      -1.54748491       0.31845871
H       -0.52896205      -1.58211779      -1.19935324
H        0.18207133       0.36271702       1.57144116
