12
Frame=0 idx=002810 GeodesicLength=0.0 rxn_smarts="[C:1]([C:2](=[O:3])[C@@:4]1([H:10])[C:5]([H:11])([H:12])[O:6]1)([H:7])([H:8])[H:9]>>[C:1]([C-:2]([O:3][H:12])[C@@:4]1([H:10])[C:5]([H:11])=[O+:6]1)([H:7])([H:8])[H:9]"
C       -1.42207309      -0.38403380      -0.53279167
C       -0.23594365      -0.28118097       0.35279907
O        0.33099875      -1.29219270       0.91415613
C        0.48924251       0.91552513       0.72684761
C        1.50475329       0.35875423      -0.25874881
O        1.06145705       1.72932712      -0.23895889
H       -1.47525327       0.48663648      -1.18755617
H       -1.40058695      -1.30587187      -1.11166519
H       -2.31995524      -0.38719210       0.09033075
H        0.84505799       1.02767144       1.74531923
H        1.13581538      -0.10707028      -1.18246879
H        1.48648721      -0.76037270       0.68273674
12
Frame=1 idx=002810 GeodesicLength=0.08201061499657249 rxn_smarts="[C:1]([C:2](=[O:3])[C@@:4]1([H:10])[C:5]([H:11])([H:12])[O:6]1)([H:7])([H:8])[H:9]>>[C:1]([C-:2]([O:3][H:12])[C@@:4]1([H:10])[C:5]([H:11])=[O+:6]1)([H:7])([H:8])[H:9]"
C       -1.42092935      -0.38317489      -0.53099035
C       -0.24387262      -0.28814763       0.36762036
O        0.32765690      -1.30433087       0.91289715
C        0.48813633       0.90786975       0.73093406
C        1.50826852       0.37375821      -0.26212709
O        1.03413867       1.73254196      -0.24150211
H       -1.45084167       0.47486689      -1.20339621
H       -1.41274073      -1.31568491      -1.09285468
H       -2.32429671      -0.35710828       0.08362724
H        0.84702702       1.02275432       1.74803869
H        1.14515744      -0.09466239      -1.18718759
H        1.50229619      -0.76868216       0.67494053
12
Frame=2 idx=002810 GeodesicLength=0.16428161927934887 rxn_smarts="[C:1]([C:2](=[O:3])[C@@:4]1([H:10])[C:5]([H:11])([H:12])[O:6]1)([H:7])([H:8])[H:9]>>[C:1]([C-:2]([O:3][H:12])[C@@:4]1([H:10])[C:5]([H:11])=[O+:6]1)([H:7])([H:8])[H:9]"
C       -1.41970736      -0.38238119      -0.52908809
C       -0.25201637      -0.29511098       0.38270584
O        0.32385306      -1.31650450       0.91184245
C        0.48710229       0.90016727       0.73479665
C        1.51178473       0.38907329      -0.26555764
O        1.00686349       1.73539902      -0.24384380
H       -1.42636820       0.46232006      -1.21871115
H       -1.42534786      -1.32505039      -1.07395082
H       -2.32796203      -0.32691442       0.07645241
H        0.84875411       1.01799066       1.75068611
H        1.15482779      -0.08192702      -1.19211845
H        1.51821634      -0.77706182       0.66678650
12
Frame=3 idx=002810 GeodesicLength=0.2461274372509888 rxn_smarts="[C:1]([C:2](=[O:3])[C@@:4]1([H:10])[C:5]([H:11])([H:12])[O:6]1)([H:7])([H:8])[H:9]>>[C:1]([C-:2]([O:3][H:12])[C@@:4]1([H:10])[C:5]([H:11])=[O+:6]1)([H:7])([H:8])[H:9]"
C       -1.41841162      -0.38168008      -0.52704787
C       -0.26039943      -0.30200864       0.39796567
O        0.31946944      -1.32839932       0.91082704
C        0.48620392       0.89227145       0.73828385
C        1.51529339       0.40471572      -0.26887788
O        0.97976170       1.73758704      -0.24588766
H       -1.40186592       0.44880749      -1.23317551
H       -1.43842319      -1.33370817      -1.05487871
H       -2.33089378      -0.29683980       0.06859860
H        0.85031886       1.01325281       1.75289828
H        1.16477834      -0.06875876      -1.19691373
H        1.53416829      -0.78523973       0.65820793
12
Frame=4 idx=002810 GeodesicLength=0.3281123408135225 rxn_smarts="[C:1]([C:2](=[O:3])[C@@:4]1([H:10])[C:5]([H:11])([H:12])[O:6]1)([H:7])([H:8])[H:9]>>[C:1]([C-:2]([O:3][H:12])[C@@:4]1([H:10])[C:5]([H:11])=[O+:6]1)([H:7])([H:8])[H:9]"
C       -1.41703814      -0.38106002      -0.52490519
C       -0.26901531      -0.30888603       0.41349456
O        0.31456872      -1.34028756       0.91005264
C        0.48539331       0.88428823       0.74152579
C        1.51879392       0.42069303      -0.27222291
O        0.95273165       1.73937914      -0.24773560
H       -1.37732929       0.43448707      -1.24705602
H       -1.45195416      -1.34187356      -1.03573824
H       -2.33308525      -0.26672152       0.06024191
H        0.85166239       1.00865027       1.75500346
H        1.17504535      -0.05519628      -1.20189093
H        1.55022681      -0.79347277       0.64923053
12
Frame=5 idx=002810 GeodesicLength=0.41015347251735534 rxn_smarts="[C:1]([C:2](=[O:3])[C@@:4]1([H:10])[C:5]([H:11])([H:12])[O:6]1)([H:7])([H:8])[H:9]>>[C:1]([C-:2]([O:3][H:12])[C@@:4]1([H:10])[C:5]([H:11])=[O+:6]1)([H:7])([H:8])[H:9]"
C       -1.41558835      -0.38053188      -0.52264109
C       -0.27788431      -0.31573303       0.42928124
O        0.30910563      -1.35211532       0.90949024
C        0.48467502       0.87616448       0.74449171
C        1.52229545       0.43704007      -0.27556134
O        0.92579208       1.74072248      -0.24936469
H       -1.35272510       0.41928867      -1.26030864
H       -1.46595976      -1.34951274      -1.01646594
H       -2.33452714      -0.23657106       0.05134612
H        0.85277913       1.00413192       1.75692191
H        1.18565019      -0.04116695      -1.20698044
H        1.56638716      -0.80171666       0.63979092
12
Frame=6 idx=002810 GeodesicLength=0.4922279820442971 rxn_smarts="[C:1]([C:2](=[O:3])[C@@:4]1([H:10])[C:5]([H:11])([H:12])[O:6]1)([H:7])([H:8])[H:9]>>[C:1]([C-:2]([O:3][H:12])[C@@:4]1([H:10])[C:5]([H:11])=[O+:6]1)([H:7])([H:8])[H:9]"
C       -1.41406117      -0.38010213      -0.52025243
C       -0.28701865      -0.32254218       0.44533238
O        0.30305050      -1.36387076       0.90916482
C        0.48405492       0.86787651       0.74717622
C        1.52579417       0.45377768      -0.27888454
O        0.89894352       1.74160680      -0.25077584
H       -1.32804514       0.40318778      -1.27292027
H       -1.48044346      -1.35661441      -0.99705834
H       -2.33519094      -0.20640086       0.04190053
H        0.85367151       0.99968623       1.75864417
H        1.19659462      -0.02662937      -1.21217516
H        1.58265013      -0.80997529       0.62984847
12
Frame=7 idx=002810 GeodesicLength=0.5743278876962994 rxn_smarts="[C:1]([C:2](=[O:3])[C@@:4]1([H:10])[C:5]([H:11])([H:12])[O:6]1)([H:7])([H:8])[H:9]>>[C:1]([C-:2]([O:3][H:12])[C@@:4]1([H:10])[C:5]([H:11])=[O+:6]1)([H:7])([H:8])[H:9]"
C       -1.41245490      -0.37977753      -0.51773641
C       -0.29643101      -0.32930627       0.46165640
O        0.29637276      -1.37554737       0.90910906
C        0.48353835       0.85940114       0.74957536
C        1.52928590       0.47092853      -0.28218601
O        0.87218437       1.74202593      -0.25197153
H       -1.30327801       0.38615792      -1.28487930
H       -1.49540857      -1.36316909      -0.97751087
H       -2.33504643      -0.17621893       0.03189413
H        0.85433903       0.99530223       1.76016529
H        1.20788142      -0.01153877      -1.21747339
H        1.59901708      -0.81825778       0.61935726
12
Frame=8 idx=002810 GeodesicLength=0.656455058668769 rxn_smarts="[C:1]([C:2](=[O:3])[C@@:4]1([H:10])[C:5]([H:11])([H:12])[O:6]1)([H:7])([H:8])[H:9]>>[C:1]([C-:2]([O:3][H:12])[C@@:4]1([H:10])[C:5]([H:11])=[O+:6]1)([H:7])([H:8])[H:9]"
C       -1.41076719      -0.37956432      -0.51509052
C       -0.30613532      -0.33601639       0.47826335
O        0.28903815      -1.38713968       0.90936648
C        0.48313093       0.85071547       0.75168435
C        1.53276636       0.48851403      -0.28546172
O        0.84551411       1.74197482      -0.25295703
H       -1.27841327       0.36817933      -1.29616939
H       -1.51085095      -1.36916573      -0.95782630
H       -2.33406329      -0.14604043       0.02131952
H        0.85477806       0.99097192       1.76148162
H        1.21951416       0.00414932      -1.22287786
H        1.61548826      -0.82657833       0.60826752
12
Frame=9 idx=002810 GeodesicLength=0.7386105030636011 rxn_smarts="[C:1]([C:2](=[O:3])[C@@:4]1([H:10])[C:5]([H:11])([H:12])[O:6]1)([H:7])([H:8])[H:9]>>[C:1]([C-:2]([O:3][H:12])[C@@:4]1([H:10])[C:5]([H:11])=[O+:6]1)([H:7])([H:8])[H:9]"
C       -1.40899497      -0.37946965      -0.51231222
C       -0.31614600      -0.34266217       0.49516153
O        0.28100672      -1.39863989       0.90998619
C        0.48284016       0.84179454       0.75349636
C        1.53622934       0.50655661      -0.28870691
O        0.81893397       1.74144713      -0.25373601
H       -1.25343826       0.34923075      -1.30676996
H       -1.52676360      -1.37459173      -0.93800991
H       -2.33220650      -0.11588411       0.01017051
H        0.85498398       0.98668753       1.76258636
H        1.23149431       0.02048267      -1.22839014
H        1.63206085      -0.83495167       0.59652419
12
Frame=10 idx=002810 GeodesicLength=0.8207985088203068 rxn_smarts="[C:1]([C:2](=[O:3])[C@@:4]1([H:10])[C:5]([H:11])([H:12])[O:6]1)([H:7])([H:8])[H:9]>>[C:1]([C-:2]([O:3][H:12])[C@@:4]1([H:10])[C:5]([H:11])=[O+:6]1)([H:7])([H:8])[H:9]"
C       -1.40713415      -0.37950116      -0.50939963
C       -0.32647948      -0.34922831       0.51236333
O        0.27223568      -1.41003814       0.91103129
C        0.48267630       0.83261323       0.75500478
C        1.53966821       0.52507814      -0.29191664
O        0.79244691       1.74043556      -0.25431276
H       -1.22834029       0.32929325      -1.31665237
H       -1.54313302      -1.37943314      -0.91807119
H       -2.32944560      -0.08577703      -0.00156764
H        0.85495569       0.98244248       1.76347302
H        1.24382041       0.03751255      -1.23401313
H        1.64872935      -0.84339744       0.58406094
12
Frame=11 idx=002810 GeodesicLength=0.9030238854658353 rxn_smarts="[C:1]([C:2](=[O:3])[C@@:4]1([H:10])[C:5]([H:11])([H:12])[O:6]1)([H:7])([H:8])[H:9]>>[C:1]([C-:2]([O:3][H:12])[C@@:4]1([H:10])[C:5]([H:11])=[O+:6]1)([H:7])([H:8])[H:9]"
C       -1.40517912      -0.37966777      -0.50635107
C       -0.33715224      -0.35569781       0.52987924
O        0.26267728      -1.42132298       0.91257188
C        0.48265113       0.82314361       0.75620219
C        1.54307376       0.54410273      -0.29508507
O        0.76605552       1.73893260      -0.25468823
H       -1.20310087       0.30834270      -1.32578756
H       -1.55994511      -1.38367714      -0.89801849
H       -2.32574402      -0.05574414      -0.01390931
H        0.85469047       0.97822885       1.76413362
H        1.25648851       0.05529616      -1.23974953
H        1.66548468      -0.85193682       0.57080234
12
Frame=12 idx=002810 GeodesicLength=0.9852920861112914 rxn_smarts="[C:1]([C:2](=[O:3])[C@@:4]1([H:10])[C:5]([H:11])([H:12])[O:6]1)([H:7])([H:8])[H:9]>>[C:1]([C-:2]([O:3][H:12])[C@@:4]1([H:10])[C:5]([H:11])=[O+:6]1)([H:7])([H:8])[H:9]"
C       -1.40312294      -0.37997888      -0.50316560
C       -0.34818204      -0.36204855       0.54772047
O        0.25227755      -1.43247992       0.91469059
C        0.48277947       0.81335670       0.75707984
C        1.54643535       0.56365339      -0.29820560
O        0.73976570       1.73692920      -0.25486325
H       -1.17770301       0.28635896      -1.33413858
H       -1.57717622      -1.38730961      -0.87786691
H       -2.32106488      -0.02582020      -0.02687090
H        0.85418691       0.97403969       1.76455837
H        1.26949137       0.07389342      -1.24560193
H        1.68231273      -0.86059420       0.55666352
12
Frame=13 idx=002810 GeodesicLength=1.0676082790613557 rxn_smarts="[C:1]([C:2](=[O:3])[C@@:4]1([H:10])[C:5]([H:11])([H:12])[O:6]1)([H:7])([H:8])[H:9]>>[C:1]([C-:2]([O:3][H:12])[C@@:4]1([H:10])[C:5]([H:11])=[O+:6]1)([H:7])([H:8])[H:9]"
C       -1.40095678      -0.38044427      -0.49984281
C       -0.35958838      -0.36825182       0.56589880
O        0.24097446      -1.44348945       0.91748494
C        0.48307951       0.80322230       0.75762703
C        1.54974086       0.58375084      -0.30127118
O        0.71358839       1.73441474      -0.25483832
H       -1.15213162       0.26332990      -1.34165914
H       -1.59478914      -1.39031582      -0.85764088
H       -2.31537245       0.00394604      -0.04046917
H        0.85344507       0.96986922       1.76473439
H        1.28281769       0.09336649      -1.25157280
H        1.69919238      -0.86939817       0.54154913
12
Frame=14 idx=002810 GeodesicLength=1.1499796727658131 rxn_smarts="[C:1]([C:2](=[O:3])[C@@:4]1([H:10])[C:5]([H:11])([H:12])[O:6]1)([H:7])([H:8])[H:9]>>[C:1]([C-:2]([O:3][H:12])[C@@:4]1([H:10])[C:5]([H:11])=[O+:6]1)([H:7])([H:8])[H:9]"
C       -1.39867032      -0.38107433      -0.49638319
C       -0.37139196      -0.37427187       0.58442641
O        0.22869808      -1.45432723       0.92107092
C        0.48357338       0.79270902       0.75783210
C        1.55297632       0.60441314      -0.30427541
O        0.68753917       1.73137958      -0.25461232
H       -1.12637157       0.23925228      -1.34829617
H       -1.61273219      -1.39268312      -0.83737701
H       -2.30863350       0.03349280      -0.05471899
H        0.85246678       0.96571386       1.76464792
H        1.29645072       0.11377974      -1.25766710
H        1.71609509      -0.87838387       0.52535286
12
Frame=15 idx=002810 GeodesicLength=1.2324132138633213 rxn_smarts="[C:1]([C:2](=[O:3])[C@@:4]1([H:10])[C:5]([H:11])([H:12])[O:6]1)([H:7])([H:8])[H:9]>>[C:1]([C-:2]([O:3][H:12])[C@@:4]1([H:10])[C:5]([H:11])=[O+:6]1)([H:7])([H:8])[H:9]"
C       -1.39625012      -0.38188074      -0.49278811
C       -0.38361483      -0.38006495       0.60331541
O        0.21537035      -1.46496405       0.92557843
C        0.48428661       0.78178366       0.75768268
C        1.55612632       0.62565760      -0.30720930
O        0.66163811       1.72781379      -0.25418114
H       -1.10040669       0.21412634      -1.35399174
H       -1.63094302      -1.39440372      -0.81711461
H       -2.30081569       0.06275074      -0.06963888
H        0.85125609       0.96156806       1.76428277
H        1.31036941       0.13520358      -1.26388811
H        1.73298347      -0.88759031       0.50795260
12
Frame=16 idx=002810 GeodesicLength=1.314917811274561 rxn_smarts="[C:1]([C:2](=[O:3])[C@@:4]1([H:10])[C:5]([H:11])([H:12])[O:6]1)([H:7])([H:8])[H:9]>>[C:1]([C-:2]([O:3][H:12])[C@@:4]1([H:10])[C:5]([H:11])=[O+:6]1)([H:7])([H:8])[H:9]"
C       -1.39367958      -0.38287742      -0.48905994
C       -0.39627951      -0.38558003       0.62257692
O        0.20090675      -1.47536558       0.93115222
C        0.48524780       0.77041000       0.75716704
C        1.55917310       0.64750211      -0.31006147
O        0.63590655       1.72370916      -0.25353433
H       -1.07421229       0.18794917      -1.35868661
H       -1.64935461      -1.39547671      -0.79689271
H       -2.29188529       0.09165008      -0.08525194
H        0.84981819       0.95742359       1.76362244
H        1.32454752       0.15771688      -1.27023910
H        1.74981137      -0.89706126       0.48920747
