16
Frame=0 idx=009264 GeodesicLength=0.0 rxn_smarts="[C:1]([C@@:2]12[C@@:3]3([H:11])[C:4]([H:12])([H:13])[N:5]1[C:6]([H:14])([H:15])[C@@:7]23[H:16])([H:8])([H:9])[H:10]>>[C:1]([C@:2]12[C-:3]([H:11])[C@@:7]1([H:16])[C:6]([H:14])([H:15])[N+:5]2=[C:4]([H:12])[H:13])([H:8])([H:9])[H:10]"
C        1.93962491       0.20548790      -0.03305273
C        0.48031533       0.03982640       0.22029142
C       -0.37200825       0.45920053       1.40826825
C       -1.08402229       1.24584657      -1.08413260
N       -0.52568045       0.10575628      -0.87444219
C       -1.24353818      -1.07317787      -0.38388166
C       -0.38496507      -0.96586576       0.90450067
H        2.18364762       1.23992504      -0.29141530
H        2.30654192      -0.44780759      -0.82847233
H        2.48105960      -0.03416296       0.88218203
H        0.21780775       0.48832992       2.33062684
H       -2.04646287       1.30831437      -1.57943664
H       -0.52069905       2.14388167      -0.86747639
H       -1.00458943      -1.95828908      -0.97291252
H       -2.32371647      -0.91503036      -0.30258731
H       -0.10331502      -1.84223513       1.47194047
16
Frame=1 idx=009264 GeodesicLength=0.04640043882887132 rxn_smarts="[C:1]([C@@:2]12[C@@:3]3([H:11])[C:4]([H:12])([H:13])[N:5]1[C:6]([H:14])([H:15])[C@@:7]23[H:16])([H:8])([H:9])[H:10]>>[C:1]([C@:2]12[C-:3]([H:11])[C@@:7]1([H:16])[C:6]([H:14])([H:15])[N+:5]2=[C:4]([H:12])[H:13])([H:8])([H:9])[H:10]"
C        1.94098757       0.20404196      -0.03275605
C        0.48218160       0.03333029       0.21586466
C       -0.38062790       0.46383160       1.39252680
C       -1.08608236       1.24828880      -1.05773901
N       -0.52160010       0.09979754      -0.88079684
C       -1.24093325      -1.07872935      -0.38692371
C       -0.38859782      -0.96640630       0.90297948
H        2.18595122       1.24052183      -0.28153694
H        2.30727407      -0.44076221      -0.83549294
H        2.48085717      -0.04368557       0.88127938
H        0.20177824       0.50921187       2.31856173
H       -2.05343951       1.31467877      -1.54336475
H       -0.50080884       2.14222384      -0.88641316
H       -1.00040997      -1.96215662      -0.97778490
H       -2.32175412      -0.92630948      -0.30534778
H       -0.10477598      -1.83787698       1.47694401
16
Frame=2 idx=009264 GeodesicLength=0.09276623447630228 rxn_smarts="[C:1]([C@@:2]12[C@@:3]3([H:11])[C:4]([H:12])([H:13])[N:5]1[C:6]([H:14])([H:15])[C@@:7]23[H:16])([H:8])([H:9])[H:10]>>[C:1]([C@:2]12[C-:3]([H:11])[C@@:7]1([H:16])[C:6]([H:14])([H:15])[N+:5]2=[C:4]([H:12])[H:13])([H:8])([H:9])[H:10]"
C        1.94241768       0.20266193      -0.03240145
C        0.48410626       0.02694765       0.21166803
C       -0.38878618       0.46816555       1.37722583
C       -1.08686295       1.25047669      -1.03244239
N       -0.51748221       0.09405362      -0.88691293
C       -1.23862488      -1.08386955      -0.38970278
C       -0.39216640      -0.96695806       0.90150840
H        2.18813077       1.24116559      -0.27157179
H        2.30798477      -0.43345709      -0.84252412
H        2.48087867      -0.05318457       0.88026666
H        0.18632664       0.52952525       2.30654799
H       -2.05893530       1.32029894      -1.50866958
H       -0.48377993       2.14010439      -0.90444111
H       -0.99697992      -1.96566386      -0.98252716
H       -2.31998762      -0.93659246      -0.30773032
H       -0.10623939      -1.83367402       1.48170673
16
Frame=3 idx=009264 GeodesicLength=0.13920572086714122 rxn_smarts="[C:1]([C@@:2]12[C@@:3]3([H:11])[C:4]([H:12])([H:13])[N:5]1[C:6]([H:14])([H:15])[C@@:7]23[H:16])([H:8])([H:9])[H:10]>>[C:1]([C@:2]12[C-:3]([H:11])[C@@:7]1([H:16])[C:6]([H:14])([H:15])[N+:5]2=[C:4]([H:12])[H:13])([H:8])([H:9])[H:10]"
C        1.94380349       0.20127253      -0.03196053
C        0.48606325       0.02065790       0.20767129
C       -0.39650605       0.47221576       1.36219521
C       -1.08649936       1.25242188      -1.00823939
N       -0.51330159       0.08850355      -0.89277526
C       -1.23647454      -1.08856268      -0.39221507
C       -0.39559685      -0.96747013       0.90003714
H        2.19004241       1.24172774      -0.26153067
H        2.30856973      -0.42597549      -0.84941906
H        2.48098936      -0.06272527       0.87914372
H        0.17139127       0.54928137       2.29438518
H       -2.06313366       1.32525414      -1.47522063
H       -0.46940500       2.13756312      -0.92146814
H       -0.99409627      -1.96874587      -0.98703627
H       -2.31824829      -0.94588128      -0.30977223
H       -0.10759790      -1.82953726       1.48620473
16
Frame=4 idx=009264 GeodesicLength=0.18564816341961446 rxn_smarts="[C:1]([C@@:2]12[C@@:3]3([H:11])[C:4]([H:12])([H:13])[N:5]1[C:6]([H:14])([H:15])[C@@:7]23[H:16])([H:8])([H:9])[H:10]>>[C:1]([C@:2]12[C-:3]([H:11])[C@@:7]1([H:16])[C:6]([H:14])([H:15])[N+:5]2=[C:4]([H:12])[H:13])([H:8])([H:9])[H:10]"
C        1.94523816       0.19994114      -0.03146999
C        0.48805159       0.01447234       0.20386801
C       -0.40386881       0.47602178       1.34754285
C       -1.08515692       1.25413282      -0.98506434
N       -0.50908591       0.08309222      -0.89845364
C       -1.23456184      -1.09296036      -0.39452616
C       -0.39898694      -0.96799564       0.89861368
H        2.19185741       1.24231674      -0.25141638
H        2.30913869      -0.41826668      -0.85629578
H        2.48127775      -0.07223269       0.87791854
H        0.15691209       0.56859898       2.28225348
H       -2.06627485       1.32960156      -1.44282670
H       -0.45709225       2.13481858      -0.93770079
H       -0.99179485      -1.97158011      -0.99144771
H       -2.31668129      -0.95443417      -0.31151859
H       -0.10897202      -1.82552650       1.49052352
16
Frame=5 idx=009264 GeodesicLength=0.23215682545933325 rxn_smarts="[C:1]([C@@:2]12[C@@:3]3([H:11])[C:4]([H:12])([H:13])[N:5]1[C:6]([H:14])([H:15])[C@@:7]23[H:16])([H:8])([H:9])[H:10]>>[C:1]([C@:2]12[C-:3]([H:11])[C@@:7]1([H:16])[C:6]([H:14])([H:15])[N+:5]2=[C:4]([H:12])[H:13])([H:8])([H:9])[H:10]"
C        1.94667465       0.19864414      -0.03091332
C        0.49005672       0.00837089       0.20023892
C       -0.41089763       0.47959859       1.33318735
C       -1.08294645       1.25562857      -0.96287579
N       -0.50483683       0.07778992      -0.90395474
C       -1.23282817      -1.09707871      -0.39664143
C       -0.40231455      -0.96851703       0.89722680
H        2.19353202       1.24290849      -0.24111778
H        2.30963575      -0.41026681      -0.86315779
H        2.48169145      -0.08182564       0.87657116
H        0.14285291       0.58752477       2.27006553
H       -2.06850637       1.33341352      -1.41135169
H       -0.44658950       2.13188716      -0.95324968
H       -0.98997482      -1.97416963      -0.99572127
H       -2.31522371      -0.96231309      -0.31299638
H       -0.11032546      -1.82159514       1.49469011
16
Frame=6 idx=009264 GeodesicLength=0.27874307126162734 rxn_smarts="[C:1]([C@@:2]12[C@@:3]3([H:11])[C:4]([H:12])([H:13])[N:5]1[C:6]([H:14])([H:15])[C@@:7]23[H:16])([H:8])([H:9])[H:10]>>[C:1]([C@:2]12[C-:3]([H:11])[C@@:7]1([H:16])[C:6]([H:14])([H:15])[N+:5]2=[C:4]([H:12])[H:13])([H:8])([H:9])[H:10]"
C        1.94809129       0.19740046      -0.03029257
C        0.49205689       0.00236481       0.19677034
C       -0.41762643       0.48297007       1.31911521
C       -1.07999936       1.25693370      -0.94159958
N       -0.50057364       0.07258684      -0.90929649
C       -1.23126076      -1.10095492      -0.39858090
C       -0.40559069      -0.96902821       0.89587695
H        2.19508191       1.24353074      -0.23052185
H        2.31002617      -0.40187222      -0.87006613
H        2.48220280      -0.09157531       0.87507192
H        0.12917657       0.60611951       2.25782268
H       -2.06997298       1.33672452      -1.38064241
H       -0.43749090       2.12868489      -0.96828152
H       -0.98858062      -1.97654652      -0.99987570
H       -2.31387595      -0.96961591      -0.31422932
H       -0.11166429      -1.81772247       1.49872937
16
Frame=7 idx=009264 GeodesicLength=0.3253816753550666 rxn_smarts="[C:1]([C@@:2]12[C@@:3]3([H:11])[C:4]([H:12])([H:13])[N:5]1[C:6]([H:14])([H:15])[C@@:7]23[H:16])([H:8])([H:9])[H:10]>>[C:1]([C@:2]12[C-:3]([H:11])[C@@:7]1([H:16])[C:6]([H:14])([H:15])[N+:5]2=[C:4]([H:12])[H:13])([H:8])([H:9])[H:10]"
C        1.94952104       0.19618178      -0.02962694
C        0.49407212      -0.00356189       0.19345740
C       -0.42406820       0.48615121       1.30533107
C       -1.07637446       1.25804957      -0.92120276
N       -0.49627003       0.06745756      -0.91448819
C       -1.22985016      -1.10461037      -0.40034974
C       -0.40882352      -0.96954084       0.89457501
H        2.19653731       1.24414205      -0.21977133
H        2.31036315      -0.39321445      -0.87696450
H        2.48283358      -0.10140668       0.87343274
H        0.11586381       0.62438966       2.24554273
H       -2.07068964       1.33953801      -1.35085758
H       -0.42987443       2.12547044      -0.98260895
H       -0.98759964      -1.97874043      -1.00391025
H       -2.31263269      -0.97637831      -0.31522082
H       -0.11300825      -1.81392730       1.50266210
16
Frame=8 idx=009264 GeodesicLength=0.3721543246780175 rxn_smarts="[C:1]([C@@:2]12[C@@:3]3([H:11])[C:4]([H:12])([H:13])[N:5]1[C:6]([H:14])([H:15])[C@@:7]23[H:16])([H:8])([H:9])[H:10]>>[C:1]([C@:2]12[C-:3]([H:11])[C@@:7]1([H:16])[C:6]([H:14])([H:15])[N+:5]2=[C:4]([H:12])[H:13])([H:8])([H:9])[H:10]"
C        1.95089888       0.19499646      -0.02888830
C        0.49606576      -0.00941476       0.19029238
C       -0.43025275       0.48912253       1.29178061
C       -1.07218248       1.25901805      -0.90158495
N       -0.49196845       0.06239072      -0.91951321
C       -1.22856504      -1.10805673      -0.40194587
C       -0.41198425      -0.97004130       0.89330002
H        2.19782747       1.24473004      -0.20870269
H        2.31056393      -0.38415476      -0.88385523
H        2.48353814      -0.11141746       0.87162295
H        0.10290197       0.64235854       2.23314715
H       -2.07073645       1.34195624      -1.32182454
H       -0.42339983       2.12206942      -0.99651921
H       -0.98695657      -1.98073346      -1.00780893
H       -2.31146732      -0.98266033      -0.31596795
H       -0.11428301      -1.81016319       1.50646777
16
Frame=9 idx=009264 GeodesicLength=0.41898539631959986 rxn_smarts="[C:1]([C@@:2]12[C@@:3]3([H:11])[C:4]([H:12])([H:13])[N:5]1[C:6]([H:14])([H:15])[C@@:7]23[H:16])([H:8])([H:9])[H:10]>>[C:1]([C@:2]12[C-:3]([H:11])[C@@:7]1([H:16])[C:6]([H:14])([H:15])[N+:5]2=[C:4]([H:12])[H:13])([H:8])([H:9])[H:10]"
C        1.95227843       0.19385562      -0.02810799
C        0.49805609      -0.01518604       0.18726681
C       -0.43619579       0.49192515       1.27850808
C       -1.06747575       1.25983804      -0.88273046
N       -0.48765008       0.05737075      -0.92441073
C       -1.22742893      -1.11134044      -0.40339282
C       -0.41511428      -0.97054755       0.89207884
H        2.19904789       1.24532725      -0.19737964
H        2.31068876      -0.37473061      -0.89077918
H        2.48435156      -0.12156865       0.86963851
H        0.09026108       0.66007451       2.22072176
H       -2.07018264       1.34395597      -1.29358710
H       -0.41797951       2.11862222      -1.00991917
H       -0.98667486      -1.98259634      -1.01161114
H       -2.31041858      -0.98853451      -0.31649448
H       -0.11556341      -1.80646537       1.51019870
16
Frame=10 idx=009264 GeodesicLength=0.4658936543160608 rxn_smarts="[C:1]([C@@:2]12[C@@:3]3([H:11])[C:4]([H:12])([H:13])[N:5]1[C:6]([H:14])([H:15])[C@@:7]23[H:16])([H:8])([H:9])[H:10]>>[C:1]([C@:2]12[C-:3]([H:11])[C@@:7]1([H:16])[C:6]([H:14])([H:15])[N+:5]2=[C:4]([H:12])[H:13])([H:8])([H:9])[H:10]"
C        1.95363905       0.19272427      -0.02727834
C        0.50004253      -0.02088719       0.18437422
C       -0.44190290       0.49456590       1.26546673
C       -1.06230334       1.26051713      -0.86459520
N       -0.48330702       0.05240086      -0.92917638
C       -1.22639681      -1.11443780      -0.40469460
C       -0.41819082      -0.97104149       0.89090368
H        2.20016365       1.24587591      -0.18582570
H        2.31071822      -0.36498479      -0.89768302
H        2.48524857      -0.13188760       0.86748282
H        0.07793029       0.67753417       2.20821430
H       -2.06907022       1.34554892      -1.26613374
H       -0.41363368       2.11515940      -1.02279609
H       -0.98668701      -1.98428893      -1.01529224
H       -2.30943100      -0.99399311      -0.31682970
H       -0.11681952      -1.80280566       1.51386326
16
Frame=11 idx=009264 GeodesicLength=0.5128638019174401 rxn_smarts="[C:1]([C@@:2]12[C@@:3]3([H:11])[C:4]([H:12])([H:13])[N:5]1[C:6]([H:14])([H:15])[C@@:7]23[H:16])([H:8])([H:9])[H:10]>>[C:1]([C@:2]12[C-:3]([H:11])[C@@:7]1([H:16])[C:6]([H:14])([H:15])[N+:5]2=[C:4]([H:12])[H:13])([H:8])([H:9])[H:10]"
C        1.95496496       0.19164794      -0.02640176
C        0.50201166      -0.02650335       0.18160088
C       -0.44737382       0.49705795       1.25264789
C       -1.05677482       1.26106055      -0.84716672
N       -0.47895748       0.04745429      -0.93382048
C       -1.22548602      -1.11739343      -0.40583818
C       -0.42122515      -0.97152863       0.88976846
H        2.20121023       1.24643500      -0.17383032
H        2.31061093      -0.35472024      -0.90466441
H        2.48620820      -0.14246812       0.86507579
H        0.06589674       0.69480216       2.19561570
H       -2.06751711       1.34676699      -1.23943711
H       -0.40996398       2.11154111      -1.03523273
H       -0.98701549      -1.98586842      -1.01883363
H       -2.30852885      -0.99910409      -0.31693634
H       -0.11806003      -1.79917971       1.51745296
16
Frame=12 idx=009264 GeodesicLength=0.5599670964376098 rxn_smarts="[C:1]([C@@:2]12[C@@:3]3([H:11])[C:4]([H:12])([H:13])[N:5]1[C:6]([H:14])([H:15])[C@@:7]23[H:16])([H:8])([H:9])[H:10]>>[C:1]([C@:2]12[C-:3]([H:11])[C@@:7]1([H:16])[C:6]([H:14])([H:15])[N+:5]2=[C:4]([H:12])[H:13])([H:8])([H:9])[H:10]"
C        1.95629251       0.19061427      -0.02547878
C        0.50396203      -0.03206571       0.17896350
C       -0.45267690       0.49937796       1.24011629
C       -1.05082028       1.26154666      -0.83028952
N       -0.47461798       0.04251889      -0.93834098
C       -1.22471763      -1.12025364      -0.40686205
C       -0.42423643      -0.97203795       0.88870090
H        2.20218020       1.24697132      -0.16157268
H        2.31042100      -0.34405269      -0.91165337
H        2.48729940      -0.15318491       0.86248239
H        0.05414531       0.71186332       2.18300394
H       -2.06537848       1.34771695      -1.21341361
H       -0.40715794       2.10791686      -1.04747448
H       -0.98764144      -1.98736459      -1.02234379
H       -2.30776591      -1.00395294      -0.31683947
H       -0.11928745      -1.79561382       1.52100170
16
Frame=13 idx=009264 GeodesicLength=0.6071599171182132 rxn_smarts="[C:1]([C@@:2]12[C@@:3]3([H:11])[C:4]([H:12])([H:13])[N:5]1[C:6]([H:14])([H:15])[C@@:7]23[H:16])([H:8])([H:9])[H:10]>>[C:1]([C@:2]12[C-:3]([H:11])[C@@:7]1([H:16])[C:6]([H:14])([H:15])[N+:5]2=[C:4]([H:12])[H:13])([H:8])([H:9])[H:10]"
C        1.95753682       0.18957095      -0.02450830
C        0.50589693      -0.03755383       0.17642234
C       -0.45773916       0.50157511       1.22770879
C       -1.04462930       1.26185077      -0.81407250
N       -0.47024625       0.03761275      -0.94272792
C       -1.22397862      -1.12290838      -0.40771413
C       -0.42715875      -0.97250476       0.88764855
H        2.20300803       1.24741135      -0.14890436
H        2.31006095      -0.33294141      -0.91862399
H        2.48838214      -0.16421177       0.85960535
H        0.04265130       0.72871861       2.17018511
H       -2.06289325       1.34825721      -1.18819000
H       -0.40501189       2.10421501      -1.05912831
H       -0.98847560      -1.98866409      -1.02562642
H       -2.30695515      -1.00838734      -0.31654261
H       -0.12044822      -1.79204019       1.52446840
16
Frame=14 idx=009264 GeodesicLength=0.6544090255318777 rxn_smarts="[C:1]([C@@:2]12[C@@:3]3([H:11])[C:4]([H:12])([H:13])[N:5]1[C:6]([H:14])([H:15])[C@@:7]23[H:16])([H:8])([H:9])[H:10]>>[C:1]([C@:2]12[C-:3]([H:11])[C@@:7]1([H:16])[C:6]([H:14])([H:15])[N+:5]2=[C:4]([H:12])[H:13])([H:8])([H:9])[H:10]"
C        1.95879112       0.18857840      -0.02350252
C        0.50781880      -0.04297745       0.17400106
C       -0.46262801       0.50362414       1.21557290
C       -1.03812454       1.26210199      -0.79837621
N       -0.46588353       0.03271308      -0.94701184
C       -1.22338024      -1.12547723      -0.40845375
C       -0.43005993      -0.97299121       0.88666019
H        2.20380358       1.24782108      -0.13596894
H        2.30962158      -0.32141940      -0.92558788
H        2.48958917      -0.17535583       0.85652055
H        0.03142764       0.74538795       2.15735904
H       -2.05995114       1.34853627      -1.16369996
H       -0.40353446       2.10047177      -1.07049386
H       -0.98960346      -1.98989431      -1.02886557
H       -2.30628722      -1.01259331      -0.31605364
H       -0.12159936      -1.78852593       1.52790042
16
Frame=15 idx=009264 GeodesicLength=0.7017364576434462 rxn_smarts="[C:1]([C@@:2]12[C@@:3]3([H:11])[C:4]([H:12])([H:13])[N:5]1[C:6]([H:14])([H:15])[C@@:7]23[H:16])([H:8])([H:9])[H:10]>>[C:1]([C@:2]12[C-:3]([H:11])[C@@:7]1([H:16])[C:6]([H:14])([H:15])[N+:5]2=[C:4]([H:12])[H:13])([H:8])([H:9])[H:10]"
C        1.96001612       0.18761018      -0.02246112
C        0.50972396      -0.04833717       0.17169007
C       -0.46733337       0.50552920       1.20365823
C       -1.03137061       1.26228674      -0.78318066
N       -0.46151758       0.02782840      -0.95117823
C       -1.22287236      -1.12792929      -0.40906734
C       -0.43291165      -0.97348460       0.88571548
H        2.20451416       1.24814965      -0.12281331
H        2.30906812      -0.30955318      -0.93247512
H        2.49086711      -0.18660082       0.85322016
H        0.02045973       0.76185146       2.14446016
H       -2.05659347       1.34855059      -1.13998821
H       -0.40268674       2.09670850      -1.08146696
H       -0.99097137      -1.99101345      -1.03201104
H       -2.30568522      -1.01653565      -0.31537204
H       -0.12270682      -1.78506057       1.53126993
16
Frame=16 idx=009264 GeodesicLength=0.7491196783785661 rxn_smarts="[C:1]([C@@:2]12[C@@:3]3([H:11])[C:4]([H:12])([H:13])[N:5]1[C:6]([H:14])([H:15])[C@@:7]23[H:16])([H:8])([H:9])[H:10]>>[C:1]([C@:2]12[C-:3]([H:11])[C@@:7]1([H:16])[C:6]([H:14])([H:15])[N+:5]2=[C:4]([H:12])[H:13])([H:8])([H:9])[H:10]"
C        1.96121656       0.18666318      -0.02139004
C        0.51161356      -0.05362779       0.16948522
C       -0.47186170       0.50729541       1.19196500
C       -1.02440982       1.26240888      -0.76845258
N       -0.45714920       0.02296299      -0.95523126
C       -1.22245052      -1.13026462      -0.40956399
C       -0.43571288      -0.97398475       0.88481023
H        2.20515104       1.24838167      -0.10950992
H        2.30841242      -0.29740982      -0.93924541
H        2.49221430      -0.19788447       0.84972262
H        0.00973591       0.77810131       2.13149992
H       -2.05285991       1.34830631      -1.11707067
H       -0.40241959       2.09294355      -1.09200816
H       -0.99256793      -1.99201702      -1.03507289
H       -2.30514699      -1.02022694      -0.31450688
H       -0.12376523      -1.78164791       1.53456880
