18
Frame=0 idx=006815 GeodesicLength=0.0 rxn_smarts="[C:1]([C:2]([C:3]([C@@:4]([C:5]([H:16])([H:17])[H:18])([C:6]#[N:7])[H:15])([H:13])[H:14])([H:11])[H:12])([H:8])([H:9])[H:10]>>[C:1](=[C:2]([C:3]([C@@:4]([C:5]([H:16])([H:17])[H:18])([C:6]#[N:7])[H:15])([H:13])[H:14])[H:11])([H:9])[H:10].[H:8][H:12]"
C       -2.36748397      -0.14191677      -1.28945707
C       -1.39426300       0.21791222      -0.31410223
C        0.05424451      -0.13442666      -0.52377896
C        0.96510560       0.00173211       0.70136854
C        2.41504568      -0.36337253       0.37841154
C        0.88299073       1.36406747       1.23858248
N        0.80848712       2.43866533       1.63415765
H       -2.19927658      -0.68291544       0.09518440
H       -3.29308885       0.40677414      -1.35761481
H       -2.17090879      -0.95922332      -1.96796350
H       -1.57716650       1.14314452       0.22319227
H       -1.57085331      -0.63301503       1.04131785
H        0.13107491      -1.15134452      -0.91340736
H        0.39860508       0.53460990      -1.31938302
H        0.58842088      -0.66237953       1.48446497
H        2.46315919      -1.39017819       0.01345452
H        2.82257601       0.29574064      -0.38941049
H        3.04333121      -0.28387431       1.26498322
18
Frame=1 idx=006815 GeodesicLength=0.10538190226841906 rxn_smarts="[C:1]([C:2]([C:3]([C@@:4]([C:5]([H:16])([H:17])[H:18])([C:6]#[N:7])[H:15])([H:13])[H:14])([H:11])[H:12])([H:8])([H:9])[H:10]>>[C:1](=[C:2]([C:3]([C@@:4]([C:5]([H:16])([H:17])[H:18])([C:6]#[N:7])[H:15])([H:13])[H:14])[H:11])([H:9])[H:10].[H:8][H:12]"
C       -2.36682920      -0.14785858      -1.28285691
C       -1.39565493       0.21326415      -0.30598971
C        0.05396409      -0.13097992      -0.52373874
C        0.96668360       0.00437109       0.70040409
C        2.41602563      -0.36169904       0.37570050
C        0.88647263       1.36651438       1.23850601
N        0.81653562       2.44079233       1.63579483
H       -2.22853761      -0.71253691       0.10840718
H       -3.27186194       0.43054043      -1.38089023
H       -2.16829454      -0.96492897      -1.96164814
H       -1.57485241       1.14666813       0.21928873
H       -1.58717436      -0.64305035       1.04582029
H        0.13347334      -1.14752927      -0.91421720
H        0.39763283       0.54017691      -1.31782890
H        0.59113041      -0.65971004       1.48414341
H        2.46303744      -1.38884697       0.01153551
H        2.82233194       0.29653196      -0.39353305
H        3.04591746      -0.28171931       1.26110231
18
Frame=2 idx=006815 GeodesicLength=0.21019484982836745 rxn_smarts="[C:1]([C:2]([C:3]([C@@:4]([C:5]([H:16])([H:17])[H:18])([C:6]#[N:7])[H:15])([H:13])[H:14])([H:11])[H:12])([H:8])([H:9])[H:10]>>[C:1](=[C:2]([C:3]([C@@:4]([C:5]([H:16])([H:17])[H:18])([C:6]#[N:7])[H:15])([H:13])[H:14])[H:11])([H:9])[H:10].[H:8][H:12]"
C       -2.36649697      -0.15380941      -1.27560209
C       -1.39681505       0.20936861      -0.29797528
C        0.05374990      -0.12710890      -0.52383245
C        0.96825319       0.00717201       0.69938881
C        2.41694210      -0.36015753       0.37301926
C        0.89022070       1.36912137       1.23842604
N        0.82502199       2.44304917       1.63747892
H       -2.25856932      -0.74309307       0.12138647
H       -3.24962041       0.45267501      -1.40365312
H       -2.16557920      -0.97033693      -1.95495199
H       -1.57239652       1.15065879       0.21533941
H       -1.60416432      -0.65317783       1.04950738
H        0.13574632      -1.14328660      -0.91518965
H        0.39682505       0.54613558      -1.31638068
H        0.59361191      -0.65683089       1.48370655
H        2.46266228      -1.38764573       0.00961790
H        2.82220831       0.29713267      -0.39757652
H        3.04840003      -0.27986635       1.25729106
18
Frame=3 idx=006815 GeodesicLength=0.31470171071551895 rxn_smarts="[C:1]([C:2]([C:3]([C@@:4]([C:5]([H:16])([H:17])[H:18])([C:6]#[N:7])[H:15])([H:13])[H:14])([H:11])[H:12])([H:8])([H:9])[H:10]>>[C:1](=[C:2]([C:3]([C@@:4]([C:5]([H:16])([H:17])[H:18])([C:6]#[N:7])[H:15])([H:13])[H:14])[H:11])([H:9])[H:10].[H:8][H:12]"
C       -2.36649958      -0.15973982      -1.26764218
C       -1.39769655       0.20633678      -0.29009053
C        0.05363193      -0.12277042      -0.52407373
C        0.96982985       0.01015241       0.69832324
C        2.41780384      -0.35876464       0.37038600
C        0.89428171       1.37190493       1.23834449
N        0.83399678       2.44544701       1.63921990
H       -2.28941641      -0.77478790       0.13404930
H       -3.22652794       0.47301374      -1.42581001
H       -2.16276775      -0.97542775      -1.94781450
H       -1.56976851       1.15522245       0.21132799
H       -1.62189385      -0.66338364       1.05224121
H        0.13789722      -1.13857843      -0.91633320
H        0.39623754       0.55251469      -1.31505215
H        0.59585214      -0.65371710       1.48314793
H        2.46202100      -1.38658977       0.00771755
H        2.82223851       0.29751747      -0.40151683
H        3.05078008      -0.27835001       1.25357551
18
Frame=4 idx=006815 GeodesicLength=0.41915222941126734 rxn_smarts="[C:1]([C:2]([C:3]([C@@:4]([C:5]([H:16])([H:17])[H:18])([C:6]#[N:7])[H:15])([H:13])[H:14])([H:11])[H:12])([H:8])([H:9])[H:10]>>[C:1](=[C:2]([C:3]([C@@:4]([C:5]([H:16])([H:17])[H:18])([C:6]#[N:7])[H:15])([H:13])[H:14])[H:11])([H:9])[H:10].[H:8][H:12]"
C       -2.36683369      -0.16563038      -1.25892556
C       -1.39824644       0.20430307      -0.28237955
C        0.05364874      -0.11790913      -0.52448226
C        0.97142936       0.01333596       0.69720846
C        2.41862150      -0.35754682       0.36782997
C        0.89871055       1.37489112       1.23825829
N        0.84352727       2.44800937       1.64101623
H       -2.32109987      -0.80787336       0.14629705
H       -3.20284882       0.49137554      -1.44718295
H       -2.15985162      -0.98017612      -1.94018748
H       -1.56693321       1.16048863       0.20722403
H       -1.64045065      -0.67365379       1.05384065
H        0.13993627      -1.13335565      -0.91766101
H        0.39594370       0.55935455      -1.31386222
H        0.59782445      -0.65033237       1.48246210
H        2.46109676      -1.38570781       0.00586728
H        2.82247094       0.29764496      -0.40532021
H        3.05305475      -0.27721776       1.24999720
18
Frame=5 idx=006815 GeodesicLength=0.5239090733566193 rxn_smarts="[C:1]([C:2]([C:3]([C@@:4]([C:5]([H:16])([H:17])[H:18])([C:6]#[N:7])[H:15])([H:13])[H:14])([H:11])[H:12])([H:8])([H:9])[H:10]>>[C:1](=[C:2]([C:3]([C@@:4]([C:5]([H:16])([H:17])[H:18])([C:6]#[N:7])[H:15])([H:13])[H:14])[H:11])([H:9])[H:10].[H:8][H:12]"
C       -2.36747919      -0.17146547      -1.24935918
C       -1.39839254       0.20343283      -0.27493084
C        0.05385509      -0.11245429      -0.52509695
C        0.97306697       0.01675339       0.69603851
C        2.41940137      -0.35653440       0.36539345
C        0.90356641       1.37811128       1.23816092
N        0.85369018       2.45076327       1.64286747
H       -2.35365395      -0.84267243       0.15803366
H       -3.17886843       0.50757391      -1.46753610
H       -2.15686345      -0.98456605      -1.93196483
H       -1.56384172       1.16660646       0.20296986
H       -1.65993541      -0.68398171       1.05404726
H        0.14188565      -1.12755442      -0.91920576
H        0.39604961       0.56670621      -1.31284215
H        0.59948672      -0.64662919       1.48162734
H        2.45986311      -1.38502911       0.00410875
H        2.82296384       0.29746638      -0.40893038
H        3.05520573      -0.27652665       1.24661896
18
Frame=6 idx=006815 GeodesicLength=0.6290208875227918 rxn_smarts="[C:1]([C:2]([C:3]([C@@:4]([C:5]([H:16])([H:17])[H:18])([C:6]#[N:7])[H:15])([H:13])[H:14])([H:11])[H:12])([H:8])([H:9])[H:10]>>[C:1](=[C:2]([C:3]([C@@:4]([C:5]([H:16])([H:17])[H:18])([C:6]#[N:7])[H:15])([H:13])[H:14])[H:11])([H:9])[H:10].[H:8][H:12]"
C       -2.36843608      -0.17724763      -1.23885888
C       -1.39808214       0.20384815      -0.26776966
C        0.05428907      -0.10636135      -0.52592647
C        0.97476202       0.02043069       0.69481972
C        2.42015285      -0.35575183       0.36310708
C        0.90890826       1.38159430       1.23804288
N        0.86455475       2.45373615       1.64475685
H       -2.38706558      -0.87948525       0.16914419
H       -3.15491103       0.52149682      -1.48667803
H       -2.15376758      -0.98854911      -1.92312278
H       -1.56043851       1.17372256       0.19850591
H       -1.68045525      -0.69436348       1.05265128
H        0.14375480      -1.12113888      -0.92096066
H        0.39662391       0.57458997      -1.31200792
H        0.60082110      -0.64256006       1.48065129
H        2.45830026      -1.38458114       0.00248522
H        2.82375809       0.29693357      -0.41232014
H        3.05723106      -0.27631349       1.24348012
18
Frame=7 idx=006815 GeodesicLength=0.7345389120915602 rxn_smarts="[C:1]([C:2]([C:3]([C@@:4]([C:5]([H:16])([H:17])[H:18])([C:6]#[N:7])[H:15])([H:13])[H:14])([H:11])[H:12])([H:8])([H:9])[H:10]>>[C:1](=[C:2]([C:3]([C@@:4]([C:5]([H:16])([H:17])[H:18])([C:6]#[N:7])[H:15])([H:13])[H:14])[H:11])([H:9])[H:10].[H:8][H:12]"
C       -2.36968425      -0.18297737      -1.22732318
C       -1.39725679       0.20568656      -0.26094812
C        0.05499472      -0.09957654      -0.52699113
C        0.97653051       0.02439855       0.69355483
C        2.42088076      -0.35522715       0.36101251
C        0.91479416       1.38537605       1.23789171
N        0.87619703       2.45696366       1.64666603
H       -2.42129952      -0.91864684       0.17950217
H       -3.13130656       0.53304537      -1.50435963
H       -2.15057966      -0.99209740      -1.91358576
H       -1.55666260       1.18199882       0.19373727
H       -1.70211773      -0.70482000       1.04938437
H        0.14555945      -1.11406473      -0.92293198
H        0.39775346       0.58303433      -1.31138190
H        0.60179653      -0.63807031       1.47953233
H        2.45638084      -1.38439478       0.00104941
H        2.82490056       0.29599291      -0.41544542
H        3.05911908      -0.27662115       1.24063649
18
Frame=8 idx=006815 GeodesicLength=0.8404721768301479 rxn_smarts="[C:1]([C:2]([C:3]([C@@:4]([C:5]([H:16])([H:17])[H:18])([C:6]#[N:7])[H:15])([H:13])[H:14])([H:11])[H:12])([H:8])([H:9])[H:10]>>[C:1](=[C:2]([C:3]([C@@:4]([C:5]([H:16])([H:17])[H:18])([C:6]#[N:7])[H:15])([H:13])[H:14])[H:11])([H:9])[H:10].[H:8][H:12]"
C       -2.37120172      -0.18866096      -1.21464696
C       -1.39584478       0.20906613      -0.25450451
C        0.05602463      -0.09205346      -0.52830535
C        0.97839431       0.02868775       0.69224787
C        2.42158945      -0.35498077       0.35914691
C        0.92128243       1.38948522       1.23769769
N        0.88869138       2.46047202       1.64857744
H       -2.45637985      -0.96043588       0.18899371
H       -3.10839567       0.54215318      -1.52036445
H       -2.14731094      -0.99520992      -1.90325950
H       -1.55244007       1.19157689       0.18858130
H       -1.72502049      -0.71538995       1.04394586
H        0.14732605      -1.10629121      -0.92512010
H        0.39952655       0.59205775      -1.31098039
H        0.60239584      -0.63310132       1.47827121
H        2.45408014      -1.38448879      -0.00015071
H        2.82642889       0.29459405      -0.41826728
H        3.06085385      -0.27748074       1.23813726
18
Frame=9 idx=006815 GeodesicLength=0.9465939118833643 rxn_smarts="[C:1]([C:2]([C:3]([C@@:4]([C:5]([H:16])([H:17])[H:18])([C:6]#[N:7])[H:15])([H:13])[H:14])([H:11])[H:12])([H:8])([H:9])[H:10]>>[C:1](=[C:2]([C:3]([C@@:4]([C:5]([H:16])([H:17])[H:18])([C:6]#[N:7])[H:15])([H:13])[H:14])[H:11])([H:9])[H:10].[H:8][H:12]"
C       -2.37298251      -0.19437793      -1.20060648
C       -1.39391183       0.21401396      -0.24840743
C        0.05732902      -0.08381095      -0.52983804
C        0.98032635       0.03333024       0.69091357
C        2.42225403      -0.35503542       0.35753313
C        0.92837670       1.39399435       1.23738522
N        0.90206791       2.46435818       1.65035451
H       -2.49208188      -1.00544520       0.19740184
H       -3.08604073       0.54901812      -1.53422298
H       -2.14387801      -0.99764059      -1.89225763
H       -1.54778279       1.20257527       0.18288602
H       -1.74924173      -0.72601735       1.03603629
H        0.14898272      -1.09786342      -0.92743999
H        0.40190113       0.60159555      -1.31082595
H        0.60257677      -0.62756868       1.47693058
H        2.45134860      -1.38491575      -0.00102230
H        2.82832995       0.29266608      -0.42081565
H        3.06242632      -0.27887647       1.23599529
18
Frame=10 idx=006815 GeodesicLength=1.0528249880600828 rxn_smarts="[C:1]([C:2]([C:3]([C@@:4]([C:5]([H:16])([H:17])[H:18])([C:6]#[N:7])[H:15])([H:13])[H:14])([H:11])[H:12])([H:8])([H:9])[H:10]>>[C:1](=[C:2]([C:3]([C@@:4]([C:5]([H:16])([H:17])[H:18])([C:6]#[N:7])[H:15])([H:13])[H:14])[H:11])([H:9])[H:10].[H:8][H:12]"
C       -2.37494656      -0.20003242      -1.18524847
C       -1.39131573       0.22065608      -0.24271194
C        0.05902144      -0.07477220      -0.53162769
C        0.98238573       0.03834307       0.68954996
C        2.42290586      -0.35538817       0.35620192
C        0.93615245       1.39888172       1.23701032
N        0.91640117       2.46857302       1.65209645
H       -2.52864173      -1.05339095       0.20478294
H       -3.06482436       0.55346336      -1.54606477
H       -2.14044474      -0.99972412      -1.88018973
H       -1.54256970       1.21510817       0.17660096
H       -1.77485363      -0.73701023       1.02533402
H        0.15062640      -1.08869358      -0.92995409
H        0.40503520       0.61172791      -1.31091406
H        0.60236777      -0.62146412       1.47546492
H        2.44820246      -1.38564354      -0.00158182
H        2.83066474       0.29021711      -0.42301309
H        3.06383322      -0.28085111       1.23426418
18
Frame=11 idx=006815 GeodesicLength=1.1589367208254273 rxn_smarts="[C:1]([C:2]([C:3]([C@@:4]([C:5]([H:16])([H:17])[H:18])([C:6]#[N:7])[H:15])([H:13])[H:14])([H:11])[H:12])([H:8])([H:9])[H:10]>>[C:1](=[C:2]([C:3]([C@@:4]([C:5]([H:16])([H:17])[H:18])([C:6]#[N:7])[H:15])([H:13])[H:14])[H:11])([H:9])[H:10].[H:8][H:12]"
C       -2.37700526      -0.20559546      -1.16854650
C       -1.38807326       0.22898007      -0.23739295
C        0.06110394      -0.06494270      -0.53365876
C        0.98458411       0.04373472       0.68816432
C        2.42355774      -0.35602699       0.35515266
C        0.94461374       1.40415896       1.23656750
N        0.93169992       2.47312712       1.65379048
H       -2.56614531      -1.10419666       0.21115719
H       -3.04479266       0.55562334      -1.55588714
H       -2.13705774      -1.00157035      -1.86690390
H       -1.53679510       1.22919209       0.16967594
H       -1.80186315      -0.74856875       1.01161255
H        0.15225873      -1.07879577      -0.93263390
H        0.40893714       0.62244475      -1.31123720
H        0.60179043      -0.61477536       1.47389244
H        2.44465477      -1.38666200      -0.00182259
H        2.83343815       0.28725720      -0.42486914
H        3.06509382      -0.28338419       1.23293900
18
Frame=12 idx=006815 GeodesicLength=1.264756917990603 rxn_smarts="[C:1]([C:2]([C:3]([C@@:4]([C:5]([H:16])([H:17])[H:18])([C:6]#[N:7])[H:15])([H:13])[H:14])([H:11])[H:12])([H:8])([H:9])[H:10]>>[C:1](=[C:2]([C:3]([C@@:4]([C:5]([H:16])([H:17])[H:18])([C:6]#[N:7])[H:15])([H:13])[H:14])[H:11])([H:9])[H:10].[H:8][H:12]"
C       -2.37906982      -0.21101950      -1.15052885
C       -1.38419829       0.23890430      -0.23238213
C        0.06357745      -0.05435612      -0.53589768
C        0.98694263       0.04950325       0.68676991
C        2.42422699      -0.35691743       0.35437169
C        0.95375220       1.40981924       1.23606363
N        0.94794703       2.47800973       1.65543775
H       -2.60479627      -1.15758842       0.21657753
H       -3.02595581       0.55568146      -1.56376855
H       -2.13376893      -1.00333735      -1.85223749
H       -1.53044503       1.24479252       0.16205904
H       -1.83021563      -0.76096462       0.99467199
H        0.15389208      -1.06820567      -0.93543813
H        0.41359310       0.63371217      -1.31176833
H        0.60090525      -0.60750549       1.47223891
H        2.44074053      -1.38793268      -0.00175619
H        2.83663407       0.28382570      -0.42640715
H        3.06623844      -0.28642109       1.23199405
18
Frame=13 idx=006815 GeodesicLength=1.3701670144636542 rxn_smarts="[C:1]([C:2]([C:3]([C@@:4]([C:5]([H:16])([H:17])[H:18])([C:6]#[N:7])[H:15])([H:13])[H:14])([H:11])[H:12])([H:8])([H:9])[H:10]>>[C:1](=[C:2]([C:3]([C@@:4]([C:5]([H:16])([H:17])[H:18])([C:6]#[N:7])[H:15])([H:13])[H:14])[H:11])([H:9])[H:10].[H:8][H:12]"
C       -2.38103776      -0.21623642      -1.13130473
C       -1.37974022       0.25026222      -0.22758751
C        0.06641950      -0.04307802      -0.53829777
C        0.98947717       0.05563060       0.68537817
C        2.42493417      -0.35800150       0.35382000
C        0.96352454       1.41583655       1.23551397
N        0.96507577       2.48319157       1.65705283
H       -2.64488602      -1.21307186       0.22119724
H       -3.00813219       0.55390132      -1.56992306
H       -2.13063077      -1.00523807      -1.83603864
H       -1.52354939       1.26176551       0.15376599
H       -1.85977449      -0.77450098       0.97441157
H        0.15553412      -1.05698660      -0.93832001
H        0.41894345       0.64547925      -1.31246515
H        0.59979796      -0.59969111       1.47053104
H        2.43651874      -1.38939192      -0.00142757
H        2.84021329       0.28000382      -0.42767635
H        3.06731212      -0.28987437       1.23136998
18
Frame=14 idx=006815 GeodesicLength=1.475097991451805 rxn_smarts="[C:1]([C:2]([C:3]([C@@:4]([C:5]([H:16])([H:17])[H:18])([C:6]#[N:7])[H:15])([H:13])[H:14])([H:11])[H:12])([H:8])([H:9])[H:10]>>[C:1](=[C:2]([C:3]([C@@:4]([C:5]([H:16])([H:17])[H:18])([C:6]#[N:7])[H:15])([H:13])[H:14])[H:11])([H:9])[H:10].[H:8][H:12]"
C       -2.38281589      -0.22117639      -1.11106572
C       -1.37477611       0.26277892      -0.22283877
C        0.06958850      -0.03121733      -0.54077785
C        0.99221480       0.06207661       0.68400978
C        2.42571534      -0.35918918       0.35342400
C        0.97386372       1.42215509       1.23495634
N        0.98297298       2.48860896       1.65867887
H       -2.68688216      -1.26988488       0.22522602
H       -2.99100648       0.55058830      -1.57475824
H       -2.12765733      -1.00752313      -1.81818991
H       -1.51616350       1.27986547       0.14487311
H       -1.89032681      -0.78948209       0.95084926
H        0.15719532      -1.04523867      -0.94120803
H        0.42487069       0.65767044      -1.31325266
H        0.59861312      -0.59141137       1.46881087
H        2.43209100      -1.39093822      -0.00092727
H        2.84410723       0.27592752      -0.42876571
H        3.06839558      -0.29361003       1.23095591
18
Frame=15 idx=006815 GeodesicLength=1.5796258054191603 rxn_smarts="[C:1]([C:2]([C:3]([C@@:4]([C:5]([H:16])([H:17])[H:18])([C:6]#[N:7])[H:15])([H:13])[H:14])([H:11])[H:12])([H:8])([H:9])[H:10]>>[C:1](=[C:2]([C:3]([C@@:4]([C:5]([H:16])([H:17])[H:18])([C:6]#[N:7])[H:15])([H:13])[H:14])[H:11])([H:9])[H:10].[H:8][H:12]"
C       -2.38430598      -0.22575234      -1.09006244
C       -1.36940380       0.27612522      -0.21797180
C        0.07302825      -0.01890184      -0.54325743
C        0.99517534       0.06878938       0.68268030
C        2.42660814      -0.36037468       0.35309681
C        0.98467312       1.42870556       1.23443353
N        1.00148264       2.49418498       1.66037226
H       -2.73131616      -1.32714237       0.22893757
H       -2.97412212       0.54606474      -1.57873549
H       -2.12486507      -1.01045345      -1.79860304
H       -1.50837325       1.29877023       0.13549591
H       -1.92158734      -0.80620489       0.92410786
H        0.15888527      -1.03307649      -0.94404030
H        0.43123118       0.67020286      -1.31405158
H        0.59750315      -0.58277213       1.46711244
H        2.42757720      -1.39245424      -0.00036715
H        2.84823569       0.27176352      -0.42977302
H        3.06957374      -0.29747406       1.23062557
18
Frame=16 idx=006815 GeodesicLength=1.683933384882171 rxn_smarts="[C:1]([C:2]([C:3]([C@@:4]([C:5]([H:16])([H:17])[H:18])([C:6]#[N:7])[H:15])([H:13])[H:14])([H:11])[H:12])([H:8])([H:9])[H:10]>>[C:1](=[C:2]([C:3]([C@@:4]([C:5]([H:16])([H:17])[H:18])([C:6]#[N:7])[H:15])([H:13])[H:14])[H:11])([H:9])[H:10].[H:8][H:12]"
C       -2.38542249      -0.22987909      -1.06859755
C       -1.36373168       0.28993325      -0.21280632
C        0.07667459      -0.00627295      -0.54564698
C        0.99838007       0.07570667       0.68140639
C        2.42765571      -0.36143953       0.35273682
C        0.99584342       1.43540511       1.23400020
N        1.02042743       2.49982670       1.66220810
H       -2.77879014      -1.38388890       0.23262682
H       -2.95695289       0.54062825      -1.58239649
H       -2.12225212      -1.01428784      -1.77723881
H       -1.50028577       1.31810175       0.12580661
H       -1.95322798      -0.82489745       0.89441544
H        0.16061538      -1.02062406      -0.94675397
H        0.43785799       0.68299049      -1.31477114
H        0.59663905      -0.57390229       1.46546980
H        2.42311516      -1.39380696       0.00011738
H        2.85250943       0.26770493      -0.43080928
H        3.07094484      -0.30129807       1.23023301
