15
Frame=0 idx=005892 GeodesicLength=0.0 rxn_smarts="[C:1]([C:2]([C:3]([H:11])([H:12])[H:13])([C:4](=[O:5])[N:6]([H:14])[H:15])[H:10])([H:7])([H:8])[H:9]>>[C:1]([C:2]1([C:3]([H:11])([H:12])[H:13])[C@@:4]([N:6]([H:14])[H:15])([H:10])[O:5]1)([H:7])([H:8])[H:9]"
C       -0.71661454      -1.30901865       0.43770249
C       -0.39004213       0.08012805       0.11058563
C       -1.35976982       1.14789415       0.35947809
C        0.93146567       0.48582291      -0.41818791
O        1.40388935       1.51337915       0.22746445
N        1.82638043      -0.66272121      -0.62504202
H       -1.64435374      -1.42554071       0.99577215
H        0.14290703      -1.75904769       0.94430219
H       -0.77800326      -1.86493134      -0.50376187
H        0.51227239       0.69110097      -1.48540917
H       -1.06100283       2.07553426      -0.12428892
H       -2.38313913       0.84123979       0.13241887
H       -1.31432021       1.33538371       1.44142503
H        2.25370993      -0.60794200      -1.53945502
H        2.57662079      -0.54128139       0.04699606
15
Frame=1 idx=005892 GeodesicLength=0.09680409597180172 rxn_smarts="[C:1]([C:2]([C:3]([H:11])([H:12])[H:13])([C:4](=[O:5])[N:6]([H:14])[H:15])[H:10])([H:7])([H:8])[H:9]>>[C:1]([C:2]1([C:3]([H:11])([H:12])[H:13])[C@@:4]([N:6]([H:14])[H:15])([H:10])[O:5]1)([H:7])([H:8])[H:9]"
C       -0.70807005      -1.30219130       0.44977488
C       -0.38324379       0.08481841       0.10085699
C       -1.36407488       1.14927740       0.33824280
C        0.94688591       0.48087307      -0.40714516
O        1.39195160       1.47280928       0.30828668
N        1.83908377      -0.65432124      -0.64958720
H       -1.60761075      -1.40416115       1.05510545
H        0.15845453      -1.76912748       0.92738772
H       -0.82189495      -1.86048681      -0.48511333
H        0.48730343       0.69504310      -1.47066017
H       -1.06335212       2.07978444      -0.13914600
H       -2.38042852       0.83845292       0.08689482
H       -1.34270220       1.33739342       1.42030947
H        2.26053459      -0.57878764      -1.56476374
H        2.58716343      -0.56937641       0.02955678
15
Frame=2 idx=005892 GeodesicLength=0.19365294409225894 rxn_smarts="[C:1]([C:2]([C:3]([H:11])([H:12])[H:13])([C:4](=[O:5])[N:6]([H:14])[H:15])[H:10])([H:7])([H:8])[H:9]>>[C:1]([C:2]1([C:3]([H:11])([H:12])[H:13])[C@@:4]([N:6]([H:14])[H:15])([H:10])[O:5]1)([H:7])([H:8])[H:9]"
C       -0.70018347      -1.29548637       0.46068515
C       -0.37663399       0.08922589       0.09077038
C       -1.36770673       1.15062887       0.31823576
C        0.96140186       0.47665994      -0.39729416
O        1.37763689       1.42974898       0.38436589
N        1.85239085      -0.64393097      -0.67177608
H       -1.56907470      -1.38182442       1.11178750
H        0.17201131      -1.78038758       0.90821268
H       -0.86725776      -1.85487733      -0.46529033
H        0.46276544       0.69524026      -1.45790241
H       -1.06544600       2.08396624      -0.15302051
H       -2.37697768       0.83597511       0.04432142
H       -1.36873739       1.33882520       1.39999186
H        2.26884591      -0.54901476      -1.58696685
H        2.59696545      -0.59474907       0.01387969
15
Frame=3 idx=005892 GeodesicLength=0.2905060999703405 rxn_smarts="[C:1]([C:2]([C:3]([H:11])([H:12])[H:13])([C:4](=[O:5])[N:6]([H:14])[H:15])[H:10])([H:7])([H:8])[H:9]>>[C:1]([C:2]1([C:3]([H:11])([H:12])[H:13])[C@@:4]([N:6]([H:14])[H:15])([H:10])[O:5]1)([H:7])([H:8])[H:9]"
C       -0.69294122      -1.28895653       0.47053280
C       -0.37019701       0.09332995       0.08044693
C       -1.37075981       1.15193467       0.29936867
C        0.97512263       0.47318019      -0.38828327
O        1.36123081       1.38462773       0.45564004
N        1.86632469      -0.63172074      -0.69170677
H       -1.52861294      -1.35884464       1.16587380
H        0.18352822      -1.79279119       0.88678921
H       -0.91407550      -1.84795834      -0.44407593
H        0.43876256       0.69206638      -1.44692916
H       -1.06740042       2.08800670      -0.16613212
H       -2.37296479       0.83379806       0.00448553
H       -1.39263905       1.33980125       1.38045927
H        2.27847559      -0.51868284      -1.60632441
H        2.60614624      -0.61779066      -0.00014461
15
Frame=4 idx=005892 GeodesicLength=0.38731770484627825 rxn_smarts="[C:1]([C:2]([C:3]([H:11])([H:12])[H:13])([C:4](=[O:5])[N:6]([H:14])[H:15])[H:10])([H:7])([H:8])[H:9]>>[C:1]([C:2]1([C:3]([H:11])([H:12])[H:13])[C@@:4]([N:6]([H:14])[H:15])([H:10])[O:5]1)([H:7])([H:8])[H:9]"
C       -0.68633498      -1.28265592       0.47940065
C       -0.36392149       0.09711382       0.06998842
C       -1.37331067       1.15318194       0.28155944
C        0.98813371       0.47038692      -0.37981955
O        1.34301136       1.33785635       0.52207851
N        1.88088537      -0.61783809      -0.70946868
H       -1.48612313      -1.33550560       1.21734462
H        0.19292838      -1.80627706       0.86315798
H       -0.96226138      -1.83963361      -0.42120423
H        0.41539902       0.68587696      -1.43752272
H       -1.06930390       2.09184410      -0.17867830
H       -2.36853476       0.83190743      -0.03281829
H       -1.41459317       1.34041304       1.36169550
H        2.28926770      -0.48781092      -1.62304881
H        2.61475794      -0.63885937      -0.01266455
15
Frame=5 idx=005892 GeodesicLength=0.484067446620219 rxn_smarts="[C:1]([C:2]([C:3]([H:11])([H:12])[H:13])([C:4](=[O:5])[N:6]([H:14])[H:15])[H:10])([H:7])([H:8])[H:9]>>[C:1]([C:2]1([C:3]([H:11])([H:12])[H:13])[C@@:4]([N:6]([H:14])[H:15])([H:10])[O:5]1)([H:7])([H:8])[H:9]"
C       -0.68033418      -1.27660170       0.48737568
C       -0.35776675       0.10057528       0.05945996
C       -1.37541660       1.15435231       0.26471515
C        1.00051037       0.46818834      -0.37179213
O        1.32320042       1.28982164       0.58396458
N        1.89603682      -0.60241062      -0.72522645
H       -1.44163942      -1.31187559       1.26631632
H        0.20022578      -1.82069237       0.83722143
H       -1.01174311      -1.83004169      -0.39640744
H        0.39272484       0.67695807      -1.42948212
H       -1.07122064       2.09546024      -0.19080537
H       -2.36375233       0.83026534      -0.06783932
H       -1.43478975       1.34067539       1.34365564
H        2.30111177      -0.45637665      -1.63737413
H        2.62285277      -0.65829799      -0.02378179
15
Frame=6 idx=005892 GeodesicLength=0.5807950811355651 rxn_smarts="[C:1]([C:2]([C:3]([H:11])([H:12])[H:13])([C:4](=[O:5])[N:6]([H:14])[H:15])[H:10])([H:7])([H:8])[H:9]>>[C:1]([C:2]1([C:3]([H:11])([H:12])[H:13])[C@@:4]([N:6]([H:14])[H:15])([H:10])[O:5]1)([H:7])([H:8])[H:9]"
C       -0.67495469      -1.27084541       0.49453437
C       -0.35173084       0.10369971       0.04898357
C       -1.37712868       1.15543473       0.24877468
C        1.01231929       0.46651791      -0.36388447
O        1.30208581       1.24093531       0.64117858
N        1.91178108      -0.58557364      -0.73902202
H       -1.39514911      -1.28842222       1.31251421
H        0.20525244      -1.83588752       0.80930992
H       -1.06220740      -1.81895237      -0.36946938
H        0.37078019       0.66564274      -1.42263352
H       -1.07318411       2.09879329      -0.20266017
H       -2.35872695       0.82886222      -0.10075756
H       -1.45338184       1.34065115       1.32633646
H        2.31380356      -0.42442875      -1.64948282
H        2.63044125      -0.67642715      -0.03372186
15
Frame=7 idx=005892 GeodesicLength=0.6775092315228362 rxn_smarts="[C:1]([C:2]([C:3]([H:11])([H:12])[H:13])([C:4](=[O:5])[N:6]([H:14])[H:15])[H:10])([H:7])([H:8])[H:9]>>[C:1]([C:2]1([C:3]([H:11])([H:12])[H:13])[C@@:4]([N:6]([H:14])[H:15])([H:10])[O:5]1)([H:7])([H:8])[H:9]"
C       -0.67020371      -1.26542029       0.50097247
C       -0.34578833       0.10649493       0.03866350
C       -1.37848049       1.15642919       0.23367283
C        1.02361739       0.46528718      -0.35594133
O        1.27993313       1.19158166       0.69385272
N        1.92807962      -0.56745012      -0.75095018
H       -1.34684127      -1.26546733       1.35575795
H        0.20795428      -1.85163316       0.77967202
H       -1.11326409      -1.80632745      -0.34022218
H        0.34954370       0.65216603      -1.41680718
H       -1.07520320       2.10183076      -0.21433800
H       -2.35350354       0.82768647      -0.13178528
H       -1.47052418       1.34035731       1.30971662
H        2.32713794      -0.39199749      -1.65959066
H        2.63754274      -0.69353768      -0.04267331
15
Frame=8 idx=005892 GeodesicLength=0.7742145856003223 rxn_smarts="[C:1]([C:2]([C:3]([H:11])([H:12])[H:13])([C:4](=[O:5])[N:6]([H:14])[H:15])[H:10])([H:7])([H:8])[H:9]>>[C:1]([C:2]1([C:3]([H:11])([H:12])[H:13])[C@@:4]([N:6]([H:14])[H:15])([H:10])[O:5]1)([H:7])([H:8])[H:9]"
C       -0.66606316      -1.26033866       0.50676142
C       -0.33991109       0.10897807       0.02858959
C       -1.37949500       1.15733901       0.21935118
C        1.03445073       0.46441690      -0.34785412
O        1.25698340       1.14208008       0.74214606
N        1.94487440      -0.54812097      -0.76110536
H       -1.29696230      -1.24330386       1.39586516
H        0.20827425      -1.86769284       0.74861152
H       -1.16445150      -1.79217632      -0.30853784
H        0.32899826       0.63672844      -1.41183977
H       -1.07727381       2.10456700      -0.22591306
H       -2.34810403       0.82672561      -0.16111890
H       -1.48635355       1.33980661       1.29377346
H        2.34092995      -0.35911465      -1.66783726
H        2.64410345      -0.70989444      -0.05089207
15
Frame=9 idx=005892 GeodesicLength=0.8709711405572911 rxn_smarts="[C:1]([C:2]([C:3]([H:11])([H:12])[H:13])([C:4](=[O:5])[N:6]([H:14])[H:15])[H:10])([H:7])([H:8])[H:9]>>[C:1]([C:2]1([C:3]([H:11])([H:12])[H:13])[C@@:4]([N:6]([H:14])[H:15])([H:10])[O:5]1)([H:7])([H:8])[H:9]"
C       -0.66247613      -1.25558992       0.51197512
C       -0.33401439       0.11119776       0.01888483
C       -1.38017086       1.15817856       0.20578627
C        1.04486045       0.46384423      -0.33970166
O        1.23340547       1.09269166       0.78641777
N        1.96212017      -0.52763575      -0.76965294
H       -1.24606492      -1.22200021       1.43267228
H        0.20634062      -1.88376706       0.71643666
H       -1.21534837      -1.77676413      -0.27441706
H        0.30902393       0.61940783      -1.40760857
H       -1.07938295       2.10703740      -0.23737256
H       -2.34248257       0.82596080      -0.18893356
H       -1.50097912       1.33898782       1.27850159
H        2.35505166      -0.32582417      -1.67447562
H        2.65011701      -0.72572485      -0.05851255
15
Frame=10 idx=005892 GeodesicLength=0.9677933880343942 rxn_smarts="[C:1]([C:2]([C:3]([H:11])([H:12])[H:13])([C:4](=[O:5])[N:6]([H:14])[H:15])[H:10])([H:7])([H:8])[H:9]>>[C:1]([C:2]1([C:3]([H:11])([H:12])[H:13])[C@@:4]([N:6]([H:14])[H:15])([H:10])[O:5]1)([H:7])([H:8])[H:9]"
C       -0.65947818      -1.25119165       0.51669052
C       -0.32808941       0.11316053       0.00963366
C       -1.38052707       1.15895024       0.19290464
C        1.05491780       0.46352370      -0.33122911
O        1.20948426       1.04373821       0.82674231
N        1.97976205      -0.50608146      -0.77659953
H       -1.19452011      -1.20205246       1.46597582
H        0.20210966      -1.89960594       0.68370720
H       -1.26531041      -1.75990855      -0.23793489
H        0.28962213       0.60042340      -1.40395247
H       -1.08150358       2.10922708      -0.24880309
H       -2.33665240       0.82536057      -0.21541179
H       -1.51452156       1.33792396       1.26385680
H        2.36916312      -0.29223691      -1.67964771
H        2.65554370      -0.74123074      -0.06593236
15
Frame=11 idx=005892 GeodesicLength=1.0646759102847305 rxn_smarts="[C:1]([C:2]([C:3]([H:11])([H:12])[H:13])([C:4](=[O:5])[N:6]([H:14])[H:15])[H:10])([H:7])([H:8])[H:9]>>[C:1]([C:2]1([C:3]([H:11])([H:12])[H:13])[C@@:4]([N:6]([H:14])[H:15])([H:10])[O:5]1)([H:7])([H:8])[H:9]"
C       -0.65705035      -1.24713394       0.52097832
C       -0.32208984       0.11490485       0.00093045
C       -1.38056033       1.15967551       0.18065788
C        1.06467111       0.46341576      -0.32239874
O        1.18542864       0.99543645       0.86341046
N        1.99774725      -0.48351612      -0.78200791
H       -1.14291753      -1.18369845       1.49570865
H        0.19570321      -1.91495231       0.65090816
H       -1.31377131      -1.74172293      -0.19931543
H        0.27072060       0.57986474      -1.40071987
H       -1.08359534       2.11115493      -0.26023813
H       -2.33058422       0.82490963      -0.24070199
H       -1.52707103       1.33665080       1.24980344
H        2.38301949      -0.25843246      -1.68356259
H        2.66034967      -0.75655647      -0.07345270
15
Frame=12 idx=005892 GeodesicLength=1.1616243696568362 rxn_smarts="[C:1]([C:2]([C:3]([H:11])([H:12])[H:13])([C:4](=[O:5])[N:6]([H:14])[H:15])[H:10])([H:7])([H:8])[H:9]>>[C:1]([C:2]1([C:3]([H:11])([H:12])[H:13])[C@@:4]([N:6]([H:14])[H:15])([H:10])[O:5]1)([H:7])([H:8])[H:9]"
C       -0.65518126      -1.24340698       0.52490440
C       -0.31597050       0.11647344      -0.00714812
C       -1.38026984       1.16037728       0.16899445
C        1.07417575       0.46350119      -0.31315464
O        1.16142012       0.94796009       0.89671959
N        2.01603119      -0.45995304      -0.78593185
H       -1.09184915      -1.16710777       1.52188840
H        0.18730065      -1.92961809       0.61843310
H       -1.36021277      -1.72232604      -0.15883432
H        0.25227010       0.55781178      -1.39775684
H       -1.08562481       2.11284251      -0.27171656
H       -2.32424815       0.82457852      -0.26493309
H       -1.53870354       1.33521659       1.23629910
H        2.39634560      -0.22455509      -1.68639061
H        2.66451662      -0.77179440      -0.08137299
15
Frame=13 idx=005892 GeodesicLength=1.258720231655707 rxn_smarts="[C:1]([C:2]([C:3]([H:11])([H:12])[H:13])([C:4](=[O:5])[N:6]([H:14])[H:15])[H:10])([H:7])([H:8])[H:9]>>[C:1]([C:2]1([C:3]([H:11])([H:12])[H:13])[C@@:4]([N:6]([H:14])[H:15])([H:10])[O:5]1)([H:7])([H:8])[H:9]"
C       -0.65377540      -1.23998805       0.52851941
C       -0.30962718       0.11791636      -0.01449568
C       -1.37961793       1.16106707       0.15789354
C        1.08349906       0.46379949      -0.30353602
O        1.13754484       0.90144614       0.92700727
N        2.03462780      -0.43531295      -0.78849318
H       -1.04205278      -1.15223728       1.54461101
H        0.17726588      -1.94344679       0.58665628
H       -1.40443510      -1.70201657      -0.11688642
H        0.23418072       0.53427965      -1.39490940
H       -1.08756508       2.11430328      -0.28324469
H       -2.31755345       0.82429928      -0.28818808
H       -1.54944081       1.33367163       1.22331069
H        2.40895278      -0.19068462      -1.68839529
H        2.66799663      -0.78709663      -0.08984945
15
Frame=14 idx=005892 GeodesicLength=1.3558789229295867 rxn_smarts="[C:1]([C:2]([C:3]([H:11])([H:12])[H:13])([C:4](=[O:5])[N:6]([H:14])[H:15])[H:10])([H:7])([H:8])[H:9]>>[C:1]([C:2]1([C:3]([H:11])([H:12])[H:13])[C@@:4]([N:6]([H:14])[H:15])([H:10])[O:5]1)([H:7])([H:8])[H:9]"
C       -0.65287914      -1.23687127       0.53186987
C       -0.30306958       0.11924676      -0.02111437
C       -1.37862069       1.16176016       0.14724761
C        1.09270126       0.46429828      -0.29333673
O        1.11397756       0.85596950       0.95458368
N        2.05350137      -0.40963202      -0.78959211
H       -0.99383434      -1.13933414       1.56411783
H        0.16569011      -1.95636209       0.55593051
H       -1.44596532      -1.68074213      -0.07384461
H        0.21651828       0.50943296      -1.39202182
H       -1.08936605       2.11553657      -0.29493527
H       -2.31051569       0.82404053      -0.31060710
H       -1.55937374       1.33208894       1.21074275
H        2.42044777      -0.15703194      -1.68970634
H        2.67078819      -0.80240010      -0.09933392
15
Frame=15 idx=005892 GeodesicLength=1.453082064028993 rxn_smarts="[C:1]([C:2]([C:3]([H:11])([H:12])[H:13])([C:4](=[O:5])[N:6]([H:14])[H:15])[H:10])([H:7])([H:8])[H:9]>>[C:1]([C:2]1([C:3]([H:11])([H:12])[H:13])[C@@:4]([N:6]([H:14])[H:15])([H:10])[O:5]1)([H:7])([H:8])[H:9]"
C       -0.65245802      -1.23403123       0.53499667
C       -0.29625108       0.12049415      -0.02696722
C       -1.37726175       1.16246628       0.13700058
C        1.10184640       0.46501292      -0.28247456
O        1.09078774       0.81157573       0.97980738
N        2.07266877      -0.38285041      -0.78920389
H       -0.94761571      -1.12837539       1.58068006
H        0.15283456      -1.96830884       0.52650117
H       -1.48458316      -1.65866636      -0.03019947
H        0.19928779       0.48334432      -1.38893152
H       -1.09098842       2.11654142      -0.30684700
H       -2.30310500       0.82374988      -0.33226806
H       -1.56853966       1.33054416       1.19853176
H        2.43051143      -0.12383047      -1.69052742
H        2.67286610      -0.81766617      -0.11009848
15
Frame=16 idx=005892 GeodesicLength=1.5503237426267142 rxn_smarts="[C:1]([C:2]([C:3]([H:11])([H:12])[H:13])([C:4](=[O:5])[N:6]([H:14])[H:15])[H:10])([H:7])([H:8])[H:9]>>[C:1]([C:2]1([C:3]([H:11])([H:12])[H:13])[C@@:4]([N:6]([H:14])[H:15])([H:10])[O:5]1)([H:7])([H:8])[H:9]"
C       -0.65244616      -1.23144327       0.53792511
C       -0.28911726       0.12167847      -0.03205048
C       -1.37551799       1.16318578       0.12708338
C        1.11100585       0.46598604      -0.27085817
O        1.06801206       0.76826781       1.00302361
N        2.09219187      -0.35484483      -0.78727695
H       -0.90369156      -1.11927881       1.59460643
H        0.13899789      -1.97930317       0.49851009
H       -1.52034392      -1.63597748       0.01366973
H        0.18253115       0.45610502      -1.38549161
H       -1.09239303       2.11731580      -0.31903845
H       -2.29528298       0.82336716      -0.35326188
H       -1.57697174       1.32909149       1.18660385
H        2.43887255      -0.09126434      -1.69109563
H        2.67415326      -0.83288568      -0.12234905
