13
Frame=0 idx=003783 GeodesicLength=0.0 rxn_smarts="[C:1]([N:2]1[C:3]([H:10])([H:11])[C@:4]1([C:5]#[C:6][H:13])[H:12])([H:7])([H:8])[H:9]>>[C:1](=[N:2][C:3]([C:4](=[C:5]=[C:6]([H:8])[H:13])[H:12])([H:10])[H:11])([H:7])[H:9]"
C       -1.08128800      -0.88665689       0.18805267
N       -1.10157396       0.45554009       0.05825057
C       -0.16739254       1.23691460       0.81533437
C        0.47412141       1.20287782      -0.53061448
C        1.31161344       0.16973787      -0.80804868
C        1.31840815      -1.08436688      -0.80055261
H       -0.81514521      -1.30712103       1.16133313
H       -0.00913138      -1.31748799      -0.51561306
H       -1.89582053      -1.39242962      -0.32533253
H       -0.56439407       2.19816039       1.13177434
H        0.38318781       0.72712711       1.60874522
H        0.21049947       1.95684074      -1.25707263
H        1.93691537      -1.95913615      -0.72625632
13
Frame=1 idx=003783 GeodesicLength=0.11708573530524793 rxn_smarts="[C:1]([N:2]1[C:3]([H:10])([H:11])[C@:4]1([C:5]#[C:6][H:13])[H:12])([H:7])([H:8])[H:9]>>[C:1](=[N:2][C:3]([C:4](=[C:5]=[C:6]([H:8])[H:13])[H:12])([H:10])[H:11])([H:7])[H:9]"
C       -1.09948731      -0.88947478       0.18755029
N       -1.10008181       0.45334150       0.08012439
C       -0.16307768       1.24318476       0.82115117
C        0.47433560       1.19325842      -0.52566301
C        1.32752384       0.17052750      -0.79984870
C        1.34098534      -1.08408619      -0.81331390
H       -0.83522933      -1.32548401       1.15466670
H       -0.01634660      -1.33343135      -0.54025667
H       -1.94032396      -1.36800622      -0.31002295
H       -0.56313563       2.20835403       1.12176634
H        0.38849949       0.73945036       1.61745055
H        0.20297097       1.93335699      -1.26416311
H        1.98336707      -1.94099100      -0.72944110
13
Frame=2 idx=003783 GeodesicLength=0.23415141505327963 rxn_smarts="[C:1]([N:2]1[C:3]([H:10])([H:11])[C@:4]1([C:5]#[C:6][H:13])[H:12])([H:7])([H:8])[H:9]>>[C:1](=[N:2][C:3]([C:4](=[C:5]=[C:6]([H:8])[H:13])[H:12])([H:10])[H:11])([H:7])[H:9]"
C       -1.11837434      -0.89219969       0.18689665
N       -1.09822832       0.45061467       0.10232367
C       -0.15899243       1.24959569       0.82689384
C        0.47477362       1.18303105      -0.52035358
C        1.34394142       0.17114188      -0.79084406
C        1.36490341      -1.08359416      -0.82533023
H       -0.85619382      -1.34409085       1.14748994
H       -0.02348405      -1.34938902      -0.56547804
H       -1.98522162      -1.34236782      -0.29301790
H       -0.56258362       2.21847438       1.11085692
H        0.39354930       0.75260452       1.62648544
H        0.19566119       1.90870537      -1.27101097
H        2.03024927      -1.92252602      -0.73491167
13
Frame=3 idx=003783 GeodesicLength=0.3511745462438293 rxn_smarts="[C:1]([N:2]1[C:3]([H:10])([H:11])[C@:4]1([C:5]#[C:6][H:13])[H:12])([H:7])([H:8])[H:9]>>[C:1](=[N:2][C:3]([C:4](=[C:5]=[C:6]([H:8])[H:13])[H:12])([H:10])[H:11])([H:7])[H:9]"
C       -1.13806556      -0.89478710       0.18604815
N       -1.09601976       0.44733927       0.12492164
C       -0.15508999       1.25609840       0.83255542
C        0.47539547       1.17215694      -0.51471237
C        1.36076741       0.17156625      -0.78117139
C        1.39014036      -1.08288629      -0.83671441
H       -0.87808599      -1.36299464       1.13966770
H       -0.03061160      -1.36535687      -0.59138309
H       -2.03057775      -1.31537467      -0.27424086
H       -0.56264822       2.22843057       1.09907289
H        0.39844098       0.76653921       1.63578083
H        0.18853272       1.88284005      -1.27757002
H        2.07782193      -1.90357112      -0.74225448
13
Frame=4 idx=003783 GeodesicLength=0.4681348509259303 rxn_smarts="[C:1]([N:2]1[C:3]([H:10])([H:11])[C@:4]1([C:5]#[C:6][H:13])[H:12])([H:7])([H:8])[H:9]>>[C:1](=[N:2][C:3]([C:4](=[C:5]=[C:6]([H:8])[H:13])[H:12])([H:10])[H:11])([H:7])[H:9]"
C       -1.15868415      -0.89718258       0.18496394
N       -1.09344807       0.44347980       0.14799614
C       -0.15133244       1.26264941       0.83812549
C        0.47616925       1.16058506      -0.50875759
C        1.37792130       0.17178002      -0.77094792
C        1.41669928      -1.08196496      -0.84753810
H       -0.90097482      -1.38223761       1.13105972
H       -0.03779330      -1.38132842      -0.61805692
H       -2.07641946      -1.28687064      -0.25360087
H       -0.56326355       2.23813070       1.08642369
H        0.40326734       0.78122537       1.64527721
H        0.18154246       1.85568086      -1.28379273
H        2.12631619      -1.88394702      -0.75115207
13
Frame=5 idx=003783 GeodesicLength=0.5849750264775077 rxn_smarts="[C:1]([N:2]1[C:3]([H:10])([H:11])[C@:4]1([C:5]#[C:6][H:13])[H:12])([H:7])([H:8])[H:9]>>[C:1](=[N:2][C:3]([C:4](=[C:5]=[C:6]([H:8])[H:13])[H:12])([H:10])[H:11])([H:7])[H:9]"
C       -1.18034685      -0.89932474       0.18358977
N       -1.09049742       0.43899453       0.17160991
C       -0.14769351       1.26920728       0.84358945
C        0.47706919       1.14827190      -0.50250126
C        1.39535651       0.17176504      -0.76026218
C        1.44459664      -1.08082754      -0.85785334
H       -0.92492027      -1.40186256       1.12152418
H       -0.04507330      -1.39730482      -0.64556466
H       -2.12270374      -1.25671726      -0.23097102
H       -0.56440209       2.24749216       1.07290603
H        0.40810064       0.79664353       1.65492403
H        0.17464602       1.82718974      -1.28964220
H        2.17586818      -1.86352725      -0.76134871
13
Frame=6 idx=003783 GeodesicLength=0.7017171576437032 rxn_smarts="[C:1]([N:2]1[C:3]([H:10])([H:11])[C@:4]1([C:5]#[C:6][H:13])[H:12])([H:7])([H:8])[H:9]>>[C:1](=[N:2][C:3]([C:4](=[C:5]=[C:6]([H:8])[H:13])[H:12])([H:10])[H:11])([H:7])[H:9]"
C       -1.20320372      -0.90112373       0.18190577
N       -1.08714264       0.43382714       0.19584592
C       -0.14414270       1.27573322       0.84893453
C        0.47807319       1.13514993      -0.49594878
C        1.41301811       0.17149039      -0.74919049
C        1.47386609      -1.07948299      -0.86766919
H       -0.95002679      -1.42190086       1.11088897
H       -0.05254315      -1.41327553      -0.67401684
H       -2.16937755      -1.22478754      -0.20620772
H       -0.56602607       2.25642478       1.05850012
H        0.41302015       0.81280101       1.66467362
H        0.16781265       1.79725979      -1.29507626
H        2.22667244      -1.84211561      -0.77263965
13
Frame=7 idx=003783 GeodesicLength=0.8183417838847376 rxn_smarts="[C:1]([N:2]1[C:3]([H:10])([H:11])[C@:4]1([C:5]#[C:6][H:13])[H:12])([H:7])([H:8])[H:9]>>[C:1](=[N:2][C:3]([C:4](=[C:5]=[C:6]([H:8])[H:13])[H:12])([H:10])[H:11])([H:7])[H:9]"
C       -1.22739409      -0.90247190       0.17986300
N       -1.08334949       0.42791385       0.22079082
C       -0.14064602       1.28218685       0.85414596
C        0.47915395       1.12116667      -0.48911057
C        1.43086717       0.17094079      -0.73782738
C        1.50454801      -1.07792040      -0.87703078
H       -0.97636902      -1.44238915       1.09894833
H       -0.06028776      -1.42921768      -0.70354699
H       -2.21631016      -1.19099235      -0.17914246
H       -0.56810108       2.26482908       1.04320135
H        0.41812556       0.82969569       1.67447134
H        0.16096317       1.76583284      -1.30006327
H        2.27879977      -1.81957429      -0.78469934
13
Frame=8 idx=003783 GeodesicLength=0.9348592229467019 rxn_smarts="[C:1]([N:2]1[C:3]([H:10])([H:11])[C@:4]1([C:5]#[C:6][H:13])[H:12])([H:7])([H:8])[H:9]>>[C:1](=[N:2][C:3]([C:4](=[C:5]=[C:6]([H:8])[H:13])[H:12])([H:10])[H:11])([H:7])[H:9]"
C       -1.25308043      -0.90323819       0.17744831
N       -1.07907963       0.42116271       0.24655923
C       -0.13717755       1.28853190       0.85920808
C        0.48029144       1.10624063      -0.48198042
C        1.44887658       0.17007641      -0.72621251
C        1.53669615      -1.07614900      -0.88588399
H       -1.00407381      -1.46335145       1.08549720
H       -0.06839028      -1.44511657      -0.73428127
H       -2.26336989      -1.15520655      -0.14961148
H       -0.57062852       2.27260506       1.02695050
H        0.42350295       0.84737575       1.68428527
H        0.15404953       1.73278544      -1.30457211
H        2.33238346      -1.79571612      -0.79740681
13
Frame=9 idx=003783 GeodesicLength=1.0517628687145262 rxn_smarts="[C:1]([N:2]1[C:3]([H:10])([H:11])[C@:4]1([C:5]#[C:6][H:13])[H:12])([H:7])([H:8])[H:9]>>[C:1](=[N:2][C:3]([C:4](=[C:5]=[C:6]([H:8])[H:13])[H:12])([H:10])[H:11])([H:7])[H:9]"
C       -1.28046030      -0.90321047       0.17496025
N       -1.07408962       0.41343639       0.27336438
C       -0.13370046       1.29475074       0.86409031
C        0.48152559       1.09020902      -0.47450832
C        1.46709424       0.16877288      -0.71435070
C        1.57050001      -1.07412642      -0.89431919
H       -1.03324471      -1.48483122       1.07032189
H       -0.07726128      -1.46083817      -0.76659483
H       -2.31051230      -1.11750394      -0.11761534
H       -0.57369313       2.27961310       1.00970272
H        0.42922724       0.86611091       1.69401217
H        0.14703117       1.69798852      -1.30854103
H        2.38758354      -1.77037135      -0.81052233
13
Frame=10 idx=003783 GeodesicLength=1.168606794687271 rxn_smarts="[C:1]([N:2]1[C:3]([H:10])([H:11])[C@:4]1([C:5]#[C:6][H:13])[H:12])([H:7])([H:8])[H:9]>>[C:1](=[N:2][C:3]([C:4](=[C:5]=[C:6]([H:8])[H:13])[H:12])([H:10])[H:11])([H:7])[H:9]"
C       -1.30960708      -0.90224396       0.17219925
N       -1.06837911       0.40457468       0.30135320
C       -0.13018087       1.30077186       0.86878773
C        0.48278319       1.07304334      -0.46671947
C        1.48545082       0.16709297      -0.70237258
C        1.60596312      -1.07185528      -0.90225708
H       -1.06416663      -1.50685853       1.05313009
H       -0.08672169      -1.47644008      -0.80037803
H       -2.35748496      -1.07748572      -0.08292764
H       -0.57731329       2.28569432       0.99139614
H        0.43548479       0.88584026       1.70361882
H        0.13971363       1.66121762      -1.31195917
H        2.44445808      -1.74335148      -0.82387126
13
Frame=11 idx=003783 GeodesicLength=1.2853761464808713 rxn_smarts="[C:1]([N:2]1[C:3]([H:10])([H:11])[C@:4]1([C:5]#[C:6][H:13])[H:12])([H:7])([H:8])[H:9]>>[C:1](=[N:2][C:3]([C:4](=[C:5]=[C:6]([H:8])[H:13])[H:12])([H:10])[H:11])([H:7])[H:9]"
C       -1.34065918      -0.90011213       0.16923496
N       -1.06177767       0.39439799       0.33071774
C       -0.12660546       1.30655701       0.87326985
C        0.48407522       1.05463561      -0.45858206
C        1.50396861       0.16501414      -0.69031977
C        1.64318809      -1.06930190      -0.90967681
H       -1.09714480      -1.52942472       1.03368754
H       -0.09689495      -1.49192939      -0.83565972
H       -2.40404458      -1.03501712      -0.04549079
H       -0.58160183       2.29068464       0.97196195
H        0.44238604       0.90672465       1.71303978
H        0.13201907       1.62221925      -1.31475087
H        2.50309145      -1.71444804      -0.83743179
13
Frame=12 idx=003783 GeodesicLength=1.4021268463222052 rxn_smarts="[C:1]([N:2]1[C:3]([H:10])([H:11])[C@:4]1([C:5]#[C:6][H:13])[H:12])([H:7])([H:8])[H:9]>>[C:1](=[N:2][C:3]([C:4](=[C:5]=[C:6]([H:8])[H:13])[H:12])([H:10])[H:11])([H:7])[H:9]"
C       -1.37375388      -0.89653092       0.16614619
N       -1.05406017       0.38264706       0.36171589
C       -0.12292530       1.31201858       0.87750314
C        0.48540036       1.03486230      -0.45008337
C        1.52266359       0.16252569      -0.67830917
C        1.68231916      -1.06640160      -0.91662213
H       -1.13250167      -1.55253273       1.01161454
H       -0.10792820      -1.50726917      -0.87263457
H       -2.44996805      -0.98988675      -0.00509599
H       -0.58670788       2.29430186       0.95131607
H        0.45013194       0.92892500       1.72215476
H        0.12379546       1.58075263      -1.31685391
H        2.56353463      -1.68341195      -0.85085146
13
Frame=13 idx=003783 GeodesicLength=1.5191085029374254 rxn_smarts="[C:1]([N:2]1[C:3]([H:10])([H:11])[C@:4]1([C:5]#[C:6][H:13])[H:12])([H:7])([H:8])[H:9]>>[C:1](=[N:2][C:3]([C:4](=[C:5]=[C:6]([H:8])[H:13])[H:12])([H:10])[H:11])([H:7])[H:9]"
C       -1.40903783      -0.89109537       0.16314182
N       -1.04475902       0.36892079       0.39471832
C       -0.11912868       1.31705495       0.88143468
C        0.48682948       1.01354689      -0.44116878
C        1.54163308       0.15958720      -0.66640474
C        1.72361187      -1.06301981      -0.92319360
H       -1.17067867      -1.57616207       0.98634623
H       -0.12010801      -1.52231611      -0.91163762
H       -2.49515978      -0.94191915       0.03862164
H       -0.59291763       2.29616368       0.92935056
H        0.45885571       0.95280914       1.73079005
H        0.11492934       1.53645901      -1.31820900
H        2.62593015      -1.65002915      -0.86378957
13
Frame=14 idx=003783 GeodesicLength=1.6360372474588976 rxn_smarts="[C:1]([N:2]1[C:3]([H:10])([H:11])[C@:4]1([C:5]#[C:6][H:13])[H:12])([H:7])([H:8])[H:9]>>[C:1](=[N:2][C:3]([C:4](=[C:5]=[C:6]([H:8])[H:13])[H:12])([H:10])[H:11])([H:7])[H:9]"
C       -1.44662214      -0.88336033       0.16019508
N       -1.03361179       0.35280544       0.42998742
C       -0.11525752       1.32151634       0.88501477
C        0.48837730       0.99056367      -0.43179158
C        1.56093470       0.15622190      -0.65468498
C        1.76720969      -1.05914511      -0.92926119
H       -1.21242619      -1.60013272       0.95748758
H       -0.13334337      -1.53724064      -0.95237608
H       -2.53908093      -0.89056300       0.08582898
H       -0.60059478       2.29585253       0.90593086
H        0.46874613       0.97852065       1.73883873
H        0.10521526       1.48889112      -1.31868656
H        2.69045363      -1.61392983      -0.87648304
13
Frame=15 idx=003783 GeodesicLength=1.7528800847158412 rxn_smarts="[C:1]([N:2]1[C:3]([H:10])([H:11])[C@:4]1([C:5]#[C:6][H:13])[H:12])([H:7])([H:8])[H:9]>>[C:1](=[N:2][C:3]([C:4](=[C:5]=[C:6]([H:8])[H:13])[H:12])([H:10])[H:11])([H:7])[H:9]"
C       -1.48655463      -0.87277589       0.15750348
N       -1.02008360       0.33369206       0.46787378
C       -0.11130801       1.32513028       0.88816827
C        0.49007779       0.96578466      -0.42197250
C        1.58064052       0.15254038      -0.64346763
C        1.81334452      -1.05452804      -0.93512255
H       -1.25837135      -1.62423027       0.92446297
H       -0.14775781      -1.55204358      -0.99493444
H       -2.58131139      -0.83538374       0.13681187
H       -0.61015236       2.29273020       0.88103729
H        0.48007165       1.00625331       1.74601293
H        0.09437758       1.43769736      -1.31820047
H        2.75702709      -1.57486673      -0.88817302
13
Frame=16 idx=003783 GeodesicLength=1.8696856672717568 rxn_smarts="[C:1]([N:2]1[C:3]([H:10])([H:11])[C@:4]1([C:5]#[C:6][H:13])[H:12])([H:7])([H:8])[H:9]>>[C:1](=[N:2][C:3]([C:4](=[C:5]=[C:6]([H:8])[H:13])[H:12])([H:10])[H:11])([H:7])[H:9]"
C       -1.52887535      -0.85859038       0.15532359
N       -1.00356667       0.31082362       0.50857190
C       -0.10741723       1.32753639       0.89078616
C        0.49204131       0.93905972      -0.41170855
C        1.60091929       0.14861913      -0.63296136
C        1.86236612      -1.04893841      -0.94107279
H       -1.30933308      -1.64794170       0.88648599
H       -0.16351866      -1.56667302      -1.03941823
H       -2.62135818      -0.77597604       0.19234935
H       -0.62222359       2.28606744       0.85461120
H        0.49288547       1.03617830       1.75202774
H        0.08226898       1.38248662      -1.31668746
H        2.82581159      -1.53265166      -0.89830753
