11
Frame=0 idx=002421 GeodesicLength=0.0 rxn_smarts="[C:1]1([H:6])([H:7])[C@@:2]2([H:8])[C:3]([H:9])([H:10])[O:4][C@@:5]12[H:11]>>[C:1]1([H:6])=[C:5]([H:11])[C:2]1([C:3]([O:4][H:7])([H:9])[H:10])[H:8]"
C       -1.22615227      -0.32769400      -0.13689398
C        0.02049212       0.02196189       0.72065232
C        1.26358612      -0.32145146      -0.12607641
O        0.84106629      -0.14852454      -1.40136041
C       -0.71591336       0.96447727      -0.07328751
H       -2.24055788      -0.61080924       0.10935605
H       -0.67872342      -0.79297216      -1.02763337
H        0.04843947       0.10092562       1.80183506
H        1.70759895      -1.31352691       0.05930839
H        2.00175260       0.42917629       0.19784359
H       -1.02158860       1.99843719      -0.12374371
11
Frame=1 idx=002421 GeodesicLength=0.0785466041158578 rxn_smarts="[C:1]1([H:6])([H:7])[C@@:2]2([H:8])[C:3]([H:9])([H:10])[O:4][C@@:5]12[H:11]>>[C:1]1([H:6])=[C:5]([H:11])[C:2]1([C:3]([O:4][H:7])([H:9])[H:10])[H:8]"
C       -1.22684370      -0.32808487      -0.13177844
C        0.01826587       0.01808128       0.72499844
C        1.26265220      -0.31778301      -0.12121233
O        0.82944850      -0.13466120      -1.39673514
C       -0.71129896       0.96275501      -0.07917653
H       -2.23929985      -0.61181322       0.12064167
H       -0.66848758      -0.79637966      -1.04032196
H        0.04611841       0.09827512       1.80587806
H        1.69961469      -1.31422732       0.05442221
H        2.00635965       0.42755127       0.19966365
H       -1.01652924       1.99628659      -0.13637963
11
Frame=2 idx=002421 GeodesicLength=0.15709333880476295 rxn_smarts="[C:1]1([H:6])([H:7])[C@@:2]2([H:8])[C:3]([H:9])([H:10])[O:4][C@@:5]12[H:11]>>[C:1]1([H:6])=[C:5]([H:11])[C:2]1([C:3]([O:4][H:7])([H:9])[H:10])[H:8]"
C       -1.22767276      -0.32833760      -0.12653463
C        0.01602862       0.01426794       0.72926721
C        1.26167749      -0.31418269      -0.11632478
O        0.81803272      -0.12104982      -1.39207413
C       -0.70680233       0.96103154      -0.08498333
H       -2.23815687      -0.61267893       0.13196798
H       -0.65793911      -0.79981512      -1.05332167
H        0.04384911       0.09556985       1.80985789
H        1.69164859      -1.31479096       0.04971278
H        2.01093782       0.42588887       0.20122487
H       -1.01160329       1.99409691      -0.14879219
11
Frame=3 idx=002421 GeodesicLength=0.23563824915822143 rxn_smarts="[C:1]1([H:6])([H:7])[C@@:2]2([H:8])[C:3]([H:9])([H:10])[O:4][C@@:5]12[H:11]>>[C:1]1([H:6])=[C:5]([H:11])[C:2]1([C:3]([O:4][H:7])([H:9])[H:10])[H:8]"
C       -1.22864392      -0.32844900      -0.12115608
C        0.01377867       0.01052002       0.73346173
C        1.26066072      -0.31064851      -0.11141216
O        0.80681228      -0.10767883      -1.38738239
C       -0.70242396       0.95930547      -0.09071471
H       -2.23713267      -0.61340474       0.14334603
H       -0.64705382      -0.80328845      -1.06664351
H        0.04163118       0.09281572       1.81377725
H        1.68369706      -1.31522547       0.04517292
H        2.01548575       0.42418455       0.20253496
H       -1.00681130       1.99186925      -0.16098405
11
Frame=4 idx=002421 GeodesicLength=0.3141851288770132 rxn_smarts="[C:1]1([H:6])([H:7])[C@@:2]2([H:8])[C:3]([H:9])([H:10])[O:4][C@@:5]12[H:11]>>[C:1]1([H:6])=[C:5]([H:11])[C:2]1([C:3]([O:4][H:7])([H:9])[H:10])[H:8]"
C       -1.22975904      -0.32842253      -0.11563045
C        0.01151545       0.00683550       0.73758914
C        1.25959907      -0.30717852      -0.10647179
O        0.79578273      -0.09451981      -1.38266102
C       -0.69816859       0.95757173      -0.09636762
H       -2.23622294      -0.61400012       0.15480661
H       -0.63580859      -0.80678447      -1.08031543
H        0.03946626       0.09001865       1.81764198
H        1.67574287      -1.31554335       0.04079081
H        2.02000632       0.42242434       0.20361067
H       -1.00215352       1.98959858      -0.17299289
11
Frame=5 idx=002421 GeodesicLength=0.39273543941114136 rxn_smarts="[C:1]1([H:6])([H:7])[C@@:2]2([H:8])[C:3]([H:9])([H:10])[O:4][C@@:5]12[H:11]>>[C:1]1([H:6])=[C:5]([H:11])[C:2]1([C:3]([O:4][H:7])([H:9])[H:10])[H:8]"
C       -1.23102509      -0.32825398      -0.10995031
C        0.00923575       0.00321236       0.74165268
C        1.25849283      -0.30377194      -0.10150308
O        0.78493975      -0.08156425      -1.37791621
C       -0.69403923       0.95583082      -0.10194989
H       -2.23543486      -0.61446230       0.16636346
H       -0.62417358      -0.81031437      -1.09435042
H        0.03735131       0.08718206       1.82145628
H        1.66778631      -1.31575307       0.03656049
H        2.02449870       0.42060451       0.20445571
H       -0.99763190       1.98729017      -0.18481872
11
Frame=6 idx=002421 GeodesicLength=0.4712865723015527 rxn_smarts="[C:1]1([H:6])([H:7])[C@@:2]2([H:8])[C:3]([H:9])([H:10])[O:4][C@@:5]12[H:11]>>[C:1]1([H:6])=[C:5]([H:11])[C:2]1([C:3]([O:4][H:7])([H:9])[H:10])[H:8]"
C       -1.23244743      -0.32794058      -0.10410708
C        0.00693771      -0.00035096       0.74565485
C        1.25733922      -0.30042716      -0.09650485
O        0.77427571      -0.06880346      -1.37315104
C       -0.69003745       0.95407924      -0.10746714
H       -2.23477182      -0.61478965       0.17803010
H       -0.61211989      -0.81388320      -1.10876573
H        0.03528722       0.08431117       1.82522169
H        1.65982164      -1.31585943       0.03247758
H        2.02895908       0.41872093       0.20507549
H       -0.99324400       1.98494310      -0.19646387
11
Frame=7 idx=002421 GeodesicLength=0.5498349841272381 rxn_smarts="[C:1]1([H:6])([H:7])[C@@:2]2([H:8])[C:3]([H:9])([H:10])[O:4][C@@:5]12[H:11]>>[C:1]1([H:6])=[C:5]([H:11])[C:2]1([C:3]([O:4][H:7])([H:9])[H:10])[H:8]"
C       -1.23403213      -0.32747968      -0.09809011
C        0.00461987      -0.00385661       0.74959761
C        1.25613754      -0.29714541      -0.09147734
O        0.76378436      -0.05623911      -1.36837151
C       -0.68616421       0.95231312      -0.11292817
H       -2.23424489      -0.61497432       0.18980732
H       -0.59961779      -0.81749773      -1.12357985
H        0.03327737       0.08141854       1.82893902
H        1.65185104      -1.31586783       0.02854638
H        2.03338406       0.41677167       0.20546692
H       -0.98899521       1.98255736      -0.20791027
11
Frame=8 idx=002421 GeodesicLength=0.6283808379304816 rxn_smarts="[C:1]1([H:6])([H:7])[C@@:2]2([H:8])[C:3]([H:9])([H:10])[O:4][C@@:5]12[H:11]>>[C:1]1([H:6])=[C:5]([H:11])[C:2]1([C:3]([O:4][H:7])([H:9])[H:10])[H:8]"
C       -1.23578611      -0.32686826      -0.09188765
C        0.00228078      -0.00730654       0.75348257
C        1.25488603      -0.29392770      -0.08642092
O        0.75345878      -0.04387167      -1.36358284
C       -0.68242109       0.95052757      -0.11834183
H       -2.23386509      -0.61500888       0.20169827
H       -0.58663339      -0.82116464      -1.13881288
H        0.03132580       0.07851759       1.83260853
H        1.64387474      -1.31578345       0.02476906
H        2.03776921       0.41475361       0.20562875
H       -0.98488967       1.98013238      -0.21914107
11
Frame=9 idx=002421 GeodesicLength=0.7069223185404359 rxn_smarts="[C:1]1([H:6])([H:7])[C@@:2]2([H:8])[C:3]([H:9])([H:10])[O:4][C@@:5]12[H:11]>>[C:1]1([H:6])=[C:5]([H:11])[C:2]1([C:3]([O:4][H:7])([H:9])[H:10])[H:8]"
C       -1.23771612      -0.32610271      -0.08548867
C       -0.00008211      -0.01070255       0.75731301
C        1.25358197      -0.29077377      -0.08133526
O        0.74329199      -0.03169210      -1.35878831
C       -0.67881214       0.94871874      -0.12371271
H       -2.23363752      -0.61489143       0.21372112
H       -0.57312902      -0.82488642      -1.15448798
H        0.02943316       0.07561497       1.83623281
H        1.63588665      -1.31561330       0.02114074
H        2.04211134       0.41266017       0.20556540
H       -0.98092820       1.97766840      -0.23016014
11
Frame=10 idx=002421 GeodesicLength=0.7854464869163337 rxn_smarts="[C:1]1([H:6])([H:7])[C@@:2]2([H:8])[C:3]([H:9])([H:10])[O:4][C@@:5]12[H:11]>>[C:1]1([H:6])=[C:5]([H:11])[C:2]1([C:3]([O:4][H:7])([H:9])[H:10])[H:8]"
C       -1.23982860      -0.32517934      -0.07888309
C       -0.00247141      -0.01404660       0.76109244
C        1.25222229      -0.28768357      -0.07622019
O        0.73327521      -0.01969446      -1.35399084
C       -0.67534156       0.94688257      -0.12904433
H       -2.23356648      -0.61462038       0.22589340
H       -0.55906583      -0.82866165      -1.17062789
H        0.02760011       0.07271641       1.83981466
H        1.62788076      -1.31536370       0.01765799
H        2.04640667       0.41048546       0.20527928
H       -0.97711116       1.97516528      -0.24097143
11
Frame=11 idx=002421 GeodesicLength=0.8639861955708319 rxn_smarts="[C:1]1([H:6])([H:7])[C@@:2]2([H:8])[C:3]([H:9])([H:10])[O:4][C@@:5]12[H:11]>>[C:1]1([H:6])=[C:5]([H:11])[C:2]1([C:3]([O:4][H:7])([H:9])[H:10])[H:8]"
C       -1.24213501      -0.32409335      -0.07205132
C       -0.00488981      -0.01734044       0.76482163
C        1.25080312      -0.28465914      -0.07107678
O        0.72340381      -0.00787008      -1.34919441
C       -0.67201525       0.94501138      -0.13434674
H       -2.23366547      -0.61418755       0.23823196
H       -0.54439174      -0.83249941      -1.18726638
H        0.02583244       0.06983976       1.84335296
H        1.61985174      -1.31504192       0.01431709
H        2.05064971       0.40821967       0.20477515
H       -0.97344355       1.97262107      -0.25156315
11
Frame=12 idx=002421 GeodesicLength=0.9425131034983406 rxn_smarts="[C:1]1([H:6])([H:7])[C@@:2]2([H:8])[C:3]([H:9])([H:10])[O:4][C@@:5]12[H:11]>>[C:1]1([H:6])=[C:5]([H:11])[C:2]1([C:3]([O:4][H:7])([H:9])[H:10])[H:8]"
C       -1.24464316      -0.32284301      -0.06498597
C       -0.00734223      -0.02058958       0.76850700
C        1.24931960      -0.28170024      -0.06590352
O        0.71366579       0.00378952      -1.34440047
C       -0.66884037       0.94310083      -0.13961753
H       -2.23393342      -0.61359777       0.25077000
H       -0.52906411      -0.83638449      -1.20443267
H        0.02412818       0.06698506       1.84685455
H        1.61179123      -1.31465477       0.01111112
H        2.05483494       0.40585787       0.20405786
H       -0.96991645       1.97003658      -0.26196035
11
Frame=13 idx=002421 GeodesicLength=1.0210336240159834 rxn_smarts="[C:1]1([H:6])([H:7])[C@@:2]2([H:8])[C:3]([H:9])([H:10])[O:4][C@@:5]12[H:11]>>[C:1]1([H:6])=[C:5]([H:11])[C:2]1([C:3]([O:4][H:7])([H:9])[H:10])[H:8]"
C       -1.24736153      -0.32142368      -0.05766809
C       -0.00983301      -0.02379440       0.77215204
C        1.24776589      -0.27880661      -0.06070077
O        0.70405393       0.01529916      -1.33960650
C       -0.66582768       0.94114214      -0.14485694
H       -2.23437420      -0.61284342       0.26354321
H       -0.51302218      -0.84030813      -1.22216000
H        0.02248476       0.06415256       1.85032025
H        1.60368631      -1.31420765       0.00803024
H        2.05895814       0.40338618       0.20313060
H       -0.96653043       1.96740384      -0.27218403
11
Frame=14 idx=002421 GeodesicLength=1.0995492616285332 rxn_smarts="[C:1]1([H:6])([H:7])[C@@:2]2([H:8])[C:3]([H:9])([H:10])[O:4][C@@:5]12[H:11]>>[C:1]1([H:6])=[C:5]([H:11])[C:2]1([C:3]([O:4][H:7])([H:9])[H:10])[H:8]"
C       -1.25029881      -0.31982911      -0.05008133
C       -0.01236222      -0.02695494       0.77576027
C        1.24613762      -0.27598275      -0.05546976
O        0.69455672       0.02665758      -1.33481932
C       -0.66298081       0.93913285      -0.15007498
H       -2.23499598      -0.61192204       0.27656537
H       -0.49621092      -0.84426952      -1.24048705
H        0.02091220       0.06135886       1.85375433
H        1.59552736      -1.31371275       0.00507885
H        2.06301404       0.40079649       0.20199452
H       -0.96329920       1.96472533      -0.28222090
11
Frame=15 idx=002421 GeodesicLength=1.178060373105828 rxn_smarts="[C:1]1([H:6])([H:7])[C@@:2]2([H:8])[C:3]([H:9])([H:10])[O:4][C@@:5]12[H:11]>>[C:1]1([H:6])=[C:5]([H:11])[C:2]1([C:3]([O:4][H:7])([H:9])[H:10])[H:8]"
C       -1.25346913      -0.31804969      -0.04220726
C       -0.01493671      -0.03007211       0.77932985
C        1.24442915      -0.27323098      -0.05021497
O        0.68516587       0.03786152      -1.33004246
C       -0.66030686       0.93706042      -0.15528088
H       -2.23581217      -0.61081760       0.28986107
H       -0.47855289      -0.84826791      -1.25944231
H        0.01940924       0.05861560       1.85715187
H        1.58730670      -1.31317238       0.00225414
H        2.06699315       0.39807992       0.20064429
H       -0.96022635       1.96199321      -0.29205335
11
Frame=16 idx=002421 GeodesicLength=1.2565643260576012 rxn_smarts="[C:1]1([H:6])([H:7])[C@@:2]2([H:8])[C:3]([H:9])([H:10])[O:4][C@@:5]12[H:11]>>[C:1]1([H:6])=[C:5]([H:11])[C:2]1([C:3]([O:4][H:7])([H:9])[H:10])[H:8]"
C       -1.25688160      -0.31608140      -0.03402759
C       -0.01755865      -0.03314720       0.78286796
C        1.24263261      -0.27055549      -0.04493541
O        0.67586774       0.04892087      -1.32527622
C       -0.65781853       0.93492023      -0.16047626
H       -2.23682211      -0.60953059       0.30347274
H       -0.45997907      -0.85228079      -1.27907601
H        0.01798217       0.05592743       1.86052013
H        1.57900716      -1.31260090      -0.00044799
H        2.07088940       0.39522207       0.19908645
H       -0.95731913       1.95920578      -0.30170780
