14
Frame=0 idx=005602 GeodesicLength=0.0 rxn_smarts="[C:1](#[C:2][C:3]1([H:8])[C:4]([H:9])([H:10])[C:5]([H:11])([H:12])[C:6]1([H:13])[H:14])[H:7]>>[C+:1](=[C:2]=[C-:3][C:6]([C:5]([C:4]([H:8])([H:9])[H:10])([H:11])[H:12])([H:13])[H:14])[H:7]"
C        2.92902707      -0.59287078      -0.16998799
C        1.80577466      -0.43258098       0.24740694
C        0.52749086      -0.31499297       0.80510351
C       -0.54385996       1.26023114      -0.17307038
C       -1.58557485       0.16652587      -0.01948103
C       -0.63135186      -1.01849803       0.10884647
H        3.93279309      -0.73177547      -0.49470412
H        0.18805446       0.96910870       0.79743639
H       -0.80432532       2.27542856       0.13177598
H       -0.01069120       1.25408033      -1.11998552
H       -2.13714715       0.31256668       0.91088316
H       -2.30222583       0.10196899      -0.83791689
H       -0.36114321      -1.39255837      -0.88504797
H       -1.00682078      -1.85663364       0.69874143
14
Frame=1 idx=005602 GeodesicLength=0.05488238424160843 rxn_smarts="[C:1](#[C:2][C:3]1([H:8])[C:4]([H:9])([H:10])[C:5]([H:11])([H:12])[C:6]1([H:13])[H:14])[H:7]>>[C+:1](=[C:2]=[C-:3][C:6]([C:5]([C:4]([H:8])([H:9])[H:10])([H:11])[H:12])([H:13])[H:14])[H:7]"
C        2.93869332      -0.55915824      -0.18278957
C        1.81383398      -0.43562436       0.25175137
C        0.53184176      -0.31563535       0.78877632
C       -0.54527352       1.26042453      -0.17191077
C       -1.58741051       0.16611843      -0.01739970
C       -0.63175311      -1.01908483       0.10513680
H        3.93992025      -0.77268511      -0.47566560
H        0.19010351       0.97929015       0.81320376
H       -0.81390863       2.27514851       0.12710927
H       -0.02469311       1.26065290      -1.12622298
H       -2.13649335       0.30912016       0.91492436
H       -2.30591682       0.10146234      -0.83419928
H       -0.36629226      -1.39252916      -0.89013887
H       -1.00265152      -1.85749998       0.69742489
14
Frame=2 idx=005602 GeodesicLength=0.11028481516816172 rxn_smarts="[C:1](#[C:2][C:3]1([H:8])[C:4]([H:9])([H:10])[C:5]([H:11])([H:12])[C:6]1([H:13])[H:14])[H:7]>>[C+:1](=[C:2]=[C-:3][C:6]([C:5]([C:4]([H:8])([H:9])[H:10])([H:11])[H:12])([H:13])[H:14])[H:7]"
C        2.95336654      -0.52728591      -0.18118051
C        1.82280772      -0.43548134       0.25587188
C        0.53698621      -0.31415937       0.77164338
C       -0.54778600       1.26139946      -0.17096267
C       -1.58896191       0.16512225      -0.01566235
C       -0.63036073      -1.01905861       0.10069594
H        3.93825859      -0.81938045      -0.46641182
H        0.19161389       0.99070348       0.82854433
H       -0.82568910       2.27504821       0.12292990
H       -0.04026027       1.26894820      -1.13265606
H       -2.13559198       0.30416585       0.91870951
H       -2.30934435       0.09965536      -0.83072373
H       -0.36949466      -1.39137724      -0.89607256
H       -0.99554395      -1.85829987       0.69527477
14
Frame=3 idx=005602 GeodesicLength=0.1659571058438682 rxn_smarts="[C:1](#[C:2][C:3]1([H:8])[C:4]([H:9])([H:10])[C:5]([H:11])([H:12])[C:6]1([H:13])[H:14])[H:7]>>[C+:1](=[C:2]=[C-:3][C:6]([C:5]([C:4]([H:8])([H:9])[H:10])([H:11])[H:12])([H:13])[H:14])[H:7]"
C        2.96785833      -0.50651681      -0.18306836
C        1.83138235      -0.43770963       0.25269292
C        0.54321788      -0.31356597       0.75004336
C       -0.55049543       1.26232138      -0.17089971
C       -1.59115421       0.16486443      -0.01203731
C       -0.63025201      -1.01906062       0.09522366
H        3.94274008      -0.85359906      -0.44268593
H        0.19575396       1.00104308       0.84077660
H       -0.83587996       2.27487817       0.11933054
H       -0.05918006       1.27702888      -1.14131186
H       -2.13250805       0.30023890       0.92595489
H       -2.31579834       0.09927968      -0.82329807
H       -0.37708084      -1.39034131      -0.90378100
H       -0.98860371      -1.85886111       0.69306026
14
Frame=4 idx=005602 GeodesicLength=0.2223005274025146 rxn_smarts="[C:1](#[C:2][C:3]1([H:8])[C:4]([H:9])([H:10])[C:5]([H:11])([H:12])[C:6]1([H:13])[H:14])[H:7]>>[C+:1](=[C:2]=[C-:3][C:6]([C:5]([C:4]([H:8])([H:9])[H:10])([H:11])[H:12])([H:13])[H:14])[H:7]"
C        2.98406188      -0.49265972      -0.18670470
C        1.84029619      -0.43795679       0.24182184
C        0.55100307      -0.31165825       0.72359776
C       -0.55513958       1.26408441      -0.17139945
C       -1.59400274       0.16458427      -0.00653616
C       -0.62973079      -1.01842669       0.08816951
H        3.95154150      -0.88870899      -0.40506621
H        0.20138335       1.01195698       0.85000389
H       -0.84775852       2.27500903       0.11709323
H       -0.08336600       1.28691241      -1.15172715
H       -2.12737062       0.29538486       0.93667525
H       -2.32519489       0.09877654      -0.81186293
H       -0.38690416      -1.38797499      -0.91390148
H       -0.97881870      -1.85932307       0.68983660
14
Frame=5 idx=005602 GeodesicLength=0.278793936005596 rxn_smarts="[C:1](#[C:2][C:3]1([H:8])[C:4]([H:9])([H:10])[C:5]([H:11])([H:12])[C:6]1([H:13])[H:14])[H:7]>>[C+:1](=[C:2]=[C-:3][C:6]([C:5]([C:4]([H:8])([H:9])[H:10])([H:11])[H:12])([H:13])[H:14])[H:7]"
C        3.00405787      -0.47801442      -0.17286919
C        1.84960617      -0.43704052       0.23833273
C        0.55778568      -0.30834981       0.70021037
C       -0.55926081       1.26590908      -0.17201594
C       -1.59606219       0.16381367      -0.00312128
C       -0.62802010      -1.01762397       0.08197988
H        3.94939226      -0.92580146      -0.39133285
H        0.20527290       1.02362351       0.86114019
H       -0.86028912       2.27500869       0.11400864
H       -0.10504608       1.29667419      -1.16081942
H       -2.12374054       0.29021563       0.94389379
H       -2.33178559       0.09692372      -0.80419947
H       -0.39317496      -1.38592984      -0.92230911
H       -0.96873550      -1.85940848       0.68710166
14
Frame=6 idx=005602 GeodesicLength=0.33571030033773214 rxn_smarts="[C:1](#[C:2][C:3]1([H:8])[C:4]([H:9])([H:10])[C:5]([H:11])([H:12])[C:6]1([H:13])[H:14])[H:7]>>[C+:1](=[C:2]=[C-:3][C:6]([C:5]([C:4]([H:8])([H:9])[H:10])([H:11])[H:12])([H:13])[H:14])[H:7]"
C        3.02414495      -0.46821656      -0.16242540
C        1.85893875      -0.43610270       0.22950210
C        0.56542165      -0.30467703       0.67306333
C       -0.56428125       1.26809124      -0.17309354
C       -1.59854051       0.16322777       0.00166706
C       -0.62652787      -1.01654442       0.07467393
H        3.95158249      -0.96077721      -0.36586242
H        0.21065738       1.03508065       0.87010294
H       -0.87305516       2.27506412       0.11199736
H       -0.13021989       1.30723131      -1.17105796
H       -2.11842427       0.28486884       0.95361878
H       -2.34048963       0.09543939      -0.79355264
H       -0.40182151      -1.38332426      -0.93235466
H       -0.95738515      -1.85936113       0.68372111
14
Frame=7 idx=005602 GeodesicLength=0.3928903156860587 rxn_smarts="[C:1](#[C:2][C:3]1([H:8])[C:4]([H:9])([H:10])[C:5]([H:11])([H:12])[C:6]1([H:13])[H:14])[H:7]>>[C+:1](=[C:2]=[C-:3][C:6]([C:5]([C:4]([H:8])([H:9])[H:10])([H:11])[H:12])([H:13])[H:14])[H:7]"
C        3.04597717      -0.46032328      -0.14467680
C        1.86850027      -0.43448444       0.22153619
C        0.57305968      -0.30003968       0.64536461
C       -0.56955587       1.27049392      -0.17453985
C       -1.60082586       0.16246907       0.00615715
C       -0.62450155      -1.01521851       0.06724345
H        3.95064780      -0.99598269      -0.34640030
H        0.21593854       1.04686833       0.87881723
H       -0.88632272       2.27508559       0.11003476
H       -0.15606940       1.31810369      -1.18129042
H       -2.11290913       0.27927627       0.96294660
H       -2.34890611       0.09338330      -0.78316377
H       -0.40993585      -1.38062778      -0.94235910
H       -0.94509698      -1.85900378       0.68033025
14
Frame=8 idx=005602 GeodesicLength=0.4502321148591701 rxn_smarts="[C:1](#[C:2][C:3]1([H:8])[C:4]([H:9])([H:10])[C:5]([H:11])([H:12])[C:6]1([H:13])[H:14])[H:7]>>[C+:1](=[C:2]=[C-:3][C:6]([C:5]([C:4]([H:8])([H:9])[H:10])([H:11])[H:12])([H:13])[H:14])[H:7]"
C        3.06778518      -0.45521925      -0.12714863
C        1.87815044      -0.43279927       0.21119897
C        0.58107691      -0.29490808       0.61530697
C       -0.57528322       1.27313318      -0.17634442
C       -1.60315566       0.16174635       0.01122969
C       -0.62241176      -1.01368194       0.05916806
H        3.95088518      -1.03006943      -0.32208618
H        0.22207189       1.05851000       0.88633995
H       -0.89970462       2.27508129       0.10879812
H       -0.18394526       1.32946996      -1.19192189
H       -2.10631300       0.27352601       0.97335705
H       -2.35816659       0.09133642      -0.77132392
H       -0.41917980      -1.37769819      -0.95314874
H       -0.93180969      -1.85842707       0.67657496
14
Frame=9 idx=005602 GeodesicLength=0.5075075553069965 rxn_smarts="[C:1](#[C:2][C:3]1([H:8])[C:4]([H:9])([H:10])[C:5]([H:11])([H:12])[C:6]1([H:13])[H:14])[H:7]>>[C+:1](=[C:2]=[C-:3][C:6]([C:5]([C:4]([H:8])([H:9])[H:10])([H:11])[H:12])([H:13])[H:14])[H:7]"
C        3.08915005      -0.45165511      -0.10834245
C        1.88776310      -0.43178333       0.20082328
C        0.58904178      -0.28960223       0.58406868
C       -0.58086952       1.27577263      -0.17846677
C       -1.60531601       0.16108818       0.01631241
C       -0.62037572      -1.01211051       0.05093427
H        3.95080486      -1.06192089      -0.29768290
H        0.22870822       1.06975456       0.89343417
H       -0.91259109       2.27495070       0.10788912
H       -0.21242848       1.34080543      -1.20252650
H       -2.09917339       0.26796906       0.98381970
H       -2.36741019       0.08932667      -0.75919691
H       -0.42900477      -1.37502456      -0.96396105
H       -0.91829884      -1.85757060       0.67289495
14
Frame=10 idx=005602 GeodesicLength=0.5646541842628955 rxn_smarts="[C:1](#[C:2][C:3]1([H:8])[C:4]([H:9])([H:10])[C:5]([H:11])([H:12])[C:6]1([H:13])[H:14])[H:7]>>[C+:1](=[C:2]=[C-:3][C:6]([C:5]([C:4]([H:8])([H:9])[H:10])([H:11])[H:12])([H:13])[H:14])[H:7]"
C        3.10947830      -0.45018932      -0.09328940
C        1.89738184      -0.43115426       0.18767632
C        0.59734046      -0.28405114       0.54998286
C       -0.58677410       1.27858957      -0.18088051
C       -1.60744867       0.16051460       0.02213852
C       -0.61841591      -1.01039402       0.04191901
H        3.95262948      -1.09233166      -0.26469591
H        0.23652248       1.08052000       0.89923279
H       -0.92523049       2.27475784       0.10797874
H       -0.24305285       1.35263999      -1.21336550
H       -2.09063996       0.26228610       0.99558226
H       -2.37754834       0.08752286      -0.74527663
H       -0.44038192      -1.37216728      -0.97568310
H       -0.90386031      -1.85654328       0.66868054
14
Frame=11 idx=005602 GeodesicLength=0.6218103725070265 rxn_smarts="[C:1](#[C:2][C:3]1([H:8])[C:4]([H:9])([H:10])[C:5]([H:11])([H:12])[C:6]1([H:13])[H:14])[H:7]>>[C+:1](=[C:2]=[C-:3][C:6]([C:5]([C:4]([H:8])([H:9])[H:10])([H:11])[H:12])([H:13])[H:14])[H:7]"
C        3.13003402      -0.44971368      -0.07201941
C        1.90713145      -0.43034238       0.17677194
C        0.60545086      -0.27772177       0.51561103
C       -0.59259047       1.28148429      -0.18369587
C       -1.60921022       0.15979737       0.02743651
C       -0.61597351      -1.00852178       0.03307789
H        3.95139893      -1.12233098      -0.23867790
H        0.24414688       1.09137046       0.90511986
H       -0.93789845       2.27447090       0.10792025
H       -0.27368881       1.36442239      -1.22392352
H       -2.08200637       0.25661995       1.00649169
H       -2.38692376       0.08514910      -0.73207090
H       -0.45108610      -1.36961696      -0.98685623
H       -0.88878444      -1.85506691       0.66481464
14
Frame=12 idx=005602 GeodesicLength=0.6789827948984051 rxn_smarts="[C:1](#[C:2][C:3]1([H:8])[C:4]([H:9])([H:10])[C:5]([H:11])([H:12])[C:6]1([H:13])[H:14])[H:7]>>[C+:1](=[C:2]=[C-:3][C:6]([C:5]([C:4]([H:8])([H:9])[H:10])([H:11])[H:12])([H:13])[H:14])[H:7]"
C        3.15022452      -0.45086967      -0.04864270
C        1.91697763      -0.42936864       0.16537556
C        0.61371674      -0.27067965       0.47922960
C       -0.59868871       1.28458651      -0.18692923
C       -1.61074518       0.15900465       0.03293222
C       -0.61317895      -1.00642364       0.02377837
H        3.94946467      -1.15204018      -0.21182204
H        0.25231876       1.10211104       0.91018855
H       -0.95064887       2.27413803       0.10833534
H       -0.30577757       1.37656465      -1.23450528
H       -2.07239659       0.25076962       1.01779748
H       -2.39646853       0.08247535      -0.71806447
H       -0.46225381      -1.36702711      -0.99837347
H       -0.87254413      -1.85324096       0.66070006
14
Frame=13 idx=005602 GeodesicLength=0.7361719694356201 rxn_smarts="[C:1](#[C:2][C:3]1([H:8])[C:4]([H:9])([H:10])[C:5]([H:11])([H:12])[C:6]1([H:13])[H:14])[H:7]>>[C+:1](=[C:2]=[C-:3][C:6]([C:5]([C:4]([H:8])([H:9])[H:10])([H:11])[H:12])([H:13])[H:14])[H:7]"
C        3.16981350      -0.45372517      -0.02480703
C        1.92696025      -0.42802711       0.15207818
C        0.62233105      -0.26278872       0.43976906
C       -0.60532140       1.28799507      -0.19060820
C       -1.61203926       0.15810925       0.03900664
C       -0.60994507      -1.00401443       0.01361877
H        3.94732261      -1.18214905      -0.18023395
H        0.26144064       1.11270644       0.91388569
H       -0.96362441       2.27377265       0.10957148
H       -0.34021139       1.38934707      -1.24519668
H       -2.06119586       0.24451323       1.03013699
H       -2.40658688       0.07950606      -0.70239547
H       -0.47436238      -1.36415348      -1.01073337
H       -0.85458139      -1.85109180       0.65590788
14
Frame=14 idx=005602 GeodesicLength=0.7934358651887636 rxn_smarts="[C:1](#[C:2][C:3]1([H:8])[C:4]([H:9])([H:10])[C:5]([H:11])([H:12])[C:6]1([H:13])[H:14])[H:7]>>[C+:1](=[C:2]=[C-:3][C:6]([C:5]([C:4]([H:8])([H:9])[H:10])([H:11])[H:12])([H:13])[H:14])[H:7]"
C        3.18888933      -0.45853429       0.00176117
C        1.93719092      -0.42566237       0.13742729
C        0.63132745      -0.25362133       0.39723574
C       -0.61260916       1.29179372      -0.19480168
C       -1.61294332       0.15698485       0.04552512
C       -0.60591706      -1.00117985       0.00264705
H        3.94360027      -1.21352398      -0.14632892
H        0.27131252       1.12343441       0.91622742
H       -0.97714179       2.27338665       0.11150108
H       -0.37704087       1.40281082      -1.25591029
H       -2.04835529       0.23770130       1.04326911
H       -2.41698637       0.07586924      -0.68525645
H       -0.48692257      -1.36098272      -1.02377586
H       -0.83440408      -1.84847646       0.65047924
14
Frame=15 idx=005602 GeodesicLength=0.8506199611394517 rxn_smarts="[C:1](#[C:2][C:3]1([H:8])[C:4]([H:9])([H:10])[C:5]([H:11])([H:12])[C:6]1([H:13])[H:14])[H:7]>>[C+:1](=[C:2]=[C-:3][C:6]([C:5]([C:4]([H:8])([H:9])[H:10])([H:11])[H:12])([H:13])[H:14])[H:7]"
C        3.20667496      -0.46466043       0.03022411
C        1.94741955      -0.42312453       0.12243027
C        0.64047513      -0.24358369       0.35184286
C       -0.62015693       1.29580783      -0.19950098
C       -1.61334599       0.15572758       0.05234095
C       -0.60130969      -0.99805371      -0.00899402
H        3.93838403      -1.24476273      -0.11061586
H        0.28199606       1.13388453       0.91744202
H       -0.99056426       2.27290684       0.11402022
H       -0.41565626       1.41664336      -1.26646907
H       -2.03391624       0.23061861       1.05690584
H       -2.42738443       0.07179293      -0.66692432
H       -0.50006988      -1.35781082      -1.03723520
H       -0.81254605      -1.84538576       0.64453319
14
Frame=16 idx=005602 GeodesicLength=0.9077067161906641 rxn_smarts="[C:1](#[C:2][C:3]1([H:8])[C:4]([H:9])([H:10])[C:5]([H:11])([H:12])[C:6]1([H:13])[H:14])[H:7]>>[C+:1](=[C:2]=[C-:3][C:6]([C:5]([C:4]([H:8])([H:9])[H:10])([H:11])[H:12])([H:13])[H:14])[H:7]"
C        3.22284831      -0.47225646       0.06114860
C        1.95761395      -0.42005469       0.10835636
C        0.64974453      -0.23242868       0.30387852
C       -0.62793916       1.30005980      -0.20472767
C       -1.61310914       0.15426432       0.05926162
C       -0.59585823      -0.99456297      -0.02115851
H        3.93077276      -1.27619756      -0.07500133
H        0.29322922       1.14420294       0.91775158
H       -1.00401857       2.27232454       0.11695509
H       -0.45581508       1.43077781      -1.27674471
H       -2.01797136       0.22323097       1.07070598
H       -2.43741700       0.06702254      -0.64776133
H       -0.51327325      -1.35469099      -1.05084208
H       -0.78880698      -1.84169158       0.63817787
