11
Frame=0 idx=001429 GeodesicLength=0.0 rxn_smarts="[C:1](#[C:2][C:3]1([H:7])[C:4]([H:8])([H:9])[C:5]1([H:10])[H:11])[H:6]>>[C:1](=[C:2]=[C:3]1[C:4]([H:8])([H:9])[C:5]1([H:10])[H:11])([H:6])[H:7]"
C        2.53766860       0.32195000      -0.72628577
C        1.35817468       0.31922514      -0.16764898
C        0.06456024      -0.00661678       0.07409192
C       -1.09853394      -0.81753219      -0.27693128
C       -1.20236316       0.34047447       0.71945453
H        3.32843871      -0.28682562      -0.28685468
H        0.77318450       1.32280522      -0.35431355
H       -1.55755895      -0.68151991      -1.24931146
H       -1.13538193      -1.83433239       0.10105275
H       -1.75368384       1.21629367       0.39430783
H       -1.31450489       0.10607837       1.77243867
11
Frame=1 idx=001429 GeodesicLength=0.09440115470237681 rxn_smarts="[C:1](#[C:2][C:3]1([H:7])[C:4]([H:8])([H:9])[C:5]1([H:10])[H:11])[H:6]>>[C:1](=[C:2]=[C:3]1[C:4]([H:8])([H:9])[C:5]1([H:10])[H:11])([H:6])[H:7]"
C        2.51932227       0.31035989      -0.72153560
C        1.36812396       0.29912333      -0.11265538
C        0.05733353       0.00531746       0.06683619
C       -1.10147330      -0.81538344      -0.27806866
C       -1.21083567       0.34124883       0.71702901
H        3.34562164      -0.27283714      -0.31647678
H        0.79220268       1.32576552      -0.36865153
H       -1.56001006      -0.68332794      -1.25112124
H       -1.12774725      -1.83198966       0.10076099
H       -1.76484291       1.21584713       0.39367892
H       -1.31769489       0.10587600       1.77020408
11
Frame=2 idx=001429 GeodesicLength=0.18890544419428704 rxn_smarts="[C:1](#[C:2][C:3]1([H:7])[C:4]([H:8])([H:9])[C:5]1([H:10])[H:11])[H:6]>>[C:1](=[C:2]=[C:3]1[C:4]([H:8])([H:9])[C:5]1([H:10])[H:11])([H:6])[H:7]"
C        2.50313147       0.29775398      -0.71269104
C        1.37437982       0.27739305      -0.06879761
C        0.05021929       0.01706945       0.05442819
C       -1.10605032      -0.81279567      -0.28003824
C       -1.21621984       0.34130165       0.71556307
H        3.36091208      -0.25409511      -0.33259546
H        0.81105536       1.32749114      -0.38988219
H       -1.56900753      -0.68353845      -1.25127319
H       -1.12078357      -1.82946199       0.09869315
H       -1.77427833       1.21508735       0.39753551
H       -1.31335843       0.10379460       1.76905781
11
Frame=3 idx=001429 GeodesicLength=0.28344481084645534 rxn_smarts="[C:1](#[C:2][C:3]1([H:7])[C:4]([H:8])([H:9])[C:5]1([H:10])[H:11])[H:6]>>[C:1](=[C:2]=[C:3]1[C:4]([H:8])([H:9])[C:5]1([H:10])[H:11])([H:6])[H:7]"
C        2.48840704       0.28510213      -0.70099064
C        1.37792910       0.25473888      -0.03157384
C        0.04344537       0.02903662       0.03980521
C       -1.11095492      -0.80989732      -0.28234286
C       -1.21988381       0.34102946       0.71468109
H        3.37399727      -0.23364243      -0.34206108
H        0.82991020       1.32859877      -0.41488149
H       -1.58084526      -0.68297706      -1.25045329
H       -1.11377867      -1.82672391       0.09568958
H       -1.78289759       1.21399099       0.40370972
H       -1.30532873       0.10074387       1.76841759
11
Frame=4 idx=001429 GeodesicLength=0.37802575199918076 rxn_smarts="[C:1](#[C:2][C:3]1([H:7])[C:4]([H:8])([H:9])[C:5]1([H:10])[H:11])[H:6]>>[C:1](=[C:2]=[C:3]1[C:4]([H:8])([H:9])[C:5]1([H:10])[H:11])([H:6])[H:7]"
C        2.47459561       0.27109974      -0.68794276
C        1.37919552       0.23038977       0.00038585
C        0.03697001       0.04053603       0.02375672
C       -1.11653273      -0.80657956      -0.28494777
C       -1.22195081       0.34047155       0.71449334
H        3.38663197      -0.20870387      -0.34480639
H        0.84873525       1.32793966      -0.44418227
H       -1.59527807      -0.68109009      -1.24880255
H       -1.10786643      -1.82372929       0.09158805
H       -1.79010264       1.21297126       0.41219547
H       -1.29439768       0.09669480       1.76826232
11
Frame=5 idx=001429 GeodesicLength=0.47260645163413134 rxn_smarts="[C:1](#[C:2][C:3]1([H:7])[C:4]([H:8])([H:9])[C:5]1([H:10])[H:11])[H:6]>>[C:1](=[C:2]=[C:3]1[C:4]([H:8])([H:9])[C:5]1([H:10])[H:11])([H:6])[H:7]"
C        2.46135200       0.25562163      -0.67413406
C        1.37866896       0.20423972       0.02852292
C        0.03097584       0.05130874       0.00749945
C       -1.12252719      -0.80282266      -0.28769833
C       -1.22275957       0.33973414       0.71496315
H        3.39877855      -0.17893626      -0.34267299
H        0.86752937       1.32507844      -0.47730083
H       -1.61106644      -0.67780467      -1.24659416
H       -1.10334297      -1.82047528       0.08655049
H       -1.79573657       1.21221836       0.42239873
H       -1.28187200       0.09183783       1.76846562
11
Frame=6 idx=001429 GeodesicLength=0.5671536271356354 rxn_smarts="[C:1](#[C:2][C:3]1([H:7])[C:4]([H:8])([H:9])[C:5]1([H:10])[H:11])[H:6]>>[C:1](=[C:2]=[C:3]1[C:4]([H:8])([H:9])[C:5]1([H:10])[H:11])([H:6])[H:7]"
C        2.44882704       0.24232225      -0.65803338
C        1.37684011       0.17828663       0.05510616
C        0.02582450       0.06218372      -0.00754538
C       -1.12750647      -0.79886224      -0.29032705
C       -1.22309155       0.33893740       0.71570797
H        3.40796340      -0.15125359      -0.34117119
H        0.88564953       1.32164252      -0.51225536
H       -1.62556104      -0.67418372      -1.24426703
H       -1.09842351      -1.81703856       0.08132597
H       -1.80090323       1.21123633       0.43277827
H       -1.26961877       0.08672926       1.76868102
11
Frame=7 idx=001429 GeodesicLength=0.6616826449107547 rxn_smarts="[C:1](#[C:2][C:3]1([H:7])[C:4]([H:8])([H:9])[C:5]1([H:10])[H:11])[H:6]>>[C:1](=[C:2]=[C:3]1[C:4]([H:8])([H:9])[C:5]1([H:10])[H:11])([H:6])[H:7]"
C        2.43658825       0.22816621      -0.64144569
C        1.37392117       0.15035403       0.07953791
C        0.02140205       0.07201299      -0.02169551
C       -1.13264062      -0.79452029      -0.29295551
C       -1.22251739       0.33807842       0.71695787
H        3.41627800      -0.11897952      -0.33717555
H        0.90364259       1.31564490      -0.55013534
H       -1.64011259      -0.66923041      -1.24174484
H       -1.09517384      -1.81338976       0.07551094
H       -1.80432023       1.21073930       0.44403864
H       -1.25706738       0.08112414       1.76910708
11
Frame=8 idx=001429 GeodesicLength=0.7561639827452423 rxn_smarts="[C:1](#[C:2][C:3]1([H:7])[C:4]([H:8])([H:9])[C:5]1([H:10])[H:11])[H:6]>>[C:1](=[C:2]=[C:3]1[C:4]([H:8])([H:9])[C:5]1([H:10])[H:11])([H:6])[H:7]"
C        2.42487630       0.21671515      -0.62291914
C        1.37020378       0.12227827       0.10319565
C        0.01792441       0.08164365      -0.03422724
C       -1.13684404      -0.78996679      -0.29544733
C       -1.22158260       0.33717458       0.71848591
H        3.42192553      -0.08855733      -0.33428042
H        0.92073784       1.30858904      -0.58992572
H       -1.65303348      -0.66377415      -1.23930889
H       -1.09193326      -1.80959237       0.06956216
H       -1.80704055       1.21020326       0.45528140
H       -1.24523393       0.07528668       1.76958361
11
Frame=9 idx=001429 GeodesicLength=0.8505952167396571 rxn_smarts="[C:1](#[C:2][C:3]1([H:7])[C:4]([H:8])([H:9])[C:5]1([H:10])[H:11])[H:6]>>[C:1](=[C:2]=[C:3]1[C:4]([H:8])([H:9])[C:5]1([H:10])[H:11])([H:6])[H:7]"
C        2.41362408       0.20799909      -0.60263546
C        1.36584566       0.09361703       0.12605805
C        0.01538033       0.09085714      -0.04522563
C       -1.14036284      -0.78515747      -0.29783906
C       -1.22020638       0.33620646       0.72036016
H        3.42538453      -0.05913385      -0.33183534
H        0.93683850       1.29994738      -0.63218076
H       -1.66461897      -0.65757800      -1.23696410
H       -1.08910743      -1.80564866       0.06338204
H       -1.80880936       1.20977364       0.46669119
H       -1.23396813       0.06911723       1.77018889
11
Frame=10 idx=001429 GeodesicLength=0.9449650712284103 rxn_smarts="[C:1](#[C:2][C:3]1([H:7])[C:4]([H:8])([H:9])[C:5]1([H:10])[H:11])[H:6]>>[C:1](=[C:2]=[C:3]1[C:4]([H:8])([H:9])[C:5]1([H:10])[H:11])([H:6])[H:7]"
C        2.40279711       0.20314346      -0.58030561
C        1.36099930       0.06419549       0.14822645
C        0.01379648       0.09965900      -0.05469500
C       -1.14315795      -0.78014358      -0.30011969
C       -1.21843719       0.33518571       0.72251148
H        3.42673056      -0.03167195      -0.33027537
H        0.95169863       1.28984184      -0.67665895
H       -1.67476096      -0.65077282      -1.23476526
H       -1.08665970      -1.80158420       0.05709727
H       -1.80967320       1.20944066       0.47808956
H       -1.22333307       0.06270639       1.77089511
11
Frame=11 idx=001429 GeodesicLength=1.0392788525134056 rxn_smarts="[C:1](#[C:2][C:3]1([H:7])[C:4]([H:8])([H:9])[C:5]1([H:10])[H:11])[H:6]>>[C:1](=[C:2]=[C:3]1[C:4]([H:8])([H:9])[C:5]1([H:10])[H:11])([H:6])[H:7]"
C        2.39238328       0.20196887      -0.55586468
C        1.35573421       0.03299724       0.16925288
C        0.01314250       0.10767048      -0.06294710
C       -1.14569688      -0.77482143      -0.30235838
C       -1.21600431       0.33409106       0.72506402
H        3.42657409      -0.00411064      -0.32820324
H        0.96530471       1.27714156      -0.72454397
H       -1.68418492      -0.64289460      -1.23260210
H       -1.08534680      -1.79738327       0.05048219
H       -1.80907553       1.20947748       0.48991421
H       -1.21283036       0.05586326       1.77180617
11
Frame=12 idx=001429 GeodesicLength=1.1335343687797121 rxn_smarts="[C:1](#[C:2][C:3]1([H:7])[C:4]([H:8])([H:9])[C:5]1([H:10])[H:11])[H:6]>>[C:1](=[C:2]=[C:3]1[C:4]([H:8])([H:9])[C:5]1([H:10])[H:11])([H:6])[H:7]"
C        2.38237685       0.20512089      -0.52872725
C        1.35012313      -0.00094987       0.18867424
C        0.01344654       0.11457254      -0.07023232
C       -1.14831692      -0.76910239      -0.30460879
C       -1.21264147       0.33290422       0.72810032
H        3.42519424       0.02479617      -0.32470605
H        0.97753548       1.26069838      -0.77696121
H       -1.69343250      -0.63356202      -1.23036991
H       -1.08578995      -1.79302374       0.04336486
H       -1.80647987       1.21011149       0.50248953
H       -1.20201554       0.04843433       1.77297657
11
Frame=13 idx=001429 GeodesicLength=1.2277107354037329 rxn_smarts="[C:1](#[C:2][C:3]1([H:7])[C:4]([H:8])([H:9])[C:5]1([H:10])[H:11])[H:6]>>[C:1](=[C:2]=[C:3]1[C:4]([H:8])([H:9])[C:5]1([H:10])[H:11])([H:6])[H:7]"
C        2.37265645       0.21467545      -0.49741308
C        1.34424455      -0.03828376       0.20608798
C        0.01478521       0.12028210      -0.07669798
C       -1.15108714      -0.76292091      -0.30691164
C       -1.20816472       0.33159779       0.73165808
H        3.42249805       0.05445044      -0.31978961
H        0.98809587       1.23953888      -0.83496631
H       -1.70269310      -0.62257934      -1.22800916
H       -1.08819265      -1.78847437       0.03563397
H       -1.80158084       1.21141935       0.51599074
H       -1.19056169       0.04029436       1.77441701
11
Frame=14 idx=001429 GeodesicLength=1.3218037514840608 rxn_smarts="[C:1](#[C:2][C:3]1([H:7])[C:4]([H:8])([H:9])[C:5]1([H:10])[H:11])[H:6]>>[C:1](=[C:2]=[C:3]1[C:4]([H:8])([H:9])[C:5]1([H:10])[H:11])([H:6])[H:7]"
C        2.36299507       0.23107987      -0.46049975
C        1.33814662      -0.08272063       0.21910650
C        0.01727841       0.12336075      -0.08333714
C       -1.15532034      -0.75601357      -0.30941248
C       -1.20143537       0.33015610       0.73594934
H        3.41888713       0.09140535      -0.30963038
H        0.99735163       1.20959678      -0.90162015
H       -1.71400499      -0.60861854      -1.22503596
H       -1.09509603      -1.78364671       0.02680628
H       -1.79209382       1.21431945       0.53145146
H       -1.17670831       0.03108115       1.77622226
11
Frame=15 idx=001429 GeodesicLength=1.4156893109363957 rxn_smarts="[C:1](#[C:2][C:3]1([H:7])[C:4]([H:8])([H:9])[C:5]1([H:10])[H:11])[H:6]>>[C:1](=[C:2]=[C:3]1[C:4]([H:8])([H:9])[C:5]1([H:10])[H:11])([H:6])[H:7]"
C        2.35225719       0.25936562      -0.41304906
C        1.33199820      -0.13738408       0.22491360
C        0.02121981       0.12277330      -0.09107178
C       -1.16173312      -0.74815985      -0.31225065
C       -1.19130464       0.32848879       0.74106140
H        3.41330173       0.13760108      -0.29279978
H        1.00555860       1.16655075      -0.98023169
H       -1.72864542      -0.59067044      -1.22103087
H       -1.10815531      -1.77840677       0.01650408
H       -1.77591839       1.21939679       0.54959973
H       -1.15857863       0.02044481       1.77835504
11
Frame=16 idx=001429 GeodesicLength=1.5090232962685128 rxn_smarts="[C:1](#[C:2][C:3]1([H:7])[C:4]([H:8])([H:9])[C:5]1([H:10])[H:11])[H:6]>>[C:1](=[C:2]=[C:3]1[C:4]([H:8])([H:9])[C:5]1([H:10])[H:11])([H:6])[H:7]"
C        2.33601855       0.30033746      -0.35063072
C        1.32622166      -0.20750335       0.21858722
C        0.02725540       0.11653442      -0.10152642
C       -1.17162119      -0.73872196      -0.31562324
C       -1.17545819       0.32651507       0.74715501
H        3.40195163       0.20347399      -0.26450328
H        1.01583835       1.10233801      -1.07471054
H       -1.74859799      -0.56643425      -1.21524775
H       -1.13034957      -1.77222262       0.00403234
H       -1.74869362       1.22787520       0.57176251
H       -1.13256504       0.00780802       1.78070488
