10
Frame=0 idx=002239 GeodesicLength=0.0 rxn_smarts="[O:1]([C:2]([C:3](=[O:4])[C:5]#[C:6][H:10])([H:8])[H:9])[H:7]>>[C:3](=[O:4])=[C:5]=[C:6]([H:7])[H:10].[O:1]=[C:2]([H:8])[H:9]"
O       -1.21704929       0.33055995       0.95306824
C       -1.17469703       0.26221694      -0.31938674
C        0.49588913      -0.16592312      -1.16317657
O        0.44064033      -0.20244666      -2.33506802
C        1.30746111      -0.31041854      -0.05949215
C        1.18865697      -0.22768685       1.20156051
H       -0.02092977       0.06546957       1.38083280
H       -1.23189962       1.20096400      -0.88598337
H       -1.65306483      -0.59964638      -0.80350121
H        1.86499301      -0.35308892       2.03114652
10
Frame=1 idx=002239 GeodesicLength=0.10541707405660297 rxn_smarts="[O:1]([C:2]([C:3](=[O:4])[C:5]#[C:6][H:10])([H:8])[H:9])[H:7]>>[C:3](=[O:4])=[C:5]=[C:6]([H:7])[H:10].[O:1]=[C:2]([H:8])[H:9]"
O       -1.22420240       0.37018863       0.94838299
C       -1.18474516       0.25955445      -0.32247660
C        0.50357610      -0.14904312      -1.15709175
O        0.47393662      -0.15548568      -2.33131473
C        1.30660403      -0.35269904      -0.05674582
C        1.20228416      -0.24043455       1.20323481
H       -0.01945830       0.12804243       1.38264480
H       -1.28991265       1.17299821      -0.92276028
H       -1.64670511      -0.63068515      -0.77057445
H        1.87862271      -0.40243618       2.02670103
10
Frame=2 idx=002239 GeodesicLength=0.21000389853887405 rxn_smarts="[O:1]([C:2]([C:3](=[O:4])[C:5]#[C:6][H:10])([H:8])[H:9])[H:7]>>[C:3](=[O:4])=[C:5]=[C:6]([H:7])[H:10].[O:1]=[C:2]([H:8])[H:9]"
O       -1.23021234       0.41211482       0.94231214
C       -1.19493637       0.25737650      -0.32540437
C        0.51042573      -0.13605919      -1.15049257
O        0.50721020      -0.10727043      -2.32558412
C        1.30581324      -0.38838959      -0.05478283
C        1.21562829      -0.25419995       1.20417554
H       -0.01808083       0.18505584       1.38194239
H       -1.34479048       1.14156737      -0.95921913
H       -1.64116864      -0.65950371      -0.73482600
H        1.89011120      -0.45069165       2.02187895
10
Frame=3 idx=002239 GeodesicLength=0.31402107237163707 rxn_smarts="[O:1]([C:2]([C:3](=[O:4])[C:5]#[C:6][H:10])([H:8])[H:9])[H:7]>>[C:3](=[O:4])=[C:5]=[C:6]([H:7])[H:10].[O:1]=[C:2]([H:8])[H:9]"
O       -1.23541784       0.45617047       0.93443777
C       -1.20526254       0.25548358      -0.32833847
C        0.51635117      -0.12686244      -1.14383595
O        0.54062864      -0.05704872      -2.31778794
C        1.30526267      -0.41947552      -0.05350478
C        1.22904601      -0.26836283       1.20453319
H       -0.01725644       0.23721631       1.37954564
H       -1.39685948       1.10674966      -0.99525938
H       -1.63667154      -0.68605797      -0.69643072
H        1.90017934      -0.49781253       2.01664063
10
Frame=4 idx=002239 GeodesicLength=0.4175827812773885 rxn_smarts="[O:1]([C:2]([C:3](=[O:4])[C:5]#[C:6][H:10])([H:8])[H:9])[H:7]>>[C:3](=[O:4])=[C:5]=[C:6]([H:7])[H:10].[O:1]=[C:2]([H:8])[H:9]"
O       -1.23987170       0.50208384       0.92438426
C       -1.21568763       0.25349880      -0.33138440
C        0.52162730      -0.12056089      -1.13744023
O        0.57400452      -0.00434069      -2.30763817
C        1.30515550      -0.44706870      -0.05287445
C        1.24253390      -0.28323764       1.20440906
H       -0.01656327       0.28725656       1.37550412
H       -1.44699039       1.06815189      -1.03078082
H       -1.63285167      -0.71079137      -0.65528457
H        1.90864344      -0.54499180       2.01110519
10
Frame=5 idx=002239 GeodesicLength=0.5206933925199176 rxn_smarts="[O:1]([C:2]([C:3](=[O:4])[C:5]#[C:6][H:10])([H:8])[H:9])[H:7]>>[C:3](=[O:4])=[C:5]=[C:6]([H:7])[H:10].[O:1]=[C:2]([H:8])[H:9]"
O       -1.24380015       0.54964667       0.91181456
C       -1.22648502       0.25121925      -0.33457217
C        0.52584480      -0.11774846      -1.13148678
O        0.60823144       0.05259171      -2.29414350
C        1.30475783      -0.47345918      -0.05282395
C        1.25539494      -0.30030419       1.20384432
H       -0.01612894       0.33587547       1.36966633
H       -1.49471427       1.02586185      -1.06560482
H       -1.63015282      -0.73358631      -0.61148980
H        1.91705219      -0.59009678       2.00479583
10
Frame=6 idx=002239 GeodesicLength=0.6235808896401522 rxn_smarts="[O:1]([C:2]([C:3](=[O:4])[C:5]#[C:6][H:10])([H:8])[H:9])[H:7]>>[C:3](=[O:4])=[C:5]=[C:6]([H:7])[H:10].[O:1]=[C:2]([H:8])[H:9]"
O       -1.24708134       0.59859153       0.89636559
C       -1.23753230       0.24831260      -0.33797956
C        0.52951630      -0.11745267      -1.12624867
O        0.64256742       0.11344398      -2.27673162
C        1.30432475      -0.49878486      -0.05336808
C        1.26834973      -0.31800684       1.20273475
H       -0.01544037       0.38489941       1.36167765
H       -1.54084756       0.97943074      -1.09957419
H       -1.62809639      -0.75473848      -0.56491191
H        1.92423977      -0.63569540       1.99803604
10
Frame=7 idx=002239 GeodesicLength=0.7262468485377854 rxn_smarts="[O:1]([C:2]([C:3](=[O:4])[C:5]#[C:6][H:10])([H:8])[H:9])[H:7]>>[C:3](=[O:4])=[C:5]=[C:6]([H:7])[H:10].[O:1]=[C:2]([H:8])[H:9]"
O       -1.24964901       0.64891856       0.87766097
C       -1.24874384       0.24464870      -0.34156988
C        0.53297222      -0.11860620      -1.12190431
O        0.67633606       0.17761275      -2.25491456
C        1.30410965      -0.52266560      -0.05463105
C        1.28142304      -0.33631639       1.20100738
H       -0.01436140       0.43505201       1.35125274
H       -1.58554399       0.92852703      -1.13249200
H       -1.62606434      -0.77431297      -0.51526053
H        1.92952162      -0.68285788       1.99085122
10
Frame=8 idx=002239 GeodesicLength=0.8288745809811258 rxn_smarts="[O:1]([C:2]([C:3](=[O:4])[C:5]#[C:6][H:10])([H:8])[H:9])[H:7]>>[C:3](=[O:4])=[C:5]=[C:6]([H:7])[H:10].[O:1]=[C:2]([H:8])[H:9]"
O       -1.25142351       0.70095384       0.85523400
C       -1.26001317       0.24020716      -0.34525657
C        0.53670167      -0.11966599      -1.11851510
O        0.70863552       0.24409741      -2.22876513
C        1.30469533      -0.54414486      -0.05676759
C        1.29404829      -0.35616753       1.19881783
H       -0.01289696       0.48677010       1.33825658
H       -1.62899462       0.87266081      -1.16420317
H       -1.62307771      -0.79228767      -0.46200258
H        1.93232517      -0.73242328       1.98320173
10
Frame=9 idx=002239 GeodesicLength=0.9314717594929917 rxn_smarts="[O:1]([C:2]([C:3](=[O:4])[C:5]#[C:6][H:10])([H:8])[H:9])[H:7]>>[C:3](=[O:4])=[C:5]=[C:6]([H:7])[H:10].[O:1]=[C:2]([H:8])[H:9]"
O       -1.25322798       0.75301588       0.82933669
C       -1.27156160       0.23500397      -0.34899150
C        0.54048351      -0.12058667      -1.11587434
O        0.73978502       0.31191392      -2.19774705
C        1.30502615      -0.56494706      -0.05957031
C        1.30656005      -0.37701973       1.19606976
H       -0.01178397       0.53908206       1.32293205
H       -1.66962913       0.81339756      -1.19392778
H       -1.62017115      -0.80770889      -0.40677981
H        1.93451911      -0.78215104       1.97455229
10
Frame=10 idx=002239 GeodesicLength=1.034148219237198 rxn_smarts="[O:1]([C:2]([C:3](=[O:4])[C:5]#[C:6][H:10])([H:8])[H:9])[H:7]>>[C:3](=[O:4])=[C:5]=[C:6]([H:7])[H:10].[O:1]=[C:2]([H:8])[H:9]"
O       -1.25521105       0.80457422       0.79993121
C       -1.28306558       0.22914678      -0.35283211
C        0.54496490      -0.12055353      -1.11383539
O        0.76832271       0.37962392      -2.16264289
C        1.30593040      -0.58409404      -0.06296946
C        1.31870668      -0.39937870       1.19307140
H       -0.01105393       0.59243913       1.30527962
H       -1.70773685       0.75128801      -1.22117240
H       -1.61655942      -0.82038218      -0.35012632
H        1.93570214      -0.83266361       1.96529634
10
Frame=11 idx=002239 GeodesicLength=1.1369582051632119 rxn_smarts="[O:1]([C:2]([C:3](=[O:4])[C:5]#[C:6][H:10])([H:8])[H:9])[H:7]>>[C:3](=[O:4])=[C:5]=[C:6]([H:7])[H:10].[O:1]=[C:2]([H:8])[H:9]"
O       -1.25882540       0.85395329       0.76777692
C       -1.29526254       0.22333330      -0.35709913
C        0.54940527      -0.12016452      -1.11167883
O        0.79628320       0.44625369      -2.12224629
C        1.30483405      -0.60521767      -0.06628467
C        1.32917603      -0.42552826       1.19025671
H       -0.01249882       0.64422377       1.28634501
H       -1.74148085       0.68950237      -1.24626070
H       -1.61494149      -0.82894103      -0.29494828
H        1.94331056      -0.87741493       1.95413927
10
Frame=12 idx=002239 GeodesicLength=1.24010276690305 rxn_smarts="[O:1]([C:2]([C:3](=[O:4])[C:5]#[C:6][H:10])([H:8])[H:9])[H:7]>>[C:3](=[O:4])=[C:5]=[C:6]([H:7])[H:10].[O:1]=[C:2]([H:8])[H:9]"
O       -1.26314212       0.90226803       0.73254182
C       -1.30728578       0.21670485      -0.36110813
C        0.55472498      -0.11792493      -1.10981916
O        0.82124881       0.51153504      -2.07875814
C        1.30488321      -0.62362175      -0.07017534
C        1.34014542      -0.45193994       1.18715007
H       -0.01434257       0.69848006       1.26491671
H       -1.77276372       0.62500437      -1.26868720
H       -1.61212441      -0.83494880      -0.23848519
H        1.94865618      -0.92555693       1.94242456
10
Frame=13 idx=002239 GeodesicLength=1.343709053680665 rxn_smarts="[O:1]([C:2]([C:3](=[O:4])[C:5]#[C:6][H:10])([H:8])[H:9])[H:7]>>[C:3](=[O:4])=[C:5]=[C:6]([H:7])[H:10].[O:1]=[C:2]([H:8])[H:9]"
O       -1.26918178       0.94868498       0.69472265
C       -1.31962868       0.20982978      -0.36511407
C        0.56041507      -0.11444687      -1.10770514
O        0.84477256       0.57515108      -2.03121586
C        1.30428374      -0.64192213      -0.07411959
C        1.35036714      -0.48085689       1.18415427
H       -0.01778401       0.75373747       1.24152576
H       -1.80056088       0.55978525      -1.28889227
H       -1.61002290      -0.83749734      -0.18255328
H        1.95733972      -0.97246534       1.92919751
10
Frame=14 idx=002239 GeodesicLength=1.4478231563233463 rxn_smarts="[O:1]([C:2]([C:3](=[O:4])[C:5]#[C:6][H:10])([H:8])[H:9])[H:7]>>[C:3](=[O:4])=[C:5]=[C:6]([H:7])[H:10].[O:1]=[C:2]([H:8])[H:9]"
O       -1.27608618       0.99400543       0.65383540
C       -1.33132922       0.20177965      -0.36829326
C        0.56730178      -0.10856334      -1.10578965
O        0.86460146       0.63768273      -1.98171508
C        1.30609507      -0.65604084      -0.07878546
C        1.36211239      -0.50900866       1.18065036
H       -0.02117622       0.81362936       1.21457995
H       -1.82627100       0.49061339      -1.30571905
H       -1.60528603      -0.83776163      -0.12435605
H        1.96003795      -1.02633610       1.91559282
10
Frame=15 idx=002239 GeodesicLength=1.5521956196325941 rxn_smarts="[O:1]([C:2]([C:3](=[O:4])[C:5]#[C:6][H:10])([H:8])[H:9])[H:7]>>[C:3](=[O:4])=[C:5]=[C:6]([H:7])[H:10].[O:1]=[C:2]([H:8])[H:9]"
O       -1.28599583       1.03626724       0.61137448
C       -1.34375185       0.19404447      -0.37172314
C        0.57405067      -0.10200697      -1.10269584
O        0.88456666       0.69730728      -1.92753877
C        1.30540349      -0.67249487      -0.08278046
C        1.37253250      -0.54131177       1.17765950
H       -0.02742787       0.87374352       1.18599876
H       -1.84761040       0.42347564      -1.32074240
H       -1.60363695      -0.83391408      -0.06915847
H        1.97186958      -1.07511046       1.89960634
10
Frame=16 idx=002239 GeodesicLength=1.6574193622902014 rxn_smarts="[O:1]([C:2]([C:3](=[O:4])[C:5]#[C:6][H:10])([H:8])[H:9])[H:7]>>[C:3](=[O:4])=[C:5]=[C:6]([H:7])[H:10].[O:1]=[C:2]([H:8])[H:9]"
O       -1.29738106       1.07741129       0.56579185
C       -1.35546521       0.18519816      -0.37415474
C        0.58194981      -0.09314342      -1.09946060
O        0.90131100       0.75655579      -1.87074998
C        1.30683797      -0.68533322      -0.08727718
C        1.38446971      -0.57369937       1.17418292
H       -0.03408459       0.93943808       1.15286318
H       -1.86674596       0.35208589      -1.33219534
H       -1.59932137      -0.82748887      -0.01168976
H        1.97842968      -1.13102432       1.88268965
