15
Frame=0 idx=008907 GeodesicLength=0.0 rxn_smarts="[C:1]([n:2]1[c:3]([H:11])[c:4]([H:12])[c:5]([H:13])[c:6]1[N:7]([H:14])[H:15])([H:8])([H:9])[H:10]>>[C-:1]([N+:2]1=[C:6]([N:7]([H:14])[H:15])[C:5]([H:13])=[C:4]([H:12])[C:3]1([H:10])[H:11])([H:8])[H:9]"
C       -1.38139646      -1.24936099       0.51196651
N       -0.26823239      -0.57922742      -0.21275615
C        0.94039909      -1.10299252       0.34058247
C        1.87353371      -0.00926667       0.28192633
C        1.24966578       1.08109320      -0.25449184
C       -0.10623759       0.69647328      -0.50757930
N       -1.14142195       1.47345661      -0.88462231
H       -1.86088022      -0.52056418       1.17320671
H       -2.10436020      -1.70050916      -0.16974329
H        0.09045189      -1.58698249       1.20260925
H        1.25852631      -2.04824799      -0.10323602
H        2.91315920      -0.06334421       0.57181296
H        1.65693511       2.06959504      -0.40618020
H       -2.05967525       1.07236117      -0.76465245
H       -1.06046703       2.46751635      -0.77884274
15
Frame=1 idx=008907 GeodesicLength=0.05963943906045752 rxn_smarts="[C:1]([n:2]1[c:3]([H:11])[c:4]([H:12])[c:5]([H:13])[c:6]1[N:7]([H:14])[H:15])([H:8])([H:9])[H:10]>>[C-:1]([N+:2]1=[C:6]([N:7]([H:14])[H:15])[C:5]([H:13])=[C:4]([H:12])[C:3]1([H:10])[H:11])([H:8])[H:9]"
C       -1.38010026      -1.24272907       0.50946381
N       -0.26823956      -0.57616162      -0.20805679
C        0.93994855      -1.09914432       0.34859308
C        1.87607039      -0.00861331       0.28380406
C        1.25329095       1.07941783      -0.26063215
C       -0.10549319       0.70244231      -0.49979849
N       -1.14141282       1.48240481      -0.87830722
H       -1.89704198      -0.51151841       1.13704225
H       -2.06417945      -1.74791196      -0.17345426
H        0.07513180      -1.58182238       1.22260932
H        1.25397708      -2.04782935      -0.09033640
H        2.92103734      -0.07091110       0.55154830
H        1.66862656       2.06035142      -0.43736177
H       -2.06390365       1.08863512      -0.76671614
H       -1.06771176       2.47339003      -0.73839762
15
Frame=2 idx=008907 GeodesicLength=0.11918666862173204 rxn_smarts="[C:1]([n:2]1[c:3]([H:11])[c:4]([H:12])[c:5]([H:13])[c:6]1[N:7]([H:14])[H:15])([H:8])([H:9])[H:10]>>[C-:1]([N+:2]1=[C:6]([N:7]([H:14])[H:15])[C:5]([H:13])=[C:4]([H:12])[C:3]1([H:10])[H:11])([H:8])[H:9]"
C       -1.37890215      -1.23621452       0.50640578
N       -0.26827588      -0.57307768      -0.20372766
C        0.93952076      -1.09534553       0.35606020
C        1.87854004      -0.00796280       0.28560113
C        1.25660856       1.07790475      -0.26615905
C       -0.10482302       0.70857392      -0.49176417
N       -1.14142776       1.49170720      -0.87151120
H       -1.93261166      -0.50429749       1.09884497
H       -2.02275854      -1.79397793      -0.17371474
H        0.05930765      -1.57690368       1.24200166
H        1.24952317      -2.04729936      -0.07813717
H        2.92807811      -0.07846286       0.53215986
H        1.67966413       2.05059071      -0.46822312
H       -2.06819692       1.10594929      -0.76756210
H       -1.07424649       2.47881600      -0.70027439
15
Frame=3 idx=008907 GeodesicLength=0.17861571785918112 rxn_smarts="[C:1]([n:2]1[c:3]([H:11])[c:4]([H:12])[c:5]([H:13])[c:6]1[N:7]([H:14])[H:15])([H:8])([H:9])[H:10]>>[C-:1]([N+:2]1=[C:6]([N:7]([H:14])[H:15])[C:5]([H:13])=[C:4]([H:12])[C:3]1([H:10])[H:11])([H:8])[H:9]"
C       -1.37774982      -1.22978380       0.50286688
N       -0.26831719      -0.57006664      -0.19984786
C        0.93915434      -1.09165454       0.36291629
C        1.88100582      -0.00741073       0.28702779
C        1.25970010       1.07641523      -0.27150657
C       -0.10419124       0.71473723      -0.48372204
N       -1.14146407       1.50123894      -0.86439004
H       -1.96733353      -0.49878350       1.05865153
H       -1.98046292      -1.83834879      -0.17041832
H        0.04304304      -1.57211220       1.26085638
H        1.24514651      -2.04679073      -0.06657729
H        2.93433107      -0.08589821       0.51379428
H        1.68984352       2.04052743      -0.49812840
H       -2.07253217       1.12410268      -0.76747914
H       -1.08017346       2.48382763      -0.66404350
15
Frame=4 idx=008907 GeodesicLength=0.23790893396852236 rxn_smarts="[C:1]([n:2]1[c:3]([H:11])[c:4]([H:12])[c:5]([H:13])[c:6]1[N:7]([H:14])[H:15])([H:8])([H:9])[H:10]>>[C-:1]([N+:2]1=[C:6]([N:7]([H:14])[H:15])[C:5]([H:13])=[C:4]([H:12])[C:3]1([H:10])[H:11])([H:8])[H:9]"
C       -1.37662186      -1.22360058       0.49876902
N       -0.26833678      -0.56715291      -0.19638495
C        0.93886692      -1.08808074       0.36921881
C        1.88342465      -0.00689030       0.28826781
C        1.26251945       1.07502835      -0.27649471
C       -0.10363315       0.72095750      -0.47549684
N       -1.14157867       1.51094183      -0.85685620
H       -2.00108332      -0.49522635       1.01649118
H       -1.93756333      -1.88077536      -0.16392928
H        0.02631201      -1.56756472       1.27917252
H        1.24092558      -2.04627233      -0.05566031
H        2.93984474      -0.09308890       0.49661742
H        1.69931770       2.02998311      -0.52777801
H       -2.07696389       1.14312734      -0.76608731
H       -1.08543008       2.48861404      -0.62984914
15
Frame=5 idx=008907 GeodesicLength=0.297038503645938 rxn_smarts="[C:1]([n:2]1[c:3]([H:11])[c:4]([H:12])[c:5]([H:13])[c:6]1[N:7]([H:14])[H:15])([H:8])([H:9])[H:10]>>[C-:1]([N+:2]1=[C:6]([N:7]([H:14])[H:15])[C:5]([H:13])=[C:4]([H:12])[C:3]1([H:10])[H:11])([H:8])[H:9]"
C       -1.37548103      -1.21722513       0.49462846
N       -0.26834375      -0.56457040      -0.19357655
C        0.93872783      -1.08478753       0.37463842
C        1.88604150      -0.00675501       0.28828199
C        1.26533498       1.07325463      -0.28241784
C       -0.10294997       0.72678984      -0.46816685
N       -1.14163936       1.52046543      -0.84964894
H       -2.03338712      -0.49272340       0.97267116
H       -1.89480654      -1.92086207      -0.15325971
H        0.00932814      -1.56277351       1.29715099
H        1.23664713      -2.04615872      -0.04535890
H        2.94489102      -0.10019823       0.48005039
H        1.70725030       2.02049196      -0.55319753
H       -2.08133198       1.16235294      -0.76477822
H       -1.09028116       2.49269921      -0.59701686
15
Frame=6 idx=008907 GeodesicLength=0.35601341970681705 rxn_smarts="[C:1]([n:2]1[c:3]([H:11])[c:4]([H:12])[c:5]([H:13])[c:6]1[N:7]([H:14])[H:15])([H:8])([H:9])[H:10]>>[C-:1]([N+:2]1=[C:6]([N:7]([H:14])[H:15])[C:5]([H:13])=[C:4]([H:12])[C:3]1([H:10])[H:11])([H:8])[H:9]"
C       -1.37438095      -1.21138515       0.48990971
N       -0.26829214      -0.56214685      -0.19107899
C        0.93873418      -1.08166750       0.37956517
C        1.88860225      -0.00653465       0.28841588
C        1.26782562       1.07177044      -0.28755090
C       -0.10239698       0.73272734      -0.46030035
N       -1.14190664       1.52997309      -0.84198194
H       -2.06449350      -0.49255292       0.92716722
H       -1.85213311      -1.95861870      -0.14018301
H       -0.00816054      -1.55849062       1.31459221
H        1.23268600      -2.04603333      -0.03583216
H        2.94940440      -0.10685161       0.46484902
H        1.71476903       2.01040757      -0.57925912
H       -2.08595648       1.18246876      -0.76136104
H       -1.09430115       2.49693414      -0.56695170
15
Frame=7 idx=008907 GeodesicLength=0.4147418682352086 rxn_smarts="[C:1]([n:2]1[c:3]([H:11])[c:4]([H:12])[c:5]([H:13])[c:6]1[N:7]([H:14])[H:15])([H:8])([H:9])[H:10]>>[C-:1]([N+:2]1=[C:6]([N:7]([H:14])[H:15])[C:5]([H:13])=[C:4]([H:12])[C:3]1([H:10])[H:11])([H:8])[H:9]"
C       -1.37307652      -1.20499046       0.48560272
N       -0.26819882      -0.56023779      -0.18935119
C        0.93895292      -1.07899159       0.38339703
C        1.89140579      -0.00702271       0.28671806
C        1.27030886       1.06952789      -0.29425929
C       -0.10161235       0.73788840      -0.45414965
N       -1.14207935       1.53892181      -0.83524406
H       -2.09346401      -0.49276452       0.88040504
H       -1.81048404      -1.99330251      -0.12249876
H       -0.02560067      -1.55363364       1.33188180
H        1.22851754      -2.04656607      -0.02689990
H        2.95365337      -0.11371793       0.44953738
H        1.72030276       2.00279345      -0.59822919
H       -2.09036026       1.20211636      -0.75919954
H       -1.09826522       2.49997929      -0.53771045
15
Frame=8 idx=008907 GeodesicLength=0.47316541494228415 rxn_smarts="[C:1]([n:2]1[c:3]([H:11])[c:4]([H:12])[c:5]([H:13])[c:6]1[N:7]([H:14])[H:15])([H:8])([H:9])[H:10]>>[C-:1]([N+:2]1=[C:6]([N:7]([H:14])[H:15])[C:5]([H:13])=[C:4]([H:12])[C:3]1([H:10])[H:11])([H:8])[H:9]"
C       -1.37185497      -1.19942417       0.48045015
N       -0.26800907      -0.55845337      -0.18777454
C        0.93934770      -1.07635564       0.38702921
C        1.89413369      -0.00722233       0.28560268
C        1.27246699       1.06765686      -0.29990209
C       -0.10105037       0.74321861      -0.44695987
N       -1.14265283       1.54773931      -0.82762945
H       -2.12122570      -0.49583071       0.83194103
H       -1.76927018      -2.02549396      -0.10386069
H       -0.04370678      -1.54921531       1.34872391
H        1.22481832      -2.04689328      -0.01845369
H        2.95753021      -0.11989236       0.43588247
H        1.72592923       1.99389448      -0.61987133
H       -2.09523621       1.22272905      -0.75379470
H       -1.10122002       2.50354282      -0.51138308
15
Frame=9 idx=008907 GeodesicLength=0.531361223777051 rxn_smarts="[C:1]([n:2]1[c:3]([H:11])[c:4]([H:12])[c:5]([H:13])[c:6]1[N:7]([H:14])[H:15])([H:8])([H:9])[H:10]>>[C-:1]([N+:2]1=[C:6]([N:7]([H:14])[H:15])[C:5]([H:13])=[C:4]([H:12])[C:3]1([H:10])[H:11])([H:8])[H:9]"
C       -1.37033451      -1.19354605       0.47570065
N       -0.26773661      -0.55716938      -0.18679096
C        0.93997287      -1.07420495       0.38966580
C        1.89695058      -0.00802413       0.28309909
C        1.27441971       1.06523009      -0.30650169
C       -0.10035315       0.74786913      -0.44107846
N       -1.14328377       1.55587354      -0.82080722
H       -2.14655093      -0.49964203       0.78260195
H       -1.72948958      -2.05440176      -0.08168298
H       -0.06174860      -1.54452243       1.36541617
H        1.22102855      -2.04777558      -0.01073490
H        2.96112971      -0.12617251       0.42225085
H        1.72988393       1.98720749      -0.63565952
H       -2.09999693       1.24299341      -0.74864840
H       -1.10389127       2.50628515      -0.48683036
15
Frame=10 idx=008907 GeodesicLength=0.589413561942653 rxn_smarts="[C:1]([n:2]1[c:3]([H:11])[c:4]([H:12])[c:5]([H:13])[c:6]1[N:7]([H:14])[H:15])([H:8])([H:9])[H:10]>>[C-:1]([N+:2]1=[C:6]([N:7]([H:14])[H:15])[C:5]([H:13])=[C:4]([H:12])[C:3]1([H:10])[H:11])([H:8])[H:9]"
C       -1.36883551      -1.18801417       0.47078266
N       -0.26735546      -0.55627629      -0.18616764
C        0.94082279      -1.07231064       0.39186018
C        1.89988163      -0.00890494       0.28018285
C        1.27625853       1.06273997      -0.31328406
C       -0.09964788       0.75224405      -0.43548813
N       -1.14417332       1.56363219      -0.81388199
H       -2.17018433      -0.50527993       0.73195785
H       -1.69095540      -2.08068864      -0.05776611
H       -0.08028401      -1.53967793       1.38210182
H        1.21747729      -2.04898240      -0.00332162
H        2.96465477      -0.13212121       0.40918808
H        1.73330827       1.98118646      -0.65004647
H       -2.10497476       1.26344500      -0.74206026
H       -1.10599262       2.50900848      -0.46405716
15
Frame=11 idx=008907 GeodesicLength=0.6471521171887676 rxn_smarts="[C:1]([n:2]1[c:3]([H:11])[c:4]([H:12])[c:5]([H:13])[c:6]1[N:7]([H:14])[H:15])([H:8])([H:9])[H:10]>>[C-:1]([N+:2]1=[C:6]([N:7]([H:14])[H:15])[C:5]([H:13])=[C:4]([H:12])[C:3]1([H:10])[H:11])([H:8])[H:9]"
C       -1.36727727      -1.18280415       0.46539500
N       -0.26683127      -0.55568402      -0.18588962
C        0.94183731      -1.07045963       0.39385854
C        1.90281138      -0.00977634       0.27708420
C        1.27790741       1.06009285      -0.32023349
C       -0.09897088       0.75630843      -0.43009367
N       -1.14537142       1.57101769      -0.80646331
H       -2.19204497      -0.51296074       0.67954535
H       -1.65345411      -2.10432713      -0.03275111
H       -0.09943736      -1.53430632       1.39881291
H        1.21413204      -2.05022902       0.00425348
H        2.96799900      -0.13773803       0.39672274
H        1.73630335       1.97514735      -0.66426335
H       -2.11013946       1.28409984      -0.73358543
H       -1.10746373       2.51161922      -0.44239224
15
Frame=12 idx=008907 GeodesicLength=0.7048261149434331 rxn_smarts="[C:1]([n:2]1[c:3]([H:11])[c:4]([H:12])[c:5]([H:13])[c:6]1[N:7]([H:14])[H:15])([H:8])([H:9])[H:10]>>[C-:1]([N+:2]1=[C:6]([N:7]([H:14])[H:15])[C:5]([H:13])=[C:4]([H:12])[C:3]1([H:10])[H:11])([H:8])[H:9]"
C       -1.36566657      -1.17780220       0.45961634
N       -0.26611591      -0.55552171      -0.18612059
C        0.94299717      -1.06870602       0.39571945
C        1.90577001      -0.01070117       0.27353066
C        1.27944359       1.05718484      -0.32788600
C       -0.09821276       0.75994517      -0.42554904
N       -1.14681339       1.57818562      -0.79859545
H       -2.21209951      -0.52248499       0.62500947
H       -1.61704632      -2.12559935      -0.00630114
H       -0.11936467      -1.52800339       1.41583020
H        1.21097282      -2.05179399       0.01236413
H        2.97123025      -0.14313194       0.38446233
H        1.73876869       1.96960761      -0.67757023
H       -2.11537288       1.30486463      -0.72374251
H       -1.10849052       2.51395687      -0.42076762
15
Frame=13 idx=008907 GeodesicLength=0.7623048877037754 rxn_smarts="[C:1]([n:2]1[c:3]([H:11])[c:4]([H:12])[c:5]([H:13])[c:6]1[N:7]([H:14])[H:15])([H:8])([H:9])[H:10]>>[C-:1]([N+:2]1=[C:6]([N:7]([H:14])[H:15])[C:5]([H:13])=[C:4]([H:12])[C:3]1([H:10])[H:11])([H:8])[H:9]"
C       -1.36403102      -1.17302129       0.45351577
N       -0.26523392      -0.55576705      -0.18677635
C        0.94433380      -1.06705219       0.39738292
C        1.90875069      -0.01165760       0.26961709
C        1.28084478       1.05402943      -0.33608585
C       -0.09742975       0.76314303      -0.42171092
N       -1.14861055       1.58493951      -0.79033212
H       -2.23004561      -0.53385470       0.56888217
H       -1.58198541      -2.14433165       0.02104062
H       -0.14004975      -1.52093602       1.43299749
H        1.20802617      -2.05356092       0.02079480
H        2.97435744      -0.14820435       0.37270569
H        1.74076091       1.96447840      -0.69008543
H       -2.12077090       1.32567212      -0.71198800
H       -1.10891687       2.51612328      -0.39995788
15
Frame=14 idx=008907 GeodesicLength=0.8196283305927229 rxn_smarts="[C:1]([n:2]1[c:3]([H:11])[c:4]([H:12])[c:5]([H:13])[c:6]1[N:7]([H:14])[H:15])([H:8])([H:9])[H:10]>>[C-:1]([N+:2]1=[C:6]([N:7]([H:14])[H:15])[C:5]([H:13])=[C:4]([H:12])[C:3]1([H:10])[H:11])([H:8])[H:9]"
C       -1.36236927      -1.16836493       0.44700209
N       -0.26416072      -0.55647473      -0.18798982
C        0.94578823      -1.06541932       0.39896404
C        1.91172317      -0.01263139       0.26523863
C        1.28213702       1.05051666      -0.34518813
C       -0.09656359       0.76579195      -0.41902662
N       -1.15072212       1.59134283      -0.78154631
H       -2.24576225      -0.54704101       0.51077329
H       -1.54824629      -2.16069473       0.04932427
H       -0.16166669      -1.51264497       1.45046496
H        1.20521336      -2.05554864       0.02994562
H        2.97736151      -0.15299854       0.36120920
H        1.74225309       1.95986052      -0.70168944
H       -2.12621637       1.34642229      -0.69842424
H       -1.10876908       2.51788401      -0.37905755
15
Frame=15 idx=008907 GeodesicLength=0.8768661659588695 rxn_smarts="[C:1]([n:2]1[c:3]([H:11])[c:4]([H:12])[c:5]([H:13])[c:6]1[N:7]([H:14])[H:15])([H:8])([H:9])[H:10]>>[C-:1]([N+:2]1=[C:6]([N:7]([H:14])[H:15])[C:5]([H:13])=[C:4]([H:12])[C:3]1([H:10])[H:11])([H:8])[H:9]"
C       -1.36076370      -1.16389869       0.43983361
N       -0.26286039      -0.55767955      -0.18984413
C        0.94733253      -1.06371135       0.40066256
C        1.91468191      -0.01351958       0.26050606
C        1.28336043       1.04664683      -0.35534961
C       -0.09561199       0.76787483      -0.41770359
N       -1.15320799       1.59751320      -0.77195914
H       -2.25923528      -0.56226886       0.45028515
H       -1.51574368      -2.17492566       0.07826667
H       -0.18453602      -1.50283073       1.46826829
H        1.20260344      -2.05773062       0.04025972
H        2.98027802      -0.15745441       0.35003583
H        1.74340443       1.95549459      -0.71318331
H       -2.13173996       1.36721046      -0.68252043
H       -1.10796176       2.51927952      -0.35755768
15
Frame=16 idx=008907 GeodesicLength=0.9339945032206524 rxn_smarts="[C:1]([n:2]1[c:3]([H:11])[c:4]([H:12])[c:5]([H:13])[c:6]1[N:7]([H:14])[H:15])([H:8])([H:9])[H:10]>>[C-:1]([N+:2]1=[C:6]([N:7]([H:14])[H:15])[C:5]([H:13])=[C:4]([H:12])[C:3]1([H:10])[H:11])([H:8])[H:9]"
C       -1.35922209      -1.15966370       0.43170154
N       -0.26129548      -0.55936583      -0.19240107
C        0.94890087      -1.06177033       0.40268457
C        1.91751892      -0.01418991       0.25563749
C        1.28445606       1.04240366      -0.36657456
C       -0.09460786       0.76936647      -0.41784588
N       -1.15612527       1.60345603      -0.76124155
H       -2.27023922      -0.57974756       0.38708475
H       -1.48433690      -2.18709316       0.10740365
H       -0.20895959      -1.49124546       1.48631681
H        1.20021755      -2.05991985       0.05211535
H        2.98298986      -0.16146270       0.33938980
H        1.74427505       1.95085630      -0.72563412
H       -2.13729538       1.38808462      -0.66345262
H       -1.10627652       2.52029144      -0.33518413
