11
Frame=0 idx=009183 GeodesicLength=0.0 rxn_smarts="[O:1]=[c:2]1[c:3]([H:8])[c:4]([H:9])[n:5]([H:10])[c:6]([H:11])[n:7]1>>[O:1]=[C:2]1[C:3]([H:8])([H:10])[C:4]([H:9])=[N:5][C:6]([H:11])=[N:7]1"
O        2.37870698      -1.07060292       0.25304310
C        1.23685689      -0.70830150       0.07241831
C        0.89020651       0.69174784      -0.16710396
C       -0.44419295       1.07529937      -0.21150452
N       -1.50358605       0.14234781      -0.12006009
C       -1.06711450      -1.12921403      -0.01999802
N        0.15333000      -1.58332613       0.03475005
H        1.68462865       1.42089973      -0.27065492
H       -0.73730567       2.07950458      -0.50212581
H       -0.72369007       0.94684629       0.92518768
H       -1.86783978      -1.86520103       0.00604820
11
Frame=1 idx=009183 GeodesicLength=0.09281643047418774 rxn_smarts="[O:1]=[c:2]1[c:3]([H:8])[c:4]([H:9])[n:5]([H:10])[c:6]([H:11])[n:7]1>>[O:1]=[C:2]1[C:3]([H:8])([H:10])[C:4]([H:9])=[N:5][C:6]([H:11])=[N:7]1"
O        2.37822138      -1.07527639       0.23426134
C        1.23535590      -0.70826915       0.07418520
C        0.88838285       0.69865490      -0.12955107
C       -0.44570663       1.07486312      -0.23300521
N       -1.49666531       0.14414692      -0.12513109
C       -1.06480448      -1.13164220      -0.02854385
N        0.15384357      -1.58635936       0.01579239
H        1.68397021       1.42298015      -0.25431795
H       -0.73636942       2.07989208      -0.52242086
H       -0.72772865       0.94298559       0.93281322
H       -1.86849940      -1.86197567       0.03591788
11
Frame=2 idx=009183 GeodesicLength=0.1856468742304207 rxn_smarts="[O:1]=[c:2]1[c:3]([H:8])[c:4]([H:9])[n:5]([H:10])[c:6]([H:11])[n:7]1>>[O:1]=[C:2]1[C:3]([H:8])([H:10])[C:4]([H:9])=[N:5][C:6]([H:11])=[N:7]1"
O        2.37750514      -1.07874710       0.21443869
C        1.23367472      -0.70813608       0.07473636
C        0.88535830       0.70475757      -0.09320313
C       -0.44616621       1.07378652      -0.25516505
N       -1.48943108       0.14625838      -0.12986042
C       -1.06272490      -1.13398504      -0.03656929
N        0.15413968      -1.58912304      -0.00126370
H        1.68210774       1.42448774      -0.23582027
H       -0.73442357       2.07967458      -0.54328267
H       -0.73172928       0.93900338       0.94103449
H       -1.86831053      -1.85797692       0.06495500
11
Frame=3 idx=009183 GeodesicLength=0.2784992648033706 rxn_smarts="[O:1]=[c:2]1[c:3]([H:8])[c:4]([H:9])[n:5]([H:10])[c:6]([H:11])[n:7]1>>[O:1]=[C:2]1[C:3]([H:8])([H:10])[C:4]([H:9])=[N:5][C:6]([H:11])=[N:7]1"
O        2.37660869      -1.08106998       0.19312978
C        1.23183049      -0.70794659       0.07383523
C        0.88116566       0.70986899      -0.05952492
C       -0.44569227       1.07197298      -0.27845880
N       -1.48192096       0.14866774      -0.13390142
C       -1.06094597      -1.13626964      -0.04372794
N        0.15412305      -1.59178716      -0.01596333
H        1.67917172       1.42606387      -0.21312802
H       -0.73168061       2.07875840      -0.56509239
H       -0.73509493       0.93499865       0.94968351
H       -1.86756487      -1.85325726       0.09314830
11
Frame=4 idx=009183 GeodesicLength=0.3713730220178888 rxn_smarts="[O:1]=[c:2]1[c:3]([H:8])[c:4]([H:9])[n:5]([H:10])[c:6]([H:11])[n:7]1>>[O:1]=[C:2]1[C:3]([H:8])([H:10])[C:4]([H:9])=[N:5][C:6]([H:11])=[N:7]1"
O        2.37556212      -1.08226785       0.17039814
C        1.22983044      -0.70766354       0.07205059
C        0.87589522       0.71405730      -0.02849188
C       -0.44434744       1.06943878      -0.30282417
N       -1.47410133       0.15138371      -0.13731420
C       -1.05945041      -1.13849952      -0.05025109
N        0.15380362      -1.59443077      -0.02825161
H        1.67531466       1.42779971      -0.18700462
H       -0.72821151       2.07722087      -0.58756237
H       -0.73785950       0.93079220       0.95892540
H       -1.86643587      -1.84783089       0.12032581
11
Frame=5 idx=009183 GeodesicLength=0.4642725766736056 rxn_smarts="[O:1]=[c:2]1[c:3]([H:8])[c:4]([H:9])[n:5]([H:10])[c:6]([H:11])[n:7]1>>[O:1]=[C:2]1[C:3]([H:8])([H:10])[C:4]([H:9])=[N:5][C:6]([H:11])=[N:7]1"
O        2.37434514      -1.08232649       0.14672800
C        1.22768322      -0.70722941       0.07006066
C        0.86965939       0.71748836       0.00022260
C       -0.44217682       1.06623211      -0.32802940
N       -1.46592765       0.15444314      -0.14004001
C       -1.05818735      -1.14064088      -0.05629623
N        0.15323151      -1.59706801      -0.03826559
H        1.67062960       1.42953218      -0.15914687
H       -0.72409944       2.07516002      -0.61024338
H       -0.74008656       0.92618030       0.96909398
H       -1.86507103      -1.84177131       0.14591625
11
Frame=6 idx=009183 GeodesicLength=0.5572066812005668 rxn_smarts="[O:1]=[c:2]1[c:3]([H:8])[c:4]([H:9])[n:5]([H:10])[c:6]([H:11])[n:7]1>>[O:1]=[C:2]1[C:3]([H:8])([H:10])[C:4]([H:9])=[N:5][C:6]([H:11])=[N:7]1"
O        2.37289773      -1.08125547       0.12284080
C        1.22540091      -0.70660927       0.06828396
C        0.86257416       0.72033726       0.02680359
C       -0.43923865       1.06240441      -0.35389405
N       -1.45736254       0.15789697      -0.14196541
C       -1.05711241      -1.14264924      -0.06201878
N        0.15245775      -1.59967909      -0.04637010
H        1.66519398       1.43112078      -0.13099461
H       -0.71946718       2.07266829      -0.63275796
H       -0.74174574       0.92092691       0.98051156
H       -1.86359802      -1.83516155       0.16956099
11
Frame=7 idx=009183 GeodesicLength=0.6501697763996239 rxn_smarts="[O:1]=[c:2]1[c:3]([H:8])[c:4]([H:9])[n:5]([H:10])[c:6]([H:11])[n:7]1>>[O:1]=[C:2]1[C:3]([H:8])([H:10])[C:4]([H:9])=[N:5][C:6]([H:11])=[N:7]1"
O        2.37117814      -1.07911916       0.09914131
C        1.22298911      -0.70578675       0.06707419
C        0.85473289       0.72276844       0.05141879
C       -0.43558379       1.05798337      -0.38033091
N       -1.44836382       0.16179664      -0.14304082
C       -1.05619663      -1.14448088      -0.06755513
N        0.15152829      -1.60222814      -0.05292721
H        1.65907387       1.43251431      -0.10340987
H       -0.71440968       2.06978027      -0.65494567
H       -0.74282876       0.91483853       0.99341509
H       -1.86211963      -1.82806664       0.19116024
11
Frame=8 idx=009183 GeodesicLength=0.7431854377709782 rxn_smarts="[O:1]=[c:2]1[c:3]([H:8])[c:4]([H:9])[n:5]([H:10])[c:6]([H:11])[n:7]1>>[O:1]=[C:2]1[C:3]([H:8])([H:10])[C:4]([H:9])=[N:5][C:6]([H:11])=[N:7]1"
O        2.36915336      -1.07601522       0.07620382
C        1.22046781      -0.70476667       0.06649892
C        0.84622760       0.72493500       0.07413058
C       -0.43129415       1.05299877      -0.40728406
N       -1.43890899       0.16621186      -0.14315817
C       -1.05542257      -1.14608405      -0.07301245
N        0.15046629      -1.60468037      -0.05832507
H        1.65233933       1.43371201      -0.07705429
H       -0.70906756       2.06652363      -0.67672583
H       -0.74324571       0.90771185       1.00806369
H       -1.86071540      -1.82054681       0.21066286
11
Frame=9 idx=009183 GeodesicLength=0.8361219038041303 rxn_smarts="[O:1]=[c:2]1[c:3]([H:8])[c:4]([H:9])[n:5]([H:10])[c:6]([H:11])[n:7]1>>[O:1]=[C:2]1[C:3]([H:8])([H:10])[C:4]([H:9])=[N:5][C:6]([H:11])=[N:7]1"
O        2.36675607      -1.07199911       0.05440709
C        1.21781022      -0.70350357       0.06655172
C        0.83710158       0.72699957       0.09498813
C       -0.42641924       1.04745757      -0.43470345
N       -1.42890352       0.17116222      -0.14218578
C       -1.05477698      -1.14737740      -0.07839493
N        0.14927269      -1.60697925      -0.06274397
H        1.64500288       1.43479120      -0.05238663
H       -0.70345813       2.06284140      -0.69810827
H       -0.74286375       0.89924156       1.02463723
H       -1.85952182      -1.81263420       0.22793885
11
Frame=10 idx=009183 GeodesicLength=0.9290224090146679 rxn_smarts="[O:1]=[c:2]1[c:3]([H:8])[c:4]([H:9])[n:5]([H:10])[c:6]([H:11])[n:7]1>>[O:1]=[C:2]1[C:3]([H:8])([H:10])[C:4]([H:9])=[N:5][C:6]([H:11])=[N:7]1"
O        2.36398488      -1.06718682       0.03432050
C        1.21500546      -0.70194823       0.06710892
C        0.82743885       0.72912063       0.11398439
C       -0.42104019       1.04133928      -0.46254382
N       -1.41833134       0.17673296      -0.13997090
C       -1.05429309      -1.14828902      -0.08385808
N        0.14792467      -1.60906123      -0.06652569
H        1.63714570       1.43582849      -0.02982103
H       -0.69767847       2.05864340      -0.71914023
H       -0.74155994       0.88919141       1.04343856
H       -1.85859654      -1.80437087       0.24300738
11
Frame=11 idx=009183 GeodesicLength=1.0219874265340962 rxn_smarts="[O:1]=[c:2]1[c:3]([H:8])[c:4]([H:9])[n:5]([H:10])[c:6]([H:11])[n:7]1>>[O:1]=[C:2]1[C:3]([H:8])([H:10])[C:4]([H:9])=[N:5][C:6]([H:11])=[N:7]1"
O        2.36093697      -1.06172207       0.01593590
C        1.21212200      -0.70013667       0.06811906
C        0.81729283       0.73137562       0.13128650
C       -0.41528238       1.03468909      -0.49084632
N       -1.40719354       0.18303356      -0.13652487
C       -1.05394859      -1.14875708      -0.08938988
N        0.14642667      -1.61089097      -0.06975225
H        1.62882107       1.43689035      -0.00927628
H       -0.69186504       2.05397732      -0.74018277
H       -0.73928913       0.87727786       1.06467752
H       -1.85802086      -1.79573703       0.25595339
11
Frame=12 idx=009183 GeodesicLength=1.1149969066494145 rxn_smarts="[O:1]=[c:2]1[c:3]([H:8])[c:4]([H:9])[n:5]([H:10])[c:6]([H:11])[n:7]1>>[O:1]=[C:2]1[C:3]([H:8])([H:10])[C:4]([H:9])=[N:5][C:6]([H:11])=[N:7]1"
O        2.35755625      -1.05560391      -0.00115209
C        1.20910836      -0.69800625       0.06966633
C        0.80665230       0.73388330       0.14713470
C       -0.40912047       1.02743642      -0.51961595
N       -1.39539049       0.19011225      -0.13189558
C       -1.05374919      -1.14871333      -0.09501046
N        0.14472200      -1.61240632      -0.07242237
H        1.62000205       1.43812006       0.00953403
H       -0.68586911       2.04866690      -0.76168585
H       -0.73608204       0.86315627       1.08848957
H       -1.85782967      -1.78664539       0.26695767
11
Frame=13 idx=009183 GeodesicLength=1.2080275275452468 rxn_smarts="[O:1]=[c:2]1[c:3]([H:8])[c:4]([H:9])[n:5]([H:10])[c:6]([H:11])[n:7]1>>[O:1]=[C:2]1[C:3]([H:8])([H:10])[C:4]([H:9])=[N:5][C:6]([H:11])=[N:7]1"
O        2.35391384      -1.04893022      -0.01651648
C        1.20597643      -0.69552378       0.07156271
C        0.79552391       0.73676712       0.16154244
C       -0.40267485       1.01960544      -0.54881215
N       -1.38287222       0.19806720      -0.12595134
C       -1.05372998      -1.14804477      -0.10078175
N        0.14282567      -1.61357214      -0.07470543
H        1.61069145       1.43961075       0.02637927
H       -0.67974973       2.04268148      -0.78385097
H       -0.73176397       0.84639254       1.11511320
H       -1.85814056      -1.77705360       0.27602052
11
Frame=14 idx=009183 GeodesicLength=1.3010666374234299 rxn_smarts="[O:1]=[c:2]1[c:3]([H:8])[c:4]([H:9])[n:5]([H:10])[c:6]([H:11])[n:7]1>>[O:1]=[C:2]1[C:3]([H:8])([H:10])[C:4]([H:9])=[N:5][C:6]([H:11])=[N:7]1"
O        2.34995226      -1.04162398      -0.03056263
C        1.20268382      -0.69259491       0.07390628
C        0.78389197       0.74011916       0.17474852
C       -0.39594574       1.01107553      -0.57840826
N       -1.36954292       0.20696353      -0.11874080
C       -1.05391017      -1.14667204      -0.10667846
N        0.14065912      -1.61426892      -0.07653745
H        1.60085471       1.44146688       0.04154306
H       -0.67337465       2.03582465      -0.80714823
H       -0.72624804       0.82654749       1.14464064
H       -1.85902037      -1.76683740       0.28323734
11
Frame=15 idx=009183 GeodesicLength=1.3940763776286407 rxn_smarts="[O:1]=[c:2]1[c:3]([H:8])[c:4]([H:9])[n:5]([H:10])[c:6]([H:11])[n:7]1>>[O:1]=[C:2]1[C:3]([H:8])([H:10])[C:4]([H:9])=[N:5][C:6]([H:11])=[N:7]1"
O        2.34569635      -1.03370965      -0.04299923
C        1.19920403      -0.68915413       0.07654774
C        0.77174162       0.74403918       0.18680063
C       -0.38900006       1.00186211      -0.60833742
N       -1.35533086       0.21688916      -0.11019199
C       -1.05431163      -1.14447492      -0.11270186
N        0.13819139      -1.61442361      -0.07805716
H        1.59048594       1.44377068       0.05489009
H       -0.66672451       2.02806588      -0.83179997
H       -0.71940775       0.80304896       1.17714757
H       -1.86054450      -1.75591365       0.28870160
11
Frame=16 idx=009183 GeodesicLength=1.4871203992490758 rxn_smarts="[O:1]=[c:2]1[c:3]([H:8])[c:4]([H:9])[n:5]([H:10])[c:6]([H:11])[n:7]1>>[O:1]=[C:2]1[C:3]([H:8])([H:10])[C:4]([H:9])=[N:5][C:6]([H:11])=[N:7]1"
O        2.34120261      -1.02523179      -0.05399369
C        1.19555836      -0.68518688       0.07950850
C        0.75904499       0.74862417       0.19789905
C       -0.38191235       0.99192868      -0.63855335
N       -1.34019014       0.22793537      -0.10039095
C       -1.05496354      -1.14136152      -0.11881865
N        0.13542106      -1.61402876      -0.07930030
H        1.57954508       1.44662966       0.06661454
H       -0.65978833       2.01934342      -0.85813837
H       -0.71115197       0.77547264       1.21258723
H       -1.86276577      -1.74412499       0.29258599
