14
Frame=0 idx=010158 GeodesicLength=0.0 rxn_smarts="[N:1]([C:2](=[O:3])[C:4]([C@@:5]1([H:12])[C:6]([H:13])([H:14])[O:7]1)([H:10])[H:11])([H:8])[H:9]>>[N:1]([C:2](=[O:3])[C:4]([C:5](=[O+:7][C-:6]([H:13])[H:14])[H:12])([H:10])[H:11])([H:8])[H:9]"
N        1.95107673       0.69156331       1.44370270
C        0.70802409       0.50617169       0.93031148
O       -0.16617708       1.33854732       1.02328016
C        0.49487151      -0.84819835       0.24228510
C       -0.76565902      -0.92903092      -0.52067132
C       -1.88803093       0.43733124      -1.67743543
O       -0.78960528      -0.31904443      -1.71639461
H        2.15640749       1.56059064       1.90314220
H        2.68079431       0.01475860       1.32798038
H        0.52536590      -1.62580443       1.01013937
H        1.33408091      -1.02534458      -0.44209184
H       -1.70299457      -1.30809001      -0.14469421
H       -2.04989891       1.04426633      -0.80313813
H       -2.48825512       0.46228359      -2.57641587
14
Frame=1 idx=010158 GeodesicLength=0.05072995714711471 rxn_smarts="[N:1]([C:2](=[O:3])[C:4]([C@@:5]1([H:12])[C:6]([H:13])([H:14])[O:7]1)([H:10])[H:11])([H:8])[H:9]>>[N:1]([C:2](=[O:3])[C:4]([C:5](=[O+:7][C-:6]([H:13])[H:14])[H:12])([H:10])[H:11])([H:8])[H:9]"
N        1.95305494       0.68823731       1.44877342
C        0.70790996       0.50789085       0.93819695
O       -0.17270699       1.32902129       1.06450608
C        0.49396232      -0.83738678       0.23403597
C       -0.77813641      -0.91337460      -0.51140635
C       -1.88250829       0.42208405      -1.68479420
O       -0.79788696      -0.35444253      -1.73161553
H        2.15908440       1.55102683       1.91955172
H        2.68301285       0.01363112       1.32211642
H        0.53903229      -1.62647776       0.98958113
H        1.32717137      -1.00111564      -0.46054135
H       -1.70883593      -1.28838867      -0.11504076
H       -2.03146764       1.06711044      -0.83544925
H       -2.49168590       0.44218409      -2.57791424
14
Frame=2 idx=010158 GeodesicLength=0.10048549433519241 rxn_smarts="[N:1]([C:2](=[O:3])[C:4]([C@@:5]1([H:12])[C:6]([H:13])([H:14])[O:7]1)([H:10])[H:11])([H:8])[H:9]>>[N:1]([C:2](=[O:3])[C:4]([C:5](=[O+:7][C-:6]([H:13])[H:14])[H:12])([H:10])[H:11])([H:8])[H:9]"
N        1.95467585       0.68469776       1.45430757
C        0.70743838       0.50942186       0.94659042
O       -0.17850529       1.31939463       1.10401782
C        0.49293308      -0.82620672       0.22561552
C       -0.79027199      -0.89778216      -0.50254547
C       -1.87665787       0.40716424      -1.69156717
O       -0.80764466      -0.39133295      -1.74528496
H        2.16151572       1.54107389       1.93627633
H        2.68498481       0.01268651       1.31623504
H        0.55252326      -1.62683095       0.96813549
H        1.32003009      -0.97572762      -0.47901773
H       -1.71399794      -1.26816085      -0.08555129
H       -2.01207862       1.08892733      -0.86864018
H       -2.49494482       0.42267503      -2.57857140
14
Frame=3 idx=010158 GeodesicLength=0.14941982342351812 rxn_smarts="[N:1]([C:2](=[O:3])[C:4]([C@@:5]1([H:12])[C:6]([H:13])([H:14])[O:7]1)([H:10])[H:11])([H:8])[H:9]>>[N:1]([C:2](=[O:3])[C:4]([C:5](=[O+:7][C-:6]([H:13])[H:14])[H:12])([H:10])[H:11])([H:8])[H:9]"
N        1.95622171       0.68106495       1.46000969
C        0.70681631       0.51096585       0.95533326
O       -0.18341418       1.31002185       1.14167891
C        0.49181577      -0.81452047       0.21695137
C       -0.80223470      -0.88218176      -0.49385269
C       -1.87056925       0.39235595      -1.69802509
O       -0.81925160      -0.42987172      -1.75716815
H        2.16330580       1.52971846       1.95527578
H        2.68709350       0.01223138       1.30954592
H        0.56603963      -1.62674032       0.94573232
H        1.31255664      -0.94901640      -0.49782859
H       -1.71864454      -1.24704356      -0.05577543
H       -1.99153112       1.10983186      -0.90326240
H       -2.49820398       0.40318394      -2.57861491
14
Frame=4 idx=010158 GeodesicLength=0.19796718655747178 rxn_smarts="[N:1]([C:2](=[O:3])[C:4]([C@@:5]1([H:12])[C:6]([H:13])([H:14])[O:7]1)([H:10])[H:11])([H:8])[H:9]>>[N:1]([C:2](=[O:3])[C:4]([C:5](=[O+:7][C-:6]([H:13])[H:14])[H:12])([H:10])[H:11])([H:8])[H:9]"
N        1.95790346       0.67737452       1.46549987
C        0.70623548       0.51250116       0.96426942
O       -0.18725838       1.30111844       1.17754151
C        0.49056781      -0.80210609       0.20800411
C       -0.81406657      -0.86633607      -0.48531215
C       -1.86425343       0.37748595      -1.70437675
O       -0.83240494      -0.46987618      -1.76722067
H        2.16441923       1.51610144       1.97757953
H        2.68934953       0.01230947       1.30188401
H        0.57964174      -1.62577722       0.92230948
H        1.30438550      -0.92078799      -0.51696946
H       -1.72274579      -1.22461898      -0.02570899
H       -1.96996944       1.12966723      -0.93951900
H       -2.50180420       0.38294433      -2.57798093
14
Frame=5 idx=010158 GeodesicLength=0.24596991993557493 rxn_smarts="[N:1]([C:2](=[O:3])[C:4]([C@@:5]1([H:12])[C:6]([H:13])([H:14])[O:7]1)([H:10])[H:11])([H:8])[H:9]>>[N:1]([C:2](=[O:3])[C:4]([C:5](=[O+:7][C-:6]([H:13])[H:14])[H:12])([H:10])[H:11])([H:8])[H:9]"
N        1.95984376       0.67376890       1.47073237
C        0.70573315       0.51410057       0.97345950
O       -0.19010401       1.29297731       1.21140841
C        0.48924030      -0.78902851       0.19883684
C       -0.82574958      -0.85029443      -0.47688273
C       -1.85781572       0.36254235      -1.71060767
O       -0.84727965      -0.51113192      -1.77512885
H        2.16494770       1.50008843       2.00309330
H        2.69187580       0.01288827       1.29332714
H        0.59326638      -1.62407655       0.89795385
H        1.29571183      -0.89112974      -0.53644056
H       -1.72632685      -1.20114139       0.00453191
H       -1.94796022       1.14807667      -0.97734058
H       -2.50538288       0.36236003      -2.57694294
14
Frame=6 idx=010158 GeodesicLength=0.2934456501607448 rxn_smarts="[N:1]([C:2](=[O:3])[C:4]([C@@:5]1([H:12])[C:6]([H:13])([H:14])[O:7]1)([H:10])[H:11])([H:8])[H:9]>>[N:1]([C:2](=[O:3])[C:4]([C:5](=[O+:7][C-:6]([H:13])[H:14])[H:12])([H:10])[H:11])([H:8])[H:9]"
N        1.96168307       0.66975195       1.47648871
C        0.70504767       0.51525185       0.98354972
O       -0.19232810       1.28511547       1.24393876
C        0.48776112      -0.77544868       0.18963400
C       -0.83717515      -0.83404640      -0.46868554
C       -1.85122651       0.34764275      -1.71662825
O       -0.86339344      -0.55282519      -1.78069633
H        2.16575376       1.48322720       2.02862718
H        2.69428920       0.01352160       1.28472841
H        0.60678410      -1.62197461       0.87258117
H        1.28648027      -0.85989512      -0.55591921
H       -1.72924259      -1.17698566       0.03438530
H       -1.92603729       1.16471476      -1.01622595
H       -2.50839612       0.34195008      -2.57577796
14
Frame=7 idx=010158 GeodesicLength=0.3405093199801468 rxn_smarts="[N:1]([C:2](=[O:3])[C:4]([C@@:5]1([H:12])[C:6]([H:13])([H:14])[O:7]1)([H:10])[H:11])([H:8])[H:9]>>[N:1]([C:2](=[O:3])[C:4]([C:5](=[O+:7][C-:6]([H:13])[H:14])[H:12])([H:10])[H:11])([H:8])[H:9]"
N        1.96376186       0.66557421       1.48230349
C        0.70444038       0.51617312       0.99426386
O       -0.19366402       1.27798544       1.27496157
C        0.48611670      -0.76129376       0.18042528
C       -0.84840996      -0.81749585      -0.46068746
C       -1.84456167       0.33266939      -1.72260756
O       -0.88057389      -0.59466438      -1.78389929
H        2.16665767       1.46457078       2.05557443
H        2.69685492       0.01441027       1.27562205
H        0.62005367      -1.61922034       0.84641283
H        1.27660827      -0.82730333      -0.57538115
H       -1.73159086      -1.15209780       0.06388451
H       -1.90484192       1.17935339      -1.05610079
H       -2.51085115       0.32133887      -2.57477178
14
Frame=8 idx=010158 GeodesicLength=0.38717909676562623 rxn_smarts="[N:1]([C:2](=[O:3])[C:4]([C@@:5]1([H:12])[C:6]([H:13])([H:14])[O:7]1)([H:10])[H:11])([H:8])[H:9]>>[N:1]([C:2](=[O:3])[C:4]([C:5](=[O+:7][C-:6]([H:13])[H:14])[H:12])([H:10])[H:11])([H:8])[H:9]"
N        1.96596135       0.66096102       1.48849764
C        0.70383576       0.51659753       1.00584713
O       -0.19428018       1.27134119       1.30486849
C        0.48427987      -0.74667311       0.17134591
C       -0.85938338      -0.80058730      -0.45298250
C       -1.83780996       0.31771820      -1.72854541
O       -0.89839286      -0.63603329      -1.78474040
H        2.16813702       1.44501506       2.08229631
H        2.69941148       0.01523317       1.26648410
H        0.63290822      -1.61595522       0.81950344
H        1.26613502      -0.79343535      -0.59453563
H       -1.73333296      -1.12671225       0.09265298
H       -1.88500825       1.19184432      -1.09653765
H       -2.51246114       0.30068604      -2.57415441
14
Frame=9 idx=010158 GeodesicLength=0.4334790927426836 rxn_smarts="[N:1]([C:2](=[O:3])[C:4]([C@@:5]1([H:12])[C:6]([H:13])([H:14])[O:7]1)([H:10])[H:11])([H:8])[H:9]>>[N:1]([C:2](=[O:3])[C:4]([C:5](=[O+:7][C-:6]([H:13])[H:14])[H:12])([H:10])[H:11])([H:8])[H:9]"
N        1.96810977       0.65552116       1.49552707
C        0.70311954       0.51615996       1.01860005
O       -0.19445471       1.26468805       1.33429190
C        0.48220670      -0.73177815       0.16255971
C       -0.87003979      -0.78332174      -0.44571389
C       -1.83088605       0.30298773      -1.73442798
O       -0.91632962      -0.67628246      -1.78335237
H        2.17075399       1.42607698       2.10654878
H        2.70176230       0.01555624       1.25791800
H        0.64513048      -1.61241017       0.79193391
H        1.25513350      -0.75845671      -0.61301064
H       -1.73449847      -1.10118639       0.12023559
H       -1.86711345       1.20218630      -1.13696318
H       -2.51289422       0.28025919      -2.57414695
14
Frame=10 idx=010158 GeodesicLength=0.4794435066117888 rxn_smarts="[N:1]([C:2](=[O:3])[C:4]([C@@:5]1([H:12])[C:6]([H:13])([H:14])[O:7]1)([H:10])[H:11])([H:8])[H:9]>>[N:1]([C:2](=[O:3])[C:4]([C:5](=[O+:7][C-:6]([H:13])[H:14])[H:12])([H:10])[H:11])([H:8])[H:9]"
N        1.97006535       0.64901377       1.50348961
C        0.70216991       0.51458080       1.03261564
O       -0.19449465       1.25739863       1.36388334
C        0.47983863      -0.71674877       0.15417519
C       -0.88042139      -0.76581523      -0.43891195
C       -1.82373975       0.28858043      -1.74016368
O       -0.93408587      -0.71500868      -1.78001718
H        2.17472174       1.40904186       2.12686229
H        2.70374290       0.01508766       1.25025293
H        0.65664394      -1.60867076       0.76378797
H        1.24358971      -0.72249465      -0.63055403
H       -1.73519805      -1.07587896       0.14645819
H       -1.85086576       1.21063592      -1.17708777
H       -2.51196672       0.26027799      -2.57479055
14
Frame=11 idx=010158 GeodesicLength=0.525192676364139 rxn_smarts="[N:1]([C:2](=[O:3])[C:4]([C@@:5]1([H:12])[C:6]([H:13])([H:14])[O:7]1)([H:10])[H:11])([H:8])[H:9]>>[N:1]([C:2](=[O:3])[C:4]([C:5](=[O+:7][C-:6]([H:13])[H:14])[H:12])([H:10])[H:11])([H:8])[H:9]"
N        1.97238254       0.64209275       1.51145483
C        0.70146024       0.51254388       1.04715442
O       -0.19388447       1.25035958       1.39297843
C        0.47725934      -0.70134226       0.14606639
C       -0.89055536      -0.74777376      -0.43246153
C       -1.81656766       0.27420478      -1.74604350
O       -0.95172083      -0.75254811      -1.77465958
H        2.17939634       1.39136821       2.14692990
H        2.70581693       0.01435486       1.24250637
H        0.66743374      -1.60428658       0.73531305
H        1.23147240      -0.68583028      -0.64742431
H       -1.73543486      -1.05018364       0.17173378
H       -1.83702271       1.21715601      -1.21727218
H       -2.51003564       0.23988455      -2.57627607
14
Frame=12 idx=010158 GeodesicLength=0.5708686735953351 rxn_smarts="[N:1]([C:2](=[O:3])[C:4]([C@@:5]1([H:12])[C:6]([H:13])([H:14])[O:7]1)([H:10])[H:11])([H:8])[H:9]>>[N:1]([C:2](=[O:3])[C:4]([C:5](=[O+:7][C-:6]([H:13])[H:14])[H:12])([H:10])[H:11])([H:8])[H:9]"
N        1.97502821       0.63454471       1.51961336
C        0.70101024       0.50999105       1.06224858
O       -0.19248221       1.24337873       1.42172557
C        0.47449168      -0.68547994       0.13825915
C       -0.90043799      -0.72900276      -0.42645301
C       -1.80931305       0.25982224      -1.75223566
O       -0.96903964      -0.78867237      -1.76745430
H        2.18484219       1.37317462       2.16654899
H        2.70795356       0.01321577       1.23480153
H        0.67746083      -1.59918539       0.70651016
H        1.21888029      -0.64838146      -0.66349307
H       -1.73526034      -1.02384008       0.19592120
H       -1.82573565       1.22180984      -1.25752742
H       -2.50739813       0.21862506      -2.57846506
14
Frame=13 idx=010158 GeodesicLength=0.6163738720870134 rxn_smarts="[N:1]([C:2](=[O:3])[C:4]([C@@:5]1([H:12])[C:6]([H:13])([H:14])[O:7]1)([H:10])[H:11])([H:8])[H:9]>>[N:1]([C:2](=[O:3])[C:4]([C:5](=[O+:7][C-:6]([H:13])[H:14])[H:12])([H:10])[H:11])([H:8])[H:9]"
N        1.97784679       0.62632647       1.52799085
C        0.70068676       0.50674541       1.07790048
O       -0.19072881       1.23584931       1.45074908
C        0.47149229      -0.66936279       0.13083666
C       -0.91008422      -0.70968009      -0.42089567
C       -1.80194760       0.24559716      -1.75853772
O       -0.98587407      -0.82320302      -1.75855040
H        2.19117665       1.35553167       2.18436340
H        2.70999943       0.01153963       1.22738084
H        0.68667707      -1.59353385       0.67750123
H        1.20582601      -0.61038547      -0.67858461
H       -1.73473915      -0.99723598       0.21890872
H       -1.81651277       1.22485254      -1.29770592
H       -2.50381839       0.19695902      -2.58135693
14
Frame=14 idx=010158 GeodesicLength=0.6618152982082338 rxn_smarts="[N:1]([C:2](=[O:3])[C:4]([C@@:5]1([H:12])[C:6]([H:13])([H:14])[O:7]1)([H:10])[H:11])([H:8])[H:9]>>[N:1]([C:2](=[O:3])[C:4]([C:5](=[O+:7][C-:6]([H:13])[H:14])[H:12])([H:10])[H:11])([H:8])[H:9]"
N        1.98124793       0.61814344       1.53569092
C        0.70085025       0.50351696       1.09338565
O       -0.18816593       1.22859658       1.47935489
C        0.46836478      -0.65265549       0.12364889
C       -0.91950551      -0.68955621      -0.41571467
C       -1.79463467       0.23118245      -1.76518572
O       -1.00232459      -0.85648973      -1.74793606
H        2.19775034       1.33561643       2.20379614
H        2.71226829       0.00986328       1.21944681
H        0.69516833      -1.58678512       0.64850842
H        1.19233299      -0.57192976      -0.69295335
H       -1.73383752      -0.96976215       0.24107286
H       -1.80967080       1.22628752      -1.33829900
H       -2.49984387       0.17397179      -2.58481578
14
Frame=15 idx=010158 GeodesicLength=0.7073293571023787 rxn_smarts="[N:1]([C:2](=[O:3])[C:4]([C@@:5]1([H:12])[C:6]([H:13])([H:14])[O:7]1)([H:10])[H:11])([H:8])[H:9]>>[N:1]([C:2](=[O:3])[C:4]([C:5](=[O+:7][C-:6]([H:13])[H:14])[H:12])([H:10])[H:11])([H:8])[H:9]"
N        1.98479840       0.60901364       1.54386688
C        0.70118719       0.49962128       1.10939553
O       -0.18523678       1.22065727       1.50856928
C        0.46502363      -0.63564018       0.11684471
C       -0.92872468      -0.66867641      -0.41106995
C       -1.78698602       0.21692802      -1.77224826
O       -1.01800644      -0.88820592      -1.73592707
H        2.20534811       1.31633315       2.22141939
H        2.71450541       0.00762558       1.21171689
H        0.70277110      -1.57946137       0.61931774
H        1.17852670      -0.53292816      -0.70625480
H       -1.73278238      -0.94167292       0.26201269
H       -1.80523336       1.22634686      -1.37884234
H       -2.49519087       0.15005915      -2.58880071
14
Frame=16 idx=010158 GeodesicLength=0.7527009414094786 rxn_smarts="[N:1]([C:2](=[O:3])[C:4]([C@@:5]1([H:12])[C:6]([H:13])([H:14])[O:7]1)([H:10])[H:11])([H:8])[H:9]>>[N:1]([C:2](=[O:3])[C:4]([C:5](=[O+:7][C-:6]([H:13])[H:14])[H:12])([H:10])[H:11])([H:8])[H:9]"
N        1.98862323       0.59962828       1.55168918
C        0.70181448       0.49545211       1.12531175
O       -0.18189568       1.21208575       1.53797726
C        0.46154241      -0.61827063       0.11037240
C       -0.93766879      -0.64710708      -0.40694493
C       -1.77925211       0.20272208      -1.77948373
O       -1.03301274      -0.91830521      -1.72250975
H        2.21337529       1.29650710       2.23856242
H        2.71666802       0.00499548       1.20407843
H        0.70957727      -1.57128436       0.59028092
H        1.16445041      -0.49372457      -0.71856128
H       -1.73138438      -0.91299589       0.28182210
H       -1.80275099       1.22503978      -1.41953429
H       -2.49008642       0.12525716      -2.59306049
