11
Frame=0 idx=003647 GeodesicLength=0.0 rxn_smarts="[O:1]=[C:2]1[C:3]([H:7])([H:8])[C@@:4]2([H:9])[N:5]([H:10])[C@@:6]12[H:11]>>[O:1]([C+:2]1[C:3]([H:7])([H:8])[C-:4]2[N:5]([H:10])[C@@:6]12[H:11])[H:9]"
O        1.37335115       1.08744172       0.77186700
C        0.56707644       0.05350862       0.74579380
C        0.76049195      -0.82611256      -0.40495860
C       -0.25203675       0.34716934      -0.73542013
N       -1.57741090      -0.12139743      -0.34742496
C       -0.82254911       0.41908889       0.74507234
H        1.74903705      -0.75589896      -0.83801372
H        0.29301151      -1.80312553      -0.46838196
H        0.69972900       1.39261617      -0.32612819
H       -1.64956603      -1.13385911      -0.35411571
H       -1.14113433       1.34056883       1.21171008
11
Frame=1 idx=003647 GeodesicLength=0.07316524544123992 rxn_smarts="[O:1]=[C:2]1[C:3]([H:7])([H:8])[C@@:4]2([H:9])[N:5]([H:10])[C@@:6]12[H:11]>>[O:1]([C+:2]1[C:3]([H:7])([H:8])[C-:4]2[N:5]([H:10])[C@@:6]12[H:11])[H:9]"
O        1.37981089       1.07886059       0.78548485
C        0.56837381       0.05144678       0.75087090
C        0.75529322      -0.82433650      -0.40834761
C       -0.25502032       0.34807465      -0.74344299
N       -1.57652528      -0.12342658      -0.35019744
C       -0.82114949       0.42168035       0.74054370
H        1.74378532      -0.75705540      -0.84306484
H        0.29733084      -1.80623092      -0.46739464
H        0.70386977       1.40705104      -0.33006352
H       -1.64745575      -1.13620549      -0.34210493
H       -1.14831302       1.34014146       1.20771651
11
Frame=2 idx=003647 GeodesicLength=0.14630681676827548 rxn_smarts="[O:1]=[C:2]1[C:3]([H:7])([H:8])[C@@:4]2([H:9])[N:5]([H:10])[C@@:6]12[H:11]>>[O:1]([C+:2]1[C:3]([H:7])([H:8])[C-:4]2[N:5]([H:10])[C@@:6]12[H:11])[H:9]"
O        1.38624642       1.06997196       0.79925967
C        0.56960649       0.04925078       0.75602877
C        0.75009026      -0.82254877      -0.41168769
C       -0.25813128       0.34883561      -0.75158530
N       -1.57567910      -0.12554889      -0.35284485
C       -0.81967631       0.42438995       0.73593637
H        1.73852577      -0.75810380      -0.84804517
H        0.30179135      -1.80925528      -0.46650828
H        0.70799115       1.42170135      -0.33419007
H       -1.64532383      -1.13843152      -0.32999546
H       -1.15544093       1.33973860       1.20363201
11
Frame=3 idx=003647 GeodesicLength=0.21945247636513524 rxn_smarts="[O:1]=[C:2]1[C:3]([H:7])([H:8])[C@@:4]2([H:9])[N:5]([H:10])[C@@:6]12[H:11]>>[O:1]([C+:2]1[C:3]([H:7])([H:8])[C-:4]2[N:5]([H:10])[C@@:6]12[H:11])[H:9]"
O        1.39265860       1.06076941       0.81321230
C        0.57077130       0.04691805       0.76127395
C        0.74488432      -0.82075237      -0.41497856
C       -0.26137405       0.34944463      -0.75985421
N       -1.57487431      -0.12776428      -0.35536518
C       -0.81812494       0.42722325       0.73124781
H        1.73326107      -0.75904040      -0.85295417
H        0.30639137      -1.81220419      -0.46572960
H        0.71208890       1.43658291      -0.33852705
H       -1.64316996      -1.14054266      -0.31778606
H       -1.16251230       1.33936565       1.19946078
11
Frame=4 idx=003647 GeodesicLength=0.29259460709945984 rxn_smarts="[O:1]=[C:2]1[C:3]([H:7])([H:8])[C@@:4]2([H:9])[N:5]([H:10])[C@@:6]12[H:11]>>[O:1]([C+:2]1[C:3]([H:7])([H:8])[C-:4]2[N:5]([H:10])[C@@:6]12[H:11])[H:9]"
O        1.39904651       1.05123528       0.82735830
C        0.57186367       0.04444384       0.76660737
C        0.73967741      -0.81894608      -0.41822004
C       -0.26475280       0.34989323      -0.76825339
N       -1.57411192      -0.13007098      -0.35775415
C       -0.81649122       0.43018456       0.72647166
H        1.72799497      -0.75985801      -0.85778877
H        0.31113194      -1.81507319      -0.46506174
H        0.71615645       1.45170561      -0.34309084
H       -1.64099191      -1.14253670      -0.30546859
H       -1.16952308       1.33902245       1.19520019
11
Frame=5 idx=003647 GeodesicLength=0.3657320825820104 rxn_smarts="[O:1]=[C:2]1[C:3]([H:7])([H:8])[C@@:4]2([H:9])[N:5]([H:10])[C@@:6]12[H:11]>>[O:1]([C+:2]1[C:3]([H:7])([H:8])[C-:4]2[N:5]([H:10])[C@@:6]12[H:11])[H:9]"
O        1.40540894       1.04135184       0.84171592
C        0.57287863       0.04182329       0.77203114
C        0.73447155      -0.81712934      -0.42141218
C       -0.26827191       0.35017261      -0.77678744
N       -1.57339287      -0.13246755      -0.36000757
C       -0.81477048       0.43327883       0.72160184
H        1.72273130      -0.76054943      -0.86254639
H        0.31601390      -1.81785962      -0.46450879
H        0.72018676       1.46708161      -0.34789992
H       -1.63878747      -1.14441247      -0.29303517
H       -1.17646835       1.33871023       1.19084856
11
Frame=6 idx=003647 GeodesicLength=0.43886457480728075 rxn_smarts="[O:1]=[C:2]1[C:3]([H:7])([H:8])[C@@:4]2([H:9])[N:5]([H:10])[C@@:6]12[H:11]>>[O:1]([C+:2]1[C:3]([H:7])([H:8])[C-:4]2[N:5]([H:10])[C@@:6]12[H:11])[H:9]"
O        1.41174429       1.03109940       0.85630516
C        0.57381076       0.03905103       0.77754760
C        0.72926890      -0.81530147      -0.42455524
C       -0.27193605       0.35027357      -0.78546124
N       -1.57271808      -0.13495272      -0.36212097
C       -0.81295758       0.43651139       0.71663191
H        1.71747417      -0.76110671      -0.86722434
H        0.32103838      -1.82056084      -0.46407532
H        0.72417204       1.48272420      -0.35297432
H       -1.63655424      -1.14616868      -0.28047697
H       -1.18334260       1.33843083       1.18640373
11
Frame=7 idx=003647 GeodesicLength=0.5119919149038351 rxn_smarts="[O:1]=[C:2]1[C:3]([H:7])([H:8])[C@@:4]2([H:9])[N:5]([H:10])[C@@:6]12[H:11]>>[O:1]([C+:2]1[C:3]([H:7])([H:8])[C-:4]2[N:5]([H:10])[C@@:6]12[H:11])[H:9]"
O        1.41805055       1.02045669       0.87114771
C        0.57465428       0.03612144       0.78315928
C        0.72407174      -0.81346172      -0.42764949
C       -0.27575017       0.35018624      -0.79427983
N       -1.57208839      -0.13752504      -0.36408937
C       -0.81104679       0.43988784       0.71155495
H        1.71222806      -0.76152142      -0.87181951
H        0.32620668      -1.82317414      -0.46376619
H        0.72810335       1.49864764      -0.35833636
H       -1.63428971      -1.14780349      -0.26778498
H       -1.19013960       1.33818596       1.18186378
11
Frame=8 idx=003647 GeodesicLength=0.585114348141882 rxn_smarts="[O:1]=[C:2]1[C:3]([H:7])([H:8])[C@@:4]2([H:9])[N:5]([H:10])[C@@:6]12[H:11]>>[O:1]([C+:2]1[C:3]([H:7])([H:8])[C-:4]2[N:5]([H:10])[C@@:6]12[H:11])[H:9]"
O        1.42432523       1.00940019       0.88626704
C        0.57540299       0.03302844       0.78886886
C        0.71888257      -0.81160917      -0.43069530
C       -0.27971945       0.34990016      -0.80324846
N       -1.57150455      -0.14018295      -0.36590737
C       -0.80903179       0.44341412       0.70636360
H        1.70699783      -0.76178451      -0.87632841
H        0.33152036      -1.82569676      -0.46358644
H        0.73197035       1.51486757      -0.36401054
H       -1.63199122      -1.14931460      -0.25494976
H       -1.19685231       1.33797752       1.17722677
11
Frame=9 idx=003647 GeodesicLength=0.6582376758602548 rxn_smarts="[O:1]=[C:2]1[C:3]([H:7])([H:8])[C@@:4]2([H:9])[N:5]([H:10])[C@@:6]12[H:11]>>[O:1]([C+:2]1[C:3]([H:7])([H:8])[C-:4]2[N:5]([H:10])[C@@:6]12[H:11])[H:9]"
O        1.43056537       0.99790434       0.90168923
C        0.57604983       0.02976531       0.79468002
C        0.71370406      -0.80974368      -0.43369378
C       -0.28384874       0.34940471      -0.81237382
N       -1.57096691      -0.14292512      -0.36756983
C       -0.80690583       0.44709715       0.70105083
H        1.70178885      -0.76188700      -0.88074820
H        0.33698139      -1.82812776      -0.46354162
H        0.73576149       1.53140340      -0.37002360
H       -1.62965617      -1.15070067      -0.24196109
H       -1.20347334       1.33780930       1.17249185
11
Frame=10 idx=003647 GeodesicLength=0.7313432536486867 rxn_smarts="[O:1]=[C:2]1[C:3]([H:7])([H:8])[C@@:4]2([H:9])[N:5]([H:10])[C@@:6]12[H:11]>>[O:1]([C+:2]1[C:3]([H:7])([H:8])[C-:4]2[N:5]([H:10])[C@@:6]12[H:11])[H:9]"
O        1.43676655       0.98594055       0.91744237
C        0.57658863       0.02632557       0.80059349
C        0.70853911      -0.80786073      -0.43664303
C       -0.28814572       0.34868554      -0.82165640
N       -1.57047673      -0.14574764      -0.36906649
C       -0.80466019       0.45094122       0.69560530
H        1.69660632      -0.76181487      -0.88507173
H        0.34259204      -1.83045722      -0.46363768
H        0.73946287       1.54826260      -0.37640902
H       -1.62728072      -1.15195220      -0.22880991
H       -1.20999217       1.33767719       1.16765310
11
Frame=11 idx=003647 GeodesicLength=0.8044565874552358 rxn_smarts="[O:1]=[C:2]1[C:3]([H:7])([H:8])[C@@:4]2([H:9])[N:5]([H:10])[C@@:6]12[H:11]>>[O:1]([C+:2]1[C:3]([H:7])([H:8])[C-:4]2[N:5]([H:10])[C@@:6]12[H:11])[H:9]"
O        1.44292457       0.97347518       0.93356150
C        0.57700889       0.02269887       0.80661595
C        0.70339016      -0.80596152      -0.43954810
C       -0.29261489       0.34773360      -0.83110820
N       -1.57003329      -0.14865268      -0.37039399
C       -0.80228723       0.45495799       0.69002071
H        1.69145562      -0.76155803      -0.88930094
H        0.34835734      -1.83269015      -0.46388456
H        0.74306425       1.56547580      -0.38319400
H       -1.62486193      -1.15307345      -0.21547489
H       -1.21640349       1.33759440       1.16270652
11
Frame=12 idx=003647 GeodesicLength=0.8775615334526528 rxn_smarts="[O:1]=[C:2]1[C:3]([H:7])([H:8])[C@@:4]2([H:9])[N:5]([H:10])[C@@:6]12[H:11]>>[O:1]([C+:2]1[C:3]([H:7])([H:8])[C-:4]2[N:5]([H:10])[C@@:6]12[H:11])[H:9]"
O        1.44903030       0.96046290       0.95008094
C        0.57729988       0.01887300       0.81274786
C        0.69826079      -0.80404165      -0.44241076
C       -0.29726464       0.34653522      -0.84073178
N       -1.56963543      -0.15163722      -0.37154192
C       -0.79977767       0.45915566       0.68428300
H        1.68634251      -0.76109859      -0.89343098
H        0.35428571      -1.83481694      -0.46429120
H        0.74654716       1.58305599      -0.39041250
H       -1.62239070      -1.15405190      -0.20193150
H       -1.22269792       1.33756351       1.15763885
11
Frame=13 idx=003647 GeodesicLength=0.9506658530973097 rxn_smarts="[O:1]=[C:2]1[C:3]([H:7])([H:8])[C@@:4]2([H:9])[N:5]([H:10])[C@@:6]12[H:11]>>[O:1]([C+:2]1[C:3]([H:7])([H:8])[C-:4]2[N:5]([H:10])[C@@:6]12[H:11])[H:9]"
O        1.45508026       0.94687188       0.96703569
C        0.57745396       0.01484236       0.81899535
C        0.69315490      -0.80210010      -0.44522870
C       -0.30210022       0.34507400      -0.85053369
N       -1.56928418      -0.15469902      -0.37250203
C       -0.79712024       0.46353958       0.67838440
H        1.68127447      -0.76042344      -0.89745487
H        0.36037559      -1.83683566      -0.46486193
H        0.74989145       1.60103081      -0.39810881
H       -1.61986828      -1.15488618      -0.18817953
H       -1.22885770       1.33758577       1.15245411
11
Frame=14 idx=003647 GeodesicLength=1.0237703858649634 rxn_smarts="[O:1]=[C:2]1[C:3]([H:7])([H:8])[C@@:4]2([H:9])[N:5]([H:10])[C@@:6]12[H:11]>>[O:1]([C+:2]1[C:3]([H:7])([H:8])[C-:4]2[N:5]([H:10])[C@@:6]12[H:11])[H:9]"
O        1.46106444       0.93265805       0.98446680
C        0.57746101       0.01059626       0.82536302
C        0.68807701      -0.80013525      -0.44800276
C       -0.30712973       0.34333433      -0.86051948
N       -1.56897912      -0.15783369      -0.37326361
C       -0.79430288       0.46811856       0.67231439
H        1.67625945      -0.75951766      -0.90136638
H        0.36663340      -1.83874277      -0.46560571
H        0.75307316       1.61942424      -0.40632995
H       -1.61728878      -1.15556833      -0.17420598
H       -1.23486796       1.33766626       1.14714966
11
Frame=15 idx=003647 GeodesicLength=1.0968734560889217 rxn_smarts="[O:1]=[C:2]1[C:3]([H:7])([H:8])[C@@:4]2([H:9])[N:5]([H:10])[C@@:6]12[H:11]>>[O:1]([C+:2]1[C:3]([H:7])([H:8])[C-:4]2[N:5]([H:10])[C@@:6]12[H:11])[H:9]"
O        1.46697237       0.91777133       1.00241826
C        0.57730965       0.00612299       0.83185545
C        0.68303172      -0.79814395      -0.45073359
C       -0.31236079       0.34129904      -0.87069431
N       -1.56871939      -0.16103735      -0.37381510
C       -0.79131194       0.47290081       0.66606113
H        1.67130609      -0.75836290      -0.90515770
H        0.37306495      -1.84053274      -0.46653177
H        0.75606547       1.63826313      -0.41512688
H       -1.61464748      -1.15608996      -0.15999581
H       -1.24071067       1.33780959       1.14172034
11
Frame=16 idx=003647 GeodesicLength=1.1699756136130504 rxn_smarts="[O:1]=[C:2]1[C:3]([H:7])([H:8])[C@@:4]2([H:9])[N:5]([H:10])[C@@:6]12[H:11]>>[O:1]([C+:2]1[C:3]([H:7])([H:8])[C-:4]2[N:5]([H:10])[C@@:6]12[H:11])[H:9]"
O        1.47279134       0.90215589       1.02093915
C        0.57698756       0.00140943       0.83847814
C        0.67802434      -0.79612303      -0.45342194
C       -0.31780151       0.33894981      -0.88106345
N       -1.56850375      -0.16430529      -0.37414375
C       -0.78813208       0.47789507       0.65961238
H        1.66642391      -0.75693917      -0.90882050
H        0.37967731      -1.84220031      -0.46765052
H        0.75883713       1.65757732      -0.42455700
H       -1.61193917      -1.15644181      -0.14553332
H       -1.24636506       1.33802209       1.13616082
