13
Frame=0 idx=008021 GeodesicLength=0.0 rxn_smarts="[O:1]([C:2]([C:3]([C:4]#[C:5][H:12])([C:6]#[C:7][H:13])[H:11])([H:9])[H:10])[H:8]>>[O:1]([C:2]([C:7](=[C:6]=[C:3]([C:4]#[C:5][H:12])[H:11])[H:13])([H:9])[H:10])[H:8]"
O        2.63565544      -0.27686311       0.71052090
C        1.45261657       0.20339231       0.40269431
C       -0.75127317       0.20750856      -1.06149700
C       -1.39151202      -1.04289888      -0.84573804
C       -1.90750353      -2.11368730      -0.66133702
C       -0.81259879       1.21443555      -0.13785589
C       -0.43945783       1.92226186       0.80032574
H        2.56328402      -0.99336636       1.34905660
H        0.57971943      -0.23124411       0.84813166
H        1.46719884       0.99622738      -0.31623106
H       -0.45474365       0.44383750      -2.07780277
H       -2.38561006      -3.05165317      -0.50949663
H       -0.55577524       2.72204974       1.49922922
13
Frame=1 idx=008021 GeodesicLength=0.05612621132050869 rxn_smarts="[O:1]([C:2]([C:3]([C:4]#[C:5][H:12])([C:6]#[C:7][H:13])[H:11])([H:9])[H:10])[H:8]>>[O:1]([C:2]([C:7](=[C:6]=[C:3]([C:4]#[C:5][H:12])[H:11])[H:13])([H:9])[H:10])[H:8]"
O        2.62485632      -0.26911163       0.71033523
C        1.43714192       0.22007850       0.40709801
C       -0.73661587       0.20093165      -1.05484339
C       -1.38633745      -1.04866565      -0.85261294
C       -1.90619242      -2.11683840      -0.66555686
C       -0.82403749       1.21022879      -0.13364161
C       -0.44066023       1.90856927       0.80911231
H        2.54815167      -1.00914626       1.32070047
H        0.58099766      -0.24602758       0.85730651
H        1.48178214       1.01968603      -0.30540621
H       -0.44703830       0.44541401      -2.07149418
H       -2.38759078      -3.05074441      -0.49915888
H       -0.54445715       2.73562569       1.47816155
13
Frame=2 idx=008021 GeodesicLength=0.11226615421532847 rxn_smarts="[O:1]([C:2]([C:3]([C:4]#[C:5][H:12])([C:6]#[C:7][H:13])[H:11])([H:9])[H:10])[H:8]>>[O:1]([C:2]([C:7](=[C:6]=[C:3]([C:4]#[C:5][H:12])[H:11])[H:13])([H:9])[H:10])[H:8]"
O        2.61367715      -0.26216857       0.71009492
C        1.42132546       0.23622765       0.41154130
C       -0.72244715       0.19483869      -1.04818581
C       -1.38086899      -1.05409718      -0.85892627
C       -1.90576871      -2.11909725      -0.66946427
C       -0.83535999       1.20653928      -0.13006081
C       -0.44181817       1.89618134       0.81654969
H        2.53270924      -1.02435943       1.29172593
H        0.58244929      -0.25975555       0.86652094
H        1.49629880       1.04220558      -0.29366905
H       -0.43916061       0.44663239      -2.06511381
H       -2.38779032      -3.05010693      -0.48870775
H       -0.53324600       2.74695997       1.45769499
13
Frame=3 idx=008021 GeodesicLength=0.16840152152104426 rxn_smarts="[O:1]([C:2]([C:3]([C:4]#[C:5][H:12])([C:6]#[C:7][H:13])[H:11])([H:9])[H:10])[H:8]>>[O:1]([C:2]([C:7](=[C:6]=[C:3]([C:4]#[C:5][H:12])[H:11])[H:13])([H:9])[H:10])[H:8]"
O        2.60257399      -0.25456885       0.71118680
C        1.40535519       0.25162943       0.41564095
C       -0.70878308       0.18907442      -1.04167829
C       -1.37498425      -1.05949549      -0.86514086
C       -1.90516006      -2.12121404      -0.67347487
C       -0.84664046       1.20292819      -0.12692602
C       -0.44297592       1.88441666       0.82301288
H        2.51757662      -1.03881202       1.26185841
H        0.58430507      -0.27297070       0.87532973
H        1.51071506       1.06374924      -0.28117325
H       -0.43128442       0.44770680      -2.05879136
H       -2.38849789      -3.04859110      -0.47762430
H       -0.52219984       2.75614746       1.43778017
13
Frame=4 idx=008021 GeodesicLength=0.2244841845558178 rxn_smarts="[O:1]([C:2]([C:3]([C:4]#[C:5][H:12])([C:6]#[C:7][H:13])[H:11])([H:9])[H:10])[H:8]>>[O:1]([C:2]([C:7](=[C:6]=[C:3]([C:4]#[C:5][H:12])[H:11])[H:13])([H:9])[H:10])[H:8]"
O        2.59171972      -0.24581047       0.71442932
C        1.38932682       0.26596410       0.41895119
C       -0.69586448       0.18362708      -1.03535978
C       -1.36913902      -1.06476914      -0.87124094
C       -1.90513222      -2.12295040      -0.67763841
C       -0.85780676       1.19936111      -0.12415807
C       -0.44376181       1.87309576       0.82856822
H        2.50316380      -1.05189501       1.23175845
H        0.58662416      -0.28598424       0.88339501
H        1.52508333       1.08398802      -0.26833499
H       -0.42383880       0.44867794      -2.05261789
H       -2.38937048      -3.04657837      -0.46632945
H       -0.51100424       2.76327361       1.41857734
13
Frame=5 idx=008021 GeodesicLength=0.28045428803782746 rxn_smarts="[O:1]([C:2]([C:3]([C:4]#[C:5][H:12])([C:6]#[C:7][H:13])[H:11])([H:9])[H:10])[H:8]>>[O:1]([C:2]([C:7](=[C:6]=[C:3]([C:4]#[C:5][H:12])[H:11])[H:13])([H:9])[H:10])[H:8]"
O        2.58128143      -0.23570725       0.72007409
C        1.37334182       0.27878029       0.42073873
C       -0.68411088       0.17855248      -1.02933976
C       -1.36398200      -1.06975641      -0.87733750
C       -1.90550519      -2.12447946      -0.68166802
C       -0.86883790       1.19577953      -0.12158620
C       -0.44373694       1.86187926       0.83339881
H        2.49012156      -1.06211978       1.20348139
H        0.58951570      -0.29929074       0.89009951
H        1.53940225       1.10251958      -0.25580365
H       -0.41756548       0.44976836      -2.04675384
H       -2.39086554      -3.04415035      -0.45568495
H       -0.49905883       2.76822449       1.40038139
13
Frame=6 idx=008021 GeodesicLength=0.3363299214628873 rxn_smarts="[O:1]([C:2]([C:3]([C:4]#[C:5][H:12])([C:6]#[C:7][H:13])[H:11])([H:9])[H:10])[H:8]>>[O:1]([C:2]([C:7](=[C:6]=[C:3]([C:4]#[C:5][H:12])[H:11])[H:13])([H:9])[H:10])[H:8]"
O        2.57135663      -0.22465023       0.72720253
C        1.35756709       0.29047237       0.42124297
C       -0.67315678       0.17370076      -1.02375152
C       -1.35886844      -1.07480862      -0.88386380
C       -1.90507973      -2.12645395      -0.68599535
C       -0.87984430       1.19186159      -0.11916324
C       -0.44339058       1.85038056       0.83774668
H        2.47876789      -1.06956316       1.17709361
H        0.59320162      -0.31291274       0.89536577
H        1.55361273       1.11984818      -0.24322697
H       -0.41206418       0.45109910      -2.04124943
H       -2.39490109      -3.03994907      -0.44462355
H       -0.48720086       2.77097523       1.38322230
13
Frame=7 idx=008021 GeodesicLength=0.39221972916721165 rxn_smarts="[O:1]([C:2]([C:3]([C:4]#[C:5][H:12])([C:6]#[C:7][H:13])[H:11])([H:9])[H:10])[H:8]>>[O:1]([C:2]([C:7](=[C:6]=[C:3]([C:4]#[C:5][H:12])[H:11])[H:13])([H:9])[H:10])[H:8]"
O        2.56102575      -0.21482476       0.73470387
C        1.34168158       0.30196150       0.42224249
C       -0.66252726       0.16916288      -1.01795352
C       -1.35369550      -1.07957982      -0.88967056
C       -1.90719234      -2.12693217      -0.69054965
C       -0.89073168       1.18844187      -0.11711887
C       -0.44311122       1.84003909       0.84119151
H        2.46729016      -1.07770892       1.14861042
H        0.59690964      -0.32547241       0.90094931
H        1.56785805       1.13636822      -0.22931412
H       -0.40618698       0.45199571      -2.03551013
H       -2.39539088      -3.03711774      -0.43336700
H       -0.47592930       2.77366654       1.36578625
13
Frame=8 idx=008021 GeodesicLength=0.4481231639858857 rxn_smarts="[O:1]([C:2]([C:3]([C:4]#[C:5][H:12])([C:6]#[C:7][H:13])[H:11])([H:9])[H:10])[H:8]>>[O:1]([C:2]([C:7](=[C:6]=[C:3]([C:4]#[C:5][H:12])[H:11])[H:13])([H:9])[H:10])[H:8]"
O        2.55088525      -0.20551605       0.74186711
C        1.32592851       0.31330426       0.42325280
C       -0.65188268       0.16470639      -1.01252972
C       -1.34745401      -1.08477573      -0.89612911
C       -1.90484405      -2.12935445      -0.69451207
C       -0.90178317       1.18458088      -0.11539295
C       -0.44358453       1.82954824       0.84424799
H        2.45687819      -1.08484177       1.11927757
H        0.60119998      -0.33770651       0.90593181
H        1.58184813       1.15266382      -0.21401161
H       -0.39984560       0.45300335      -2.02997563
H       -2.40099213      -3.03054520      -0.42091692
H       -0.46635390       2.77493275       1.34889072
13
Frame=9 idx=008021 GeodesicLength=0.5040538043131462 rxn_smarts="[O:1]([C:2]([C:3]([C:4]#[C:5][H:12])([C:6]#[C:7][H:13])[H:11])([H:9])[H:10])[H:8]>>[O:1]([C:2]([C:7](=[C:6]=[C:3]([C:4]#[C:5][H:12])[H:11])[H:13])([H:9])[H:10])[H:8]"
O        2.54038677      -0.19796725       0.74857595
C        1.31010559       0.32453614       0.42488010
C       -0.64152925       0.16051373      -1.00676532
C       -1.34128659      -1.08967033      -0.90171721
C       -1.90516339      -2.13023547      -0.69853463
C       -0.91268328       1.18124383      -0.11398338
C       -0.44413439       1.82021488       0.84654388
H        2.44619357      -1.09236909       1.08831062
H        0.60545125      -0.34885084       0.91136070
H        1.59583486       1.16819316      -0.19724947
H       -0.39312155       0.45351388      -2.02411502
H       -2.40279956      -3.02567823      -0.40880751
H       -0.45725403       2.77655559       1.33150129
13
Frame=10 idx=008021 GeodesicLength=0.559985854354092 rxn_smarts="[O:1]([C:2]([C:3]([C:4]#[C:5][H:12])([C:6]#[C:7][H:13])[H:11])([H:9])[H:10])[H:8]>>[O:1]([C:2]([C:7](=[C:6]=[C:3]([C:4]#[C:5][H:12])[H:11])[H:13])([H:9])[H:10])[H:8]"
O        2.52995794      -0.19129538       0.75501081
C        1.29438774       0.33548087       0.42651452
C       -0.63147238       0.15648496      -1.00102942
C       -1.33493697      -1.09456248      -0.90719320
C       -1.90494721      -2.13123219      -0.70230537
C       -0.92355522       1.17791925      -0.11280609
C       -0.44489347       1.81123590       0.84838106
H        2.43606505      -1.09909245       1.05698507
H        0.61002495      -0.35948562       0.91647931
H        1.60966911       1.18307500      -0.17933437
H       -0.38630818       0.45389830      -2.01824521
H       -2.40514333      -3.02008560      -0.39664206
H       -0.44884803       2.77765944       1.31418494
13
Frame=11 idx=008021 GeodesicLength=0.6162131690650375 rxn_smarts="[O:1]([C:2]([C:3]([C:4]#[C:5][H:12])([C:6]#[C:7][H:13])[H:11])([H:9])[H:10])[H:8]>>[O:1]([C:2]([C:7](=[C:6]=[C:3]([C:4]#[C:5][H:12])[H:11])[H:13])([H:9])[H:10])[H:8]"
O        2.51888133      -0.18816479       0.75852920
C        1.27842787       0.34735704       0.43040842
C       -0.62063873       0.15257694      -0.99479692
C       -1.32726382      -1.09953158      -0.91193515
C       -1.90350102      -2.13220091      -0.70530945
C       -0.93435991       1.17509025      -0.11230092
C       -0.44688864       1.80375205       0.84943715
H        2.42409890      -1.10798938       1.02037608
H        0.61417201      -0.36821236       0.92333823
H        1.62337273       1.19822293      -0.15819222
H       -0.37740442       0.45352488      -2.01179860
H       -2.40616079      -3.01419897      -0.38368487
H       -0.44273551       2.77977391       1.29592903
13
Frame=12 idx=008021 GeodesicLength=0.6721566811672843 rxn_smarts="[O:1]([C:2]([C:3]([C:4]#[C:5][H:12])([C:6]#[C:7][H:13])[H:11])([H:9])[H:10])[H:8]>>[O:1]([C:2]([C:7](=[C:6]=[C:3]([C:4]#[C:5][H:12])[H:11])[H:13])([H:9])[H:10])[H:8]"
O        2.50881104      -0.18290790       0.76438934
C        1.26300075       0.35771641       0.43198002
C       -0.61099645       0.14873736      -0.98925146
C       -1.32037373      -1.10458470      -0.91753156
C       -1.90068227      -2.13424475      -0.70827954
C       -0.94516083       1.17152024      -0.11161790
C       -0.44820644       1.79505508       0.85054356
H        2.41513689      -1.11261618       0.98823868
H        0.61947105      -0.37809057       0.92762910
H        1.63675954       1.21190956      -0.13784524
H       -0.37034310       0.45372425      -2.00601999
H       -2.41148032      -3.00584296      -0.37114922
H       -0.43593613       2.77962417       1.27891422
13
Frame=13 idx=008021 GeodesicLength=0.7283637392644284 rxn_smarts="[O:1]([C:2]([C:3]([C:4]#[C:5][H:12])([C:6]#[C:7][H:13])[H:11])([H:9])[H:10])[H:8]>>[O:1]([C:2]([C:7](=[C:6]=[C:3]([C:4]#[C:5][H:12])[H:11])[H:13])([H:9])[H:10])[H:8]"
O        2.49816309      -0.18119246       0.76715354
C        1.24737742       0.36878207       0.43547108
C       -0.60090298       0.14510959      -0.98305185
C       -1.31288967      -1.10939138      -0.92198370
C       -1.89943125      -2.13495519      -0.71093896
C       -0.95573841       1.16873715      -0.11151372
C       -0.45024255       1.78805027       0.85089177
H        2.40392198      -1.11914399       0.95232343
H        0.62424728      -0.38609520       0.93362611
H        1.65006954       1.22550142      -0.11467184
H       -0.36166198       0.45313312      -1.99960282
H       -2.41241986      -2.99937284      -0.35853787
H       -0.43049260       2.78083744       1.26083483
13
Frame=14 idx=008021 GeodesicLength=0.7848670505544046 rxn_smarts="[O:1]([C:2]([C:3]([C:4]#[C:5][H:12])([C:6]#[C:7][H:13])[H:11])([H:9])[H:10])[H:8]>>[O:1]([C:2]([C:7](=[C:6]=[C:3]([C:4]#[C:5][H:12])[H:11])[H:13])([H:9])[H:10])[H:8]"
O        2.48760353      -0.18151927       0.76718424
C        1.23182469       0.38035806       0.44015239
C       -0.59024350       0.14140844      -0.97660771
C       -1.30416535      -1.11457402      -0.92613248
C       -1.89559855      -2.13664175      -0.71267959
C       -0.96623570       1.16588612      -0.11188272
C       -0.45320706       1.78162743       0.85081390
H        2.39174568      -1.12593841       0.91383183
H        0.62916869      -0.39295431       0.94042184
H        1.66305518       1.23921615      -0.08903477
H       -0.35166514       0.45203542      -1.99288730
H       -2.41536312      -2.99104342      -0.34566158
H       -0.42691935       2.78213956       1.24248194
13
Frame=15 idx=008021 GeodesicLength=0.8416531357129071 rxn_smarts="[O:1]([C:2]([C:3]([C:4]#[C:5][H:12])([C:6]#[C:7][H:13])[H:11])([H:9])[H:10])[H:8]>>[O:1]([C:2]([C:7](=[C:6]=[C:3]([C:4]#[C:5][H:12])[H:11])[H:13])([H:9])[H:10])[H:8]"
O        2.47698267      -0.18371852       0.76486820
C        1.21630683       0.39212522       0.44568938
C       -0.57935387       0.13776298      -0.96985576
C       -1.29491818      -1.11977805      -0.92975737
C       -1.89197691      -2.13794277      -0.71417289
C       -0.97651263       1.16324414      -0.11268058
C       -0.45662722       1.77592374       0.85029731
H        2.37831797      -1.13280482       0.87374239
H        0.63408104      -0.39880073       0.94788861
H        1.67579470       1.25264103      -0.06122216
H       -0.34074407       0.45046281      -1.98585401
H       -2.41708290      -2.98285288      -0.33265083
H       -0.42426742       2.78373785       1.22370772
13
Frame=16 idx=008021 GeodesicLength=0.899054502892105 rxn_smarts="[O:1]([C:2]([C:3]([C:4]#[C:5][H:12])([C:6]#[C:7][H:13])[H:11])([H:9])[H:10])[H:8]>>[O:1]([C:2]([C:7](=[C:6]=[C:3]([C:4]#[C:5][H:12])[H:11])[H:13])([H:9])[H:10])[H:8]"
O        2.46611707      -0.18837695       0.75896351
C        1.20072975       0.40448113       0.45279153
C       -0.56775035       0.13410446      -0.96265417
C       -1.28448696      -1.12518624      -0.93276894
C       -1.88657902      -2.13969018      -0.71474487
C       -0.98655268       1.16079607      -0.11407516
C       -0.46091045       1.77114184       0.84928440
H        2.36263212      -1.14037725       0.83035368
H        0.63884339      -0.40328866       0.95670389
H        1.68823983       1.26612446      -0.03044448
H       -0.32814983       0.44824541      -1.97833893
H       -2.41889156      -2.97387158      -0.31943466
H       -0.42324131       2.78589748       1.20436419
