13
Frame=0 idx=000691 GeodesicLength=0.0 rxn_smarts="[C:1]([c:2]1[c:3]([H:10])[n:4]([H:11])[c:5]([H:12])[c:6]1[H:13])([H:7])([H:8])[H:9]>>[C:1]([C@@:2]1([H:10])[C:3][N:4]([H:11])[C:5]([H:12])=[C:6]1[H:13])([H:7])([H:8])[H:9]"
C        1.90202392      -0.14792394       0.23954761
C        0.42239814      -0.11757113      -0.00664618
C       -0.40381075      -1.30859490      -0.05680144
N       -1.66560021      -0.76201775      -0.09375581
C       -1.69265842       0.60284123       0.01760422
C       -0.42032347       1.05755660       0.06669976
H        2.09946488       0.03476969       1.29690184
H        2.30241907      -1.13042624      -0.00969500
H        2.42972802       0.61289978      -0.33776901
H        0.24052608      -0.74766067      -1.09468753
H       -2.48618324      -1.32884716      -0.20634372
H       -2.62449467       1.14957756       0.03676465
H       -0.10348939       2.08539691       0.14818064
13
Frame=1 idx=000691 GeodesicLength=0.0427938781821274 rxn_smarts="[C:1]([c:2]1[c:3]([H:10])[n:4]([H:11])[c:5]([H:12])[c:6]1[H:13])([H:7])([H:8])[H:9]>>[C:1]([C@@:2]1([H:10])[C:3][N:4]([H:11])[C:5]([H:12])=[C:6]1[H:13])([H:7])([H:8])[H:9]"
C        1.90077271      -0.14627678       0.24137123
C        0.42413077      -0.11608358      -0.02333747
C       -0.40472670      -1.30431899      -0.05835771
N       -1.66603448      -0.76148475      -0.08803834
C       -1.69227736       0.60509732       0.02135735
C       -0.41946355       1.05902953       0.05502137
H        2.08731019       0.03732137       1.30059153
H        2.30536480      -1.12814264      -0.00363148
H        2.43369879       0.61468745      -0.33104340
H        0.24481496      -0.76878817      -1.11188221
H       -2.48644412      -1.32745673      -0.20663401
H       -2.62432213       1.15073675       0.05283188
H       -0.10282388       2.08567922       0.15175127
13
Frame=2 idx=000691 GeodesicLength=0.08556704679524146 rxn_smarts="[C:1]([c:2]1[c:3]([H:10])[n:4]([H:11])[c:5]([H:12])[c:6]1[H:13])([H:7])([H:8])[H:9]>>[C:1]([C@@:2]1([H:10])[C:3][N:4]([H:11])[C:5]([H:12])=[C:6]1[H:13])([H:7])([H:8])[H:9]"
C        1.89936881      -0.14455837       0.24299981
C        0.42582542      -0.11462328      -0.03991955
C       -0.40554823      -1.29999125      -0.06018079
N       -1.66636147      -0.76095379      -0.08195417
C       -1.69178744       0.60727963       0.02632387
C       -0.41866485       1.06042673       0.04429897
H        2.07521541       0.03961285       1.30398805
H        2.30821947      -1.12563920       0.00190115
H        2.43730371       0.61674497      -0.32435187
H        0.24901436      -0.79011698      -1.12876106
H       -2.48661160      -1.32598568      -0.20656667
H       -2.62388024       1.15211233       0.06649633
H       -0.10209336       2.08569202       0.15572593
13
Frame=3 idx=000691 GeodesicLength=0.12836162312622998 rxn_smarts="[C:1]([c:2]1[c:3]([H:10])[n:4]([H:11])[c:5]([H:12])[c:6]1[H:13])([H:7])([H:8])[H:9]>>[C:1]([C@@:2]1([H:10])[C:3][N:4]([H:11])[C:5]([H:12])=[C:6]1[H:13])([H:7])([H:8])[H:9]"
C        1.89764562      -0.14273100       0.24495280
C        0.42749530      -0.11319844      -0.05680604
C       -0.40634954      -1.29557207      -0.06250767
N       -1.66659231      -0.76028772      -0.07682955
C       -1.69114329       0.60959292       0.03043876
C       -0.41786779       1.06186724       0.03289540
H        2.06236730       0.04231479       1.30761284
H        2.31088316      -1.12306462       0.00827928
H        2.44079718       0.61871915      -0.31730695
H        0.25377379      -0.81229437      -1.14543899
H       -2.48669887      -1.32427542      -0.20755921
H       -2.62310346       1.15325152       0.08467048
H       -0.10120709       2.08567801       0.15759885
13
Frame=4 idx=000691 GeodesicLength=0.17116142333884105 rxn_smarts="[C:1]([c:2]1[c:3]([H:10])[n:4]([H:11])[c:5]([H:12])[c:6]1[H:13])([H:7])([H:8])[H:9]>>[C:1]([C@@:2]1([H:10])[C:3][N:4]([H:11])[C:5]([H:12])=[C:6]1[H:13])([H:7])([H:8])[H:9]"
C        1.89572376      -0.14083601       0.24687354
C        0.42912962      -0.11180736      -0.07362916
C       -0.40708775      -1.29110677      -0.06520405
N       -1.66672764      -0.75960137      -0.07173050
C       -1.69037434       0.61187519       0.03525139
C       -0.41712063       1.06325225       0.02213087
H        2.04938869       0.04488789       1.31111024
H        2.31341854      -1.12032308       0.01449318
H        2.44397892       0.62086949      -0.31016431
H        0.25866528      -0.83480727      -1.16179096
H       -2.48670463      -1.32242955      -0.20871338
H       -2.62204820       1.15445005       0.10250710
H       -0.10024163       2.08557656       0.15886605
13
Frame=5 idx=000691 GeodesicLength=0.21395378410320415 rxn_smarts="[C:1]([c:2]1[c:3]([H:10])[n:4]([H:11])[c:5]([H:12])[c:6]1[H:13])([H:7])([H:8])[H:9]>>[C:1]([C@@:2]1([H:10])[C:3][N:4]([H:11])[C:5]([H:12])=[C:6]1[H:13])([H:7])([H:8])[H:9]"
C        1.89366334      -0.13889969       0.24862523
C        0.43071659      -0.11043363      -0.09021943
C       -0.40775151      -1.28661178      -0.06820598
N       -1.66676418      -0.75894214      -0.06630831
C       -1.68948379       0.61406316       0.04130713
C       -0.41644079       1.06454999       0.01252450
H        2.03655517       0.04711814       1.31434881
H        2.31585840      -1.11739448       0.02015445
H        2.44678401       0.62326992      -0.30304548
H        0.26354008      -0.85744067      -1.17776558
H       -2.48662921      -1.32048413      -0.20968379
H       -2.62082107       1.15581141       0.11815564
H       -0.09922704       2.08539390       0.16011280
13
Frame=6 idx=000691 GeodesicLength=0.25668760118613004 rxn_smarts="[C:1]([c:2]1[c:3]([H:10])[n:4]([H:11])[c:5]([H:12])[c:6]1[H:13])([H:7])([H:8])[H:9]>>[C:1]([C@@:2]1([H:10])[C:3][N:4]([H:11])[C:5]([H:12])=[C:6]1[H:13])([H:7])([H:8])[H:9]"
C        1.89157749      -0.13696289       0.24994799
C        0.43223318      -0.10902888      -0.10633443
C       -0.40830632      -1.28209611      -0.07140603
N       -1.66666973      -0.75838082      -0.05991674
C       -1.68845655       0.61605562       0.04962607
C       -0.41583983       1.06572306       0.00496353
H        2.02434418       0.04859987       1.31709553
H        2.31826843      -1.11423076       0.02453277
H        2.44911708       0.62607506      -0.29614520
H        0.26807055      -0.87981348      -1.19331913
H       -2.48645670      -1.31852210      -0.20966766
H       -2.61969803       1.15753867       0.12803644
H       -0.09818374       2.08504276       0.16258687
13
Frame=7 idx=000691 GeodesicLength=0.29943721227193015 rxn_smarts="[C:1]([c:2]1[c:3]([H:10])[n:4]([H:11])[c:5]([H:12])[c:6]1[H:13])([H:7])([H:8])[H:9]>>[C:1]([C@@:2]1([H:10])[C:3][N:4]([H:11])[C:5]([H:12])=[C:6]1[H:13])([H:7])([H:8])[H:9]"
C        1.88934175      -0.13498811       0.25118353
C        0.43369073      -0.10760660      -0.12229002
C       -0.40881977      -1.27753707      -0.07492875
N       -1.66647352      -0.75781751      -0.05347311
C       -1.68727894       0.61800594       0.05865600
C       -0.41528109       1.06686313      -0.00185671
H        2.01216597       0.04988806       1.31967982
H        2.32056960      -1.11094419       0.02863736
H        2.45115101       0.62901891      -0.28925881
H        0.27274130      -0.90246806      -1.20851029
H       -2.48621634      -1.31642127      -0.20967131
H       -2.61851281       1.15929801       0.13703256
H       -0.09707787       2.08470876       0.16479973
13
Frame=8 idx=000691 GeodesicLength=0.3421624098702208 rxn_smarts="[C:1]([c:2]1[c:3]([H:10])[n:4]([H:11])[c:5]([H:12])[c:6]1[H:13])([H:7])([H:8])[H:9]>>[C:1]([C@@:2]1([H:10])[C:3][N:4]([H:11])[C:5]([H:12])=[C:6]1[H:13])([H:7])([H:8])[H:9]"
C        1.88688266      -0.13294101       0.25249466
C        0.43510199      -0.10618830      -0.13826764
C       -0.40932783      -1.27291435      -0.07885942
N       -1.66619445      -0.75720001      -0.04745641
C       -1.68593312       0.61997249       0.06771512
C       -0.41474466       1.06799285      -0.00865952
H        1.99970107       0.05130358       1.32223431
H        2.32270301      -1.10756363       0.03300521
H        2.45296133       0.63196926      -0.28228522
H        0.27779620      -0.92570184      -1.22332220
H       -2.48592391      -1.31410781      -0.21024009
H       -2.61712803       1.16095788       0.14760270
H       -0.09589426       2.08442090       0.16603852
13
Frame=9 idx=000691 GeodesicLength=0.3849053758891549 rxn_smarts="[C:1]([c:2]1[c:3]([H:10])[n:4]([H:11])[c:5]([H:12])[c:6]1[H:13])([H:7])([H:8])[H:9]>>[C:1]([C@@:2]1([H:10])[C:3][N:4]([H:11])[C:5]([H:12])=[C:6]1[H:13])([H:7])([H:8])[H:9]"
C        1.88421203      -0.13082744       0.25384631
C        0.43646453      -0.10475914      -0.15423369
C       -0.40983318      -1.26824160      -0.08319602
N       -1.66583692      -0.75654496      -0.04178926
C       -1.68442176       0.62194099       0.07688598
C       -0.41423644       1.06912255      -0.01536598
H        1.98700229       0.05278512       1.32473855
H        2.32467460      -1.10409226       0.03753482
H        2.45453396       0.63495568      -0.27525162
H        0.28322464      -0.94948937      -1.23773515
H       -2.48559268      -1.31159089      -0.21125531
H       -2.61553554       1.16253733       0.15933146
H       -0.09465552       2.08420400       0.16648991
13
Frame=10 idx=000691 GeodesicLength=0.42765182741372354 rxn_smarts="[C:1]([c:2]1[c:3]([H:10])[n:4]([H:11])[c:5]([H:12])[c:6]1[H:13])([H:7])([H:8])[H:9]>>[C:1]([C@@:2]1([H:10])[C:3][N:4]([H:11])[C:5]([H:12])=[C:6]1[H:13])([H:7])([H:8])[H:9]"
C        1.88135127      -0.12865515       0.25518668
C        0.43777516      -0.10330819      -0.17014139
C       -0.41033751      -1.26351693      -0.08793136
N       -1.66540103      -0.75586368      -0.03635527
C       -1.68274322       0.62389276       0.08631550
C       -0.41376131       1.07024500      -0.02184008
H        1.97415791       0.05425566       1.32714392
H        2.32649375      -1.10051905       0.04208738
H        2.45585168       0.63800646      -0.26819475
H        0.28898594      -0.97376872      -1.25171751
H       -2.48523045      -1.30888184      -0.21255080
H       -2.61376223       1.16406685       0.17157564
H       -0.09337997       2.08404682       0.16642203
13
Frame=11 idx=000691 GeodesicLength=0.4703986123525543 rxn_smarts="[C:1]([c:2]1[c:3]([H:10])[n:4]([H:11])[c:5]([H:12])[c:6]1[H:13])([H:7])([H:8])[H:9]>>[C:1]([C@@:2]1([H:10])[C:3][N:4]([H:11])[C:5]([H:12])=[C:6]1[H:13])([H:7])([H:8])[H:9]"
C        1.87832255      -0.12643273       0.25646827
C        0.43903076      -0.10181965      -0.18595198
C       -0.41084276      -1.25873823      -0.09306158
N       -1.66488461      -0.75516645      -0.03105150
C       -1.68089583       0.62581316       0.09611431
C       -0.41332256       1.07136005      -0.02796433
H        1.96124858       0.05564566       1.32940987
H        2.32817092      -1.09683994       0.04653823
H        2.45690456       0.64114455      -0.26115111
H        0.29504633      -0.99848479      -1.26524780
H       -2.48484406      -1.30599701      -0.21395302
H       -2.61185191       1.16557760       0.18374872
H       -0.09208197       2.08393778       0.16610194
13
Frame=12 idx=000691 GeodesicLength=0.5131465514458353 rxn_smarts="[C:1]([c:2]1[c:3]([H:10])[n:4]([H:11])[c:5]([H:12])[c:6]1[H:13])([H:7])([H:8])[H:9]>>[C:1]([C@@:2]1([H:10])[C:3][N:4]([H:11])[C:5]([H:12])=[C:6]1[H:13])([H:7])([H:8])[H:9]"
C        1.87512899      -0.12416239       0.25768892
C        0.44023165      -0.10028352      -0.20166605
C       -0.41135760      -1.25390105      -0.09860516
N       -1.66429011      -0.75445203      -0.02588603
C       -1.67887966       0.62770443       0.10622575
C       -0.41292077       1.07247527      -0.03377171
H        1.94827536       0.05695149       1.33153766
H        2.32970320      -1.09306037       0.05088753
H        2.45769942       0.64436585      -0.25412254
H        0.30142719      -1.02364563      -1.27830664
H       -2.48444206      -1.30293748      -0.21543457
H       -2.60980307       1.16706140       0.19588550
H       -0.09077254       2.08388403       0.16556733
13
Frame=13 idx=000691 GeodesicLength=0.5559057842371034 rxn_smarts="[C:1]([c:2]1[c:3]([H:10])[n:4]([H:11])[c:5]([H:12])[c:6]1[H:13])([H:7])([H:8])[H:9]>>[C:1]([C@@:2]1([H:10])[C:3][N:4]([H:11])[C:5]([H:12])=[C:6]1[H:13])([H:7])([H:8])[H:9]"
C        1.87177414      -0.12184780       0.25884664
C        0.44137959      -0.09868805      -0.21728657
C       -0.41188977      -1.24900259      -0.10458743
N       -1.66361840      -0.75372160      -0.02086062
C       -1.67669498       0.62956885       0.11660414
C       -0.41255606       1.07360110      -0.03928749
H        1.93523662       0.05816045       1.33353234
H        2.33108871      -1.08918779       0.05512782
H        2.45824497       0.64767065      -0.24710467
H        0.30814788      -1.04925409      -1.29088237
H       -2.48403288      -1.29971144      -0.21695092
H       -2.60761807       1.16851492       0.20799521
H       -0.08946173       2.08389739       0.16485392
13
Frame=14 idx=000691 GeodesicLength=0.5986493916020146 rxn_smarts="[C:1]([c:2]1[c:3]([H:10])[n:4]([H:11])[c:5]([H:12])[c:6]1[H:13])([H:7])([H:8])[H:9]>>[C:1]([C@@:2]1([H:10])[C:3][N:4]([H:11])[C:5]([H:12])=[C:6]1[H:13])([H:7])([H:8])[H:9]"
C        1.86825629      -0.11949110       0.25995115
C        0.44247778      -0.09701907      -0.23282277
C       -0.41244710      -1.24402716      -0.11104288
N       -1.66286871      -0.75296788      -0.01600023
C       -1.67433849       0.63139690       0.12719140
C       -0.41223046       1.07473643      -0.04457166
H        1.92211343       0.05926212       1.33539924
H        2.33232329      -1.08521879       0.05927751
H        2.45854780       0.65104917      -0.24007026
H        0.31523676      -1.07531369      -1.30295066
H       -2.48362248      -1.29630548      -0.21849907
H       -2.60528537       1.16992184       0.22022600
H       -0.08816275       2.08397670       0.16391224
13
Frame=15 idx=000691 GeodesicLength=0.6413842825352208 rxn_smarts="[C:1]([c:2]1[c:3]([H:10])[n:4]([H:11])[c:5]([H:12])[c:6]1[H:13])([H:7])([H:8])[H:9]>>[C:1]([C@@:2]1([H:10])[C:3][N:4]([H:11])[C:5]([H:12])=[C:6]1[H:13])([H:7])([H:8])[H:9]"
C        1.86459997      -0.11711054       0.26096676
C        0.44352553      -0.09524916      -0.24824101
C       -0.41302982      -1.23896891      -0.11799919
N       -1.66202977      -0.75220217      -0.01120519
C       -1.67183276       0.63320473       0.13794443
C       -0.41193799       1.07590067      -0.04948019
H        1.90898122       0.06015310       1.33712594
H        2.33341569      -1.08116749       0.06320255
H        2.45861292       0.65452714      -0.23302972
H        0.32265033      -1.10173146      -1.31452946
H       -2.48321391      -1.29279533      -0.21978338
H       -2.60285707       1.17130747       0.23201805
H       -0.08688434       2.08413194       0.16301042
13
Frame=16 idx=000691 GeodesicLength=0.6841316726570159 rxn_smarts="[C:1]([c:2]1[c:3]([H:10])[n:4]([H:11])[c:5]([H:12])[c:6]1[H:13])([H:7])([H:8])[H:9]>>[C:1]([C@@:2]1([H:10])[C:3][N:4]([H:11])[C:5]([H:12])=[C:6]1[H:13])([H:7])([H:8])[H:9]"
C        1.86076742      -0.11469326       0.26196708
C        0.44453761      -0.09338801      -0.26362215
C       -0.41365464      -1.23382546      -0.12552782
N       -1.66111052      -0.75141071      -0.00665182
C       -1.66914847       0.63498657       0.14877513
C       -0.41168460       1.07710055      -0.05432144
H        1.89567690       0.06093285       1.33877564
H        2.33434029      -1.07704056       0.06710973
H        2.45846059       0.65807193      -0.22590106
H        0.33050788      -1.12863935      -1.32559200
H       -2.48281877      -1.28911493      -0.22111646
H       -2.60023412       1.17261446       0.24440845
H       -0.08563957       2.08440592       0.16169671
