11
Frame=0 idx=001576 GeodesicLength=0.0 rxn_smarts="[C:1]([n:2]1[c:3]([H:10])[n:4][c:5]([H:11])[n:6]1)([H:7])([H:8])[H:9]>>[C:1]([N:2]=[C:3]=[N:4][H:10])([H:7])([H:8])[H:9].[C:5](#[N:6])[H:11]"
C       -1.95746375      -0.02472442       0.08864628
N       -0.53203484      -0.19374903      -0.00173832
C        0.36686758       0.67160594       0.08824503
N        1.61843261       0.87575981       0.05957516
C        2.36215840      -0.88812037      -0.25037907
N        1.52478194      -1.69554398      -0.33299421
H       -2.42021137      -1.00297451      -0.03762083
H       -2.26757844       0.36481365       1.06283250
H       -2.34630778       0.63106456      -0.69589982
H        0.27595578       1.80164409       0.26704203
H        3.37539984      -0.53977579      -0.24770874
11
Frame=1 idx=001576 GeodesicLength=0.06394368711478074 rxn_smarts="[C:1]([n:2]1[c:3]([H:10])[n:4][c:5]([H:11])[n:6]1)([H:7])([H:8])[H:9]>>[C:1]([N:2]=[C:3]=[N:4][H:10])([H:7])([H:8])[H:9].[C:5](#[N:6])[H:11]"
C       -1.95281054      -0.03145492       0.09385440
N       -0.52833928      -0.19029915      -0.03166225
C        0.36068446       0.69052677      -0.00062110
N        1.61401635       0.88136261       0.03402112
C        2.35522659      -0.89919344      -0.17723865
N        1.51776260      -1.70930304      -0.28392836
H       -2.42312334      -0.99378722      -0.10616238
H       -2.24527751       0.27409239       1.10247519
H       -2.36154516       0.68641832      -0.62309309
H        0.30529455       1.82147490       0.24873241
H        3.35811127      -0.52983720      -0.25637729
11
Frame=2 idx=001576 GeodesicLength=0.12863843533826522 rxn_smarts="[C:1]([n:2]1[c:3]([H:10])[n:4][c:5]([H:11])[n:6]1)([H:7])([H:8])[H:9]>>[C:1]([N:2]=[C:3]=[N:4][H:10])([H:7])([H:8])[H:9].[C:5](#[N:6])[H:11]"
C       -1.94676074      -0.03833891       0.09547397
N       -0.52314902      -0.18742384      -0.05474648
C        0.35555708       0.70581886      -0.06961941
N        1.60875803       0.88832389      -0.00067271
C        2.34673961      -0.90280273      -0.12049305
N        1.51011105      -1.72190571      -0.20661687
H       -2.42672601      -0.97705781      -0.17995880
H       -2.22733448       0.18092524       1.12923899
H       -2.36666493       0.73794933      -0.55036390
H        0.33377096       1.83612708       0.23885438
H        3.33569845      -0.52161541      -0.28109612
11
Frame=3 idx=001576 GeodesicLength=0.19374085234373473 rxn_smarts="[C:1]([n:2]1[c:3]([H:10])[n:4][c:5]([H:11])[n:6]1)([H:7])([H:8])[H:9]>>[C:1]([N:2]=[C:3]=[N:4][H:10])([H:7])([H:8])[H:9].[C:5](#[N:6])[H:11]"
C       -1.94020682      -0.04573653       0.09722352
N       -0.51744988      -0.18578796      -0.07335061
C        0.35059982       0.71813194      -0.12673611
N        1.60344089       0.89509214      -0.03804436
C        2.33792001      -0.90186915      -0.07004094
N        1.50185837      -1.72970975      -0.12779132
H       -2.43202894      -0.95218283      -0.25497426
H       -2.21121673       0.08261215       1.14833299
H       -2.36607217       0.78557128      -0.47132320
H        0.36188995       1.85084639       0.21986427
H        3.31126550      -0.51696768      -0.30315999
11
Frame=4 idx=001576 GeodesicLength=0.25906811774337746 rxn_smarts="[C:1]([n:2]1[c:3]([H:10])[n:4][c:5]([H:11])[n:6]1)([H:7])([H:8])[H:9]>>[C:1]([N:2]=[C:3]=[N:4][H:10])([H:7])([H:8])[H:9].[C:5](#[N:6])[H:11]"
C       -1.93373506      -0.05359736       0.09818901
N       -0.51116405      -0.18554101      -0.08440320
C        0.34548144       0.72819355      -0.17416311
N        1.59838153       0.90131595      -0.07759338
C        2.32972626      -0.89709099      -0.02474276
N        1.49399340      -1.73274750      -0.04505207
H       -2.43746361      -0.92077011      -0.32840137
H       -2.20075069      -0.01525441       1.15707754
H       -2.35997293       0.82608108      -0.39150232
H        0.39098374       1.86474688       0.20088900
H        3.28451997      -0.51533607      -0.33029732
11
Frame=5 idx=001576 GeodesicLength=0.3245431142207214 rxn_smarts="[C:1]([n:2]1[c:3]([H:10])[n:4][c:5]([H:11])[n:6]1)([H:7])([H:8])[H:9]>>[C:1]([N:2]=[C:3]=[N:4][H:10])([H:7])([H:8])[H:9].[C:5](#[N:6])[H:11]"
C       -1.92721045      -0.06184078       0.09982873
N       -0.50471893      -0.18633344      -0.09297639
C        0.34000354       0.73622944      -0.21785035
N        1.59307356       0.90628065      -0.11685577
C        2.32168587      -0.88963835       0.01807614
N        1.48640979      -1.73158060       0.03419761
H       -2.44398623      -0.88122510      -0.39958435
H       -2.19170079      -0.11598530       1.15832771
H       -2.35058615       0.86102616      -0.30517073
H        0.41994585       1.87927598       0.17432405
H        3.25708394      -0.51620866      -0.35231665
11
Frame=6 idx=001576 GeodesicLength=0.3900730092268202 rxn_smarts="[C:1]([n:2]1[c:3]([H:10])[n:4][c:5]([H:11])[n:6]1)([H:7])([H:8])[H:9]>>[C:1]([N:2]=[C:3]=[N:4][H:10])([H:7])([H:8])[H:9].[C:5](#[N:6])[H:11]"
C       -1.92079638      -0.07033664       0.10194571
N       -0.49807835      -0.18816753      -0.09828902
C        0.33419740       0.74225671      -0.25817743
N        1.58750804       0.90989370      -0.15459655
C        2.31408347      -0.88002884       0.05848030
N        1.47946878      -1.72694715       0.11075174
H       -2.45106850      -0.83364679      -0.46746299
H       -2.18528507      -0.21807463       1.15116448
H       -2.33772610       0.88946482      -0.21363654
H        0.44856694       1.89446081       0.14122094
H        3.22912977      -0.51887447      -0.37140064
11
Frame=7 idx=001576 GeodesicLength=0.4554057604887145 rxn_smarts="[C:1]([n:2]1[c:3]([H:10])[n:4][c:5]([H:11])[n:6]1)([H:7])([H:8])[H:9]>>[C:1]([N:2]=[C:3]=[N:4][H:10])([H:7])([H:8])[H:9].[C:5](#[N:6])[H:11]"
C       -1.91468321      -0.07901198       0.10402911
N       -0.49103082      -0.19080156      -0.09811043
C        0.32801247       0.74650603      -0.29394245
N        1.58173501       0.91229362      -0.19061985
C        2.30738929      -0.86854532       0.09570157
N        1.47374564      -1.71900139       0.18646694
H       -2.45692277      -0.77966042      -0.53095854
H       -2.18371360      -0.31817247       1.13475849
H       -2.32176539       0.90999312      -0.12076868
H        0.47727781       1.90972563       0.10519863
H        3.19995556      -0.52332527      -0.39175479
11
Frame=8 idx=001576 GeodesicLength=0.5205810417649646 rxn_smarts="[C:1]([n:2]1[c:3]([H:10])[n:4][c:5]([H:11])[n:6]1)([H:7])([H:8])[H:9]>>[C:1]([N:2]=[C:3]=[N:4][H:10])([H:7])([H:8])[H:9].[C:5](#[N:6])[H:11]"
C       -1.90914264      -0.08795097       0.10564923
N       -0.48326550      -0.19371557      -0.09117522
C        0.32153818       0.74947983      -0.32425026
N        1.57605919       0.91377804      -0.22508643
C        2.30218232      -0.85539212       0.12928384
N        1.46985776      -1.70721645       0.26410069
H       -2.46007670      -0.72066814      -0.59053456
H       -2.18820185      -0.41476192       1.10906235
H       -2.30418372       0.92203647      -0.02870743
H        0.50676309       1.92489274       0.06865098
H        3.16846986      -0.53048191      -0.41699320
11
Frame=9 idx=001576 GeodesicLength=0.5857328197462731 rxn_smarts="[C:1]([n:2]1[c:3]([H:10])[n:4][c:5]([H:11])[n:6]1)([H:7])([H:8])[H:9]>>[C:1]([N:2]=[C:3]=[N:4][H:10])([H:7])([H:8])[H:9].[C:5](#[N:6])[H:11]"
C       -1.90295355      -0.09675051       0.10871629
N       -0.47677704      -0.19800810      -0.09289418
C        0.31392420       0.75054294      -0.35888205
N        1.56871367       0.91326529      -0.26099269
C        2.29495377      -0.84077444       0.16499719
N        1.46448207      -1.69483721       0.33012435
H       -2.46825736      -0.65127630      -0.64043370
H       -2.18675437      -0.51297368       1.07654054
H       -2.28253045       0.92715734       0.07339060
H        0.53431496       1.93912202       0.02306772
H        3.14088410      -0.53546734      -0.42363408
11
Frame=10 idx=001576 GeodesicLength=0.6509102156506393 rxn_smarts="[C:1]([n:2]1[c:3]([H:10])[n:4][c:5]([H:11])[n:6]1)([H:7])([H:8])[H:9]>>[C:1]([N:2]=[C:3]=[N:4][H:10])([H:7])([H:8])[H:9].[C:5](#[N:6])[H:11]"
C       -1.89728591      -0.10571947       0.11137918
N       -0.47001871      -0.20296945      -0.09338908
C        0.30605760       0.75070672      -0.39065115
N        1.56138481       0.91187348      -0.29572567
C        2.28830160      -0.82473334       0.19864896
N        1.45990643      -1.68001284       0.39529663
H       -2.47632248      -0.57772917      -0.68278496
H       -2.18826771      -0.60603109       1.03598999
H       -2.25897922       0.92322323       0.17445822
H        0.56228300       1.95260403      -0.02272006
H        3.11294059      -0.54121209      -0.43050207
11
Frame=11 idx=001576 GeodesicLength=0.7159127949945927 rxn_smarts="[C:1]([n:2]1[c:3]([H:10])[n:4][c:5]([H:11])[n:6]1)([H:7])([H:8])[H:9]>>[C:1]([N:2]=[C:3]=[N:4][H:10])([H:7])([H:8])[H:9].[C:5](#[N:6])[H:11]"
C       -1.89197470      -0.11514449       0.11243037
N       -0.46236079      -0.20691742      -0.08422336
C        0.29759533       0.75140251      -0.41385354
N        1.55417819       0.91016883      -0.32865174
C        2.28384813      -0.80756947       0.22693757
N        1.45773880      -1.65998356       0.46775910
H       -2.47737191      -0.50472840      -0.72064690
H       -2.19691179      -0.69105816       0.98668609
H       -2.23645299       0.90985371       0.26714052
H        0.59225209       1.96585048      -0.06305946
H        3.07945965      -0.55187403      -0.45051866
11
Frame=12 idx=001576 GeodesicLength=0.7807892262826209 rxn_smarts="[C:1]([n:2]1[c:3]([H:10])[n:4][c:5]([H:11])[n:6]1)([H:7])([H:8])[H:9]>>[C:1]([N:2]=[C:3]=[N:4][H:10])([H:7])([H:8])[H:9].[C:5](#[N:6])[H:11]"
C       -1.88644794      -0.12431249       0.11387030
N       -0.45533028      -0.21219888      -0.08218615
C        0.28887382       0.75123907      -0.43868610
N        1.54631105       0.90747885      -0.35916560
C        2.27784215      -0.79010539       0.25579677
N        1.45412794      -1.64089172       0.53004685
H       -2.48230478      -0.42874390      -0.74681337
H       -2.20186723      -0.76996218       0.93351163
H       -2.21109077       0.88914650       0.35989800
H        0.62089365       1.97831764      -0.10743756
H        3.04899241      -0.55996750      -0.45883477
11
Frame=13 idx=001576 GeodesicLength=0.8463505312695427 rxn_smarts="[C:1]([n:2]1[c:3]([H:10])[n:4][c:5]([H:11])[n:6]1)([H:7])([H:8])[H:9]>>[C:1]([N:2]=[C:3]=[N:4][H:10])([H:7])([H:8])[H:9].[C:5](#[N:6])[H:11]"
C       -1.88044009      -0.13394519       0.11481575
N       -0.44883492      -0.21935325      -0.08899809
C        0.27953830       0.75107632      -0.46538918
N        1.53789761       0.90366440      -0.39216235
C        2.27038514      -0.77024814       0.28605146
N        1.44879784      -1.61790427       0.59306532
H       -2.49131847      -0.34597905      -0.76303888
H       -2.20395853      -0.84688729       0.87279382
H       -2.18105337       0.85903001       0.45621782
H        0.65032382       1.98906987      -0.15204237
H        3.01866268      -0.56852342      -0.46131329
11
Frame=14 idx=001576 GeodesicLength=0.9121016789545826 rxn_smarts="[C:1]([n:2]1[c:3]([H:10])[n:4][c:5]([H:11])[n:6]1)([H:7])([H:8])[H:9]>>[C:1]([N:2]=[C:3]=[N:4][H:10])([H:7])([H:8])[H:9].[C:5](#[N:6])[H:11]"
C       -1.87426915      -0.14427492       0.11408478
N       -0.44180096      -0.22581160      -0.09346460
C        0.26964462       0.75296059      -0.48668025
N        1.52960142       0.89947947      -0.42608790
C        2.26360247      -0.74895031       0.31273840
N        1.44386910      -1.58825646       0.66209034
H       -2.49650836      -0.26599671      -0.77282760
H       -2.20824771      -0.91626046       0.80616832
H       -2.15161111       0.82011751       0.54506900
H        0.68280661       1.99917954      -0.18965946
H        2.98291307      -0.58218666      -0.47143102
11
Frame=15 idx=001576 GeodesicLength=0.978520081830565 rxn_smarts="[C:1]([n:2]1[c:3]([H:10])[n:4][c:5]([H:11])[n:6]1)([H:7])([H:8])[H:9]>>[C:1]([N:2]=[C:3]=[N:4][H:10])([H:7])([H:8])[H:9].[C:5](#[N:6])[H:11]"
C       -1.86764908      -0.15486787       0.11319125
N       -0.43508719      -0.23377321      -0.10420995
C        0.25948639       0.75507853      -0.50861734
N        1.52094076       0.89452113      -0.45943508
C        2.25523976      -0.72647940       0.33999585
N        1.43682555      -1.55663217       0.72755264
H       -2.50403513      -0.18338549      -0.77161020
H       -2.21123087      -0.98025750       0.73471240
H       -2.11806858       0.77237176       0.63290481
H        0.71587505       2.00859601      -0.22942405
H        2.94770334      -0.59517181      -0.47506033
11
Frame=16 idx=001576 GeodesicLength=1.04563356703212 rxn_smarts="[C:1]([n:2]1[c:3]([H:10])[n:4][c:5]([H:11])[n:6]1)([H:7])([H:8])[H:9]>>[C:1]([N:2]=[C:3]=[N:4][H:10])([H:7])([H:8])[H:9].[C:5](#[N:6])[H:11]"
C       -1.86059413      -0.16591719       0.11171178
N       -0.42836305      -0.24231307      -0.11813156
C        0.24898960       0.75837319      -0.52907803
N        1.51209830       0.88893573      -0.49290242
C        2.24586834      -0.70279888       0.36642351
N        1.42809580      -1.52117355       0.79253075
H       -2.51130935      -0.10112724      -0.76071483
H       -2.21441738      -1.03781665       0.65881365
H       -2.08196045       0.71587965       0.71660585
H        0.75078073       2.01737514      -0.26838749
H        2.91081160      -0.60941713      -0.47687119
