10
Frame=0 idx=005724 GeodesicLength=0.0 rxn_smarts="[C:1]([C:2]([C:3]#[C:4][H:10])([H:8])[H:9])([H:5])([H:6])[H:7]>>[C:1]1([H:5])([H:7])[C:2]([H:8])([H:9])[C:3]1=[C:4]([H:6])[H:10]"
C       -0.94086355       0.71540414       0.00606401
C       -0.56694899      -0.72406242       0.24034178
C        0.86874046      -0.81201019       0.34861662
C        1.60882494      -0.03107782      -0.34406453
H       -2.00539537       0.95676632       0.01402818
H        0.79028153       0.64837383      -0.90322070
H       -0.34465958       1.45619460       0.52413586
H       -1.15091996      -0.97680668       1.14603323
H       -0.91230769      -1.41443042      -0.53050216
H        2.65324820       0.18164863      -0.50143230
10
Frame=1 idx=005724 GeodesicLength=0.09167325662794133 rxn_smarts="[C:1]([C:2]([C:3]#[C:4][H:10])([H:8])[H:9])([H:5])([H:6])[H:7]>>[C:1]1([H:5])([H:7])[C:2]([H:8])([H:9])[C:3]1=[C:4]([H:6])[H:10]"
C       -0.93188093       0.71036038       0.00304629
C       -0.57612040      -0.73374035       0.23937215
C        0.85983015      -0.78115233       0.36226049
C        1.61670916      -0.03030338      -0.34336971
H       -1.99755188       0.94712035       0.03602755
H        0.78498397       0.67582906      -0.90045079
H       -0.35892462       1.47924465       0.50611217
H       -1.15595629      -0.99315649       1.14420265
H       -0.90749751      -1.42103757      -0.53955597
H        2.66640835       0.14683569      -0.50764482
10
Frame=2 idx=005724 GeodesicLength=0.18334500566523748 rxn_smarts="[C:1]([C:2]([C:3]#[C:4][H:10])([H:8])[H:9])([H:5])([H:6])[H:7]>>[C:1]1([H:5])([H:7])[C:2]([H:8])([H:9])[C:3]1=[C:4]([H:6])[H:10]"
C       -0.92292982       0.70544187       0.00085105
C       -0.58471951      -0.74325744       0.23838788
C        0.85062238      -0.75093146       0.37355931
C        1.62466939      -0.02931323      -0.34201767
H       -1.98934868       0.93707549       0.05741433
H        0.77976497       0.70450271      -0.89720736
H       -0.37418573       1.50253455       0.48670610
H       -1.15913116      -1.00968903       1.14303546
H       -0.90340297      -1.42715509      -0.54809790
H        2.67866112       0.11079164      -0.51263119
10
Frame=3 idx=005724 GeodesicLength=0.27503762696980033 rxn_smarts="[C:1]([C:2]([C:3]#[C:4][H:10])([H:8])[H:9])([H:5])([H:6])[H:7]>>[C:1]1([H:5])([H:7])[C:2]([H:8])([H:9])[C:3]1=[C:4]([H:6])[H:10]"
C       -0.91394707       0.70070782      -0.00053559
C       -0.59276081      -0.75259238       0.23741251
C        0.84122722      -0.72148064       0.38267128
C        1.63282422      -0.02795108      -0.33980114
H       -1.98081651       0.92670036       0.07817813
H        0.77456482       0.73425724      -0.89354684
H       -0.39045609       1.52592831       0.46597082
H       -1.16053804      -1.02641097       1.14249588
H       -0.90005158      -1.43273136      -0.55622586
H        2.68995384       0.07357269      -0.51661920
10
Frame=4 idx=005724 GeodesicLength=0.3666789703675074 rxn_smarts="[C:1]([C:2]([C:3]#[C:4][H:10])([H:8])[H:9])([H:5])([H:6])[H:7]>>[C:1]1([H:5])([H:7])[C:2]([H:8])([H:9])[C:3]1=[C:4]([H:6])[H:10]"
C       -0.90484284       0.69621370      -0.00122810
C       -0.60020908      -0.76168891       0.23637394
C        0.83171869      -0.69301544       0.38948947
C        1.64116556      -0.02629370      -0.33678730
H       -1.97184612       0.91613315       0.09873269
H        0.76917756       0.76477417      -0.88967602
H       -0.40774025       1.54924509       0.44374160
H       -1.16005340      -1.04318713       1.14245312
H       -0.89749818      -1.43769788      -0.56395788
H        2.70012806       0.03551696      -0.51914151
10
Frame=5 idx=005724 GeodesicLength=0.458334634881273 rxn_smarts="[C:1]([C:2]([C:3]#[C:4][H:10])([H:8])[H:9])([H:5])([H:6])[H:7]>>[C:1]1([H:5])([H:7])[C:2]([H:8])([H:9])[C:3]1=[C:4]([H:6])[H:10]"
C       -0.89550501       0.69199918      -0.00115159
C       -0.60719690      -0.77059316       0.23533312
C        0.82216174      -0.66577779       0.39408433
C        1.64980321      -0.02449411      -0.33310701
H       -1.96238270       0.90554469       0.11900212
H        0.76352756       0.79579501      -0.88586464
H       -0.42578091       1.57229873       0.42010156
H       -1.15785251      -1.06007543       1.14299321
H       -0.89605078      -1.44205357      -0.57135322
H        2.70927630      -0.00264356      -0.52003788
10
Frame=6 idx=005724 GeodesicLength=0.5499991597396036 rxn_smarts="[C:1]([C:2]([C:3]#[C:4][H:10])([H:8])[H:9])([H:5])([H:6])[H:7]>>[C:1]1([H:5])([H:7])[C:2]([H:8])([H:9])[C:3]1=[C:4]([H:6])[H:10]"
C       -0.88592475       0.68811212      -0.00036339
C       -0.61374179      -0.77925589       0.23425797
C        0.81264097      -0.63978288       0.39659419
C        1.65883439      -0.02251294      -0.32864950
H       -1.95243426       0.89500198       0.13924251
H        0.75752029       0.82719095      -0.88219602
H       -0.44466657       1.59496391       0.39499186
H       -1.15399702      -1.07705418       1.14399294
H       -0.89568016      -1.44575048      -0.57850367
H        2.71744891      -0.04091259      -0.51936688
10
Frame=7 idx=005724 GeodesicLength=0.6416640665211367 rxn_smarts="[C:1]([C:2]([C:3]#[C:4][H:10])([H:8])[H:9])([H:5])([H:6])[H:7]>>[C:1]1([H:5])([H:7])[C:2]([H:8])([H:9])[C:3]1=[C:4]([H:6])[H:10]"
C       -0.87604801       0.68459183       0.00113709
C       -0.61990032      -0.78765728       0.23314192
C        0.80320906      -0.61511573       0.39707659
C        1.66830872      -0.02048166      -0.32347324
H       -1.94194263       0.88462204       0.15959525
H        0.75104892       0.85879213      -0.87881335
H       -0.46436154       1.61706884       0.36840627
H       -1.14854687      -1.09411289       1.14538424
H       -0.89648991      -1.44874735      -0.58544986
H        2.72472258      -0.07895994      -0.51700491
10
Frame=8 idx=005724 GeodesicLength=0.7333208096584124 rxn_smarts="[C:1]([C:2]([C:3]#[C:4][H:10])([H:8])[H:9])([H:5])([H:6])[H:7]>>[C:1]1([H:5])([H:7])[C:2]([H:8])([H:9])[C:3]1=[C:4]([H:6])[H:10]"
C       -0.86600139       0.68150393       0.00329855
C       -0.62553332      -0.79564170       0.23195140
C        0.79402355      -0.59153787       0.39591729
C        1.67839434      -0.01815037      -0.31701634
H       -1.93109024       0.87439019       0.18010200
H        0.74400755       0.89069724      -0.87543361
H       -0.48534881       1.63847975       0.34032309
H       -1.14145147      -1.11120179       1.14689547
H       -0.89801563      -1.45084088      -0.59229851
H        2.73101541      -0.11769850      -0.51373934
10
Frame=9 idx=005724 GeodesicLength=0.8249569305866986 rxn_smarts="[C:1]([C:2]([C:3]#[C:4][H:10])([H:8])[H:9])([H:5])([H:6])[H:7]>>[C:1]1([H:5])([H:7])[C:2]([H:8])([H:9])[C:3]1=[C:4]([H:6])[H:10]"
C       -0.85563585       0.67892107       0.00581875
C       -0.63050925      -0.80319528       0.23083662
C        0.78504042      -0.56841112       0.39443457
C        1.68957777      -0.01418144      -0.30701281
H       -1.91987809       0.86396394       0.19951908
H        0.73701157       0.92356364      -0.87116679
H       -0.50795225       1.65911709       0.31136161
H       -1.13329852      -1.12845832       1.14831331
H       -0.89923718      -1.45235863      -0.59908856
H        2.73488137      -0.15896096      -0.51301578
10
Frame=10 idx=005724 GeodesicLength=0.9164748435103589 rxn_smarts="[C:1]([C:2]([C:3]#[C:4][H:10])([H:8])[H:9])([H:5])([H:6])[H:7]>>[C:1]1([H:5])([H:7])[C:2]([H:8])([H:9])[C:3]1=[C:4]([H:6])[H:10]"
C       -0.84463973       0.67663197       0.00958455
C       -0.63586247      -0.81056009       0.22942930
C        0.77613488      -0.54807197       0.38883883
C        1.70050455      -0.01318722      -0.30024840
H       -1.90734362       0.85467967       0.22155164
H        0.72843956       0.95480811      -0.86934329
H       -0.52994700       1.67832607       0.28001036
H       -1.12318658      -1.14565702       1.15019051
H       -0.90437632      -1.45262038      -0.60562182
H        2.74027674      -0.19434914      -0.50439169
10
Frame=11 idx=005724 GeodesicLength=1.0081120580157996 rxn_smarts="[C:1]([C:2]([C:3]#[C:4][H:10])([H:8])[H:9])([H:5])([H:6])[H:7]>>[C:1]1([H:5])([H:7])[C:2]([H:8])([H:9])[C:3]1=[C:4]([H:6])[H:10]"
C       -0.83333787       0.67496305       0.01389578
C       -0.64068638      -0.81747025       0.22804305
C        0.76756956      -0.52844155       0.38252157
C        1.71242616      -0.01142358      -0.29093375
H       -1.89438095       0.84556935       0.24335821
H        0.71948406       0.98673666      -0.86721696
H       -0.55369032       1.69656102       0.24727783
H       -1.11183392      -1.16307914       1.15196385
H       -0.90975031      -1.45210064      -0.61218522
H        2.74419997      -0.23131492      -0.49672435
10
Frame=12 idx=005724 GeodesicLength=1.0997010735946995 rxn_smarts="[C:1]([C:2]([C:3]#[C:4][H:10])([H:8])[H:9])([H:5])([H:6])[H:7]>>[C:1]1([H:5])([H:7])[C:2]([H:8])([H:9])[C:3]1=[C:4]([H:6])[H:10]"
C       -0.82156009       0.67382485       0.01903277
C       -0.64550720      -0.82397182       0.22650238
C        0.75925860      -0.51048387       0.37385721
C        1.72478762      -0.01074643      -0.28170455
H       -1.88049623       0.83722181       0.26637640
H        0.70945862       1.01822531      -0.86620546
H       -0.57821120       1.71322937       0.21293909
H       -1.09894415      -1.18054476       1.15373280
H       -0.91726278      -1.45048272      -0.61863746
H        2.74847679      -0.26627174      -0.48589316
10
Frame=13 idx=005724 GeodesicLength=1.191301406876767 rxn_smarts="[C:1]([C:2]([C:3]#[C:4][H:10])([H:8])[H:9])([H:5])([H:6])[H:7]>>[C:1]1([H:5])([H:7])[C:2]([H:8])([H:9])[C:3]1=[C:4]([H:6])[H:10]"
C       -0.80932975       0.67330561       0.02491252
C       -0.65011757      -0.82996202       0.22488212
C        0.75130009      -0.49357884       0.36368417
C        1.73798009      -0.01029194      -0.27105958
H       -1.86584862       0.82936469       0.29014619
H        0.69868948       1.04987764      -0.86561390
H       -0.60422194       1.72831363       0.17687964
H       -1.08471329      -1.19816405       1.15527906
H       -0.92605056      -1.44777966      -0.62506418
H        2.75231207      -0.30108505      -0.47404602
10
Frame=14 idx=005724 GeodesicLength=1.2828564765141883 rxn_smarts="[C:1]([C:2]([C:3]#[C:4][H:10])([H:8])[H:9])([H:5])([H:6])[H:7]>>[C:1]1([H:5])([H:7])[C:2]([H:8])([H:9])[C:3]1=[C:4]([H:6])[H:10]"
C       -0.79653989       0.67341898       0.03168341
C       -0.65473376      -0.83539924       0.22306587
C        0.74365042      -0.47817239       0.35112330
C        1.75165400      -0.01093164      -0.26018731
H       -1.85007386       0.82234839       0.31541603
H        0.68668275       1.08125869      -0.86611902
H       -0.63147422       1.74135048       0.13903866
H       -1.06884304      -1.21588650       1.15651275
H       -0.93704433      -1.44367772      -0.63139017
H        2.75672193      -0.33430906      -0.45914351
10
Frame=15 idx=005724 GeodesicLength=1.3744050702112829 rxn_smarts="[C:1]([C:2]([C:3]#[C:4][H:10])([H:8])[H:9])([H:5])([H:6])[H:7]>>[C:1]1([H:5])([H:7])[C:2]([H:8])([H:9])[C:3]1=[C:4]([H:6])[H:10]"
C       -0.78317324       0.67426382       0.03927452
C       -0.65919989      -0.84019153       0.22112188
C        0.73641380      -0.46375586       0.33674854
C        1.76618608      -0.01204261      -0.24785955
H       -1.83327699       0.81598254       0.34186451
H        0.67376530       1.11291423      -0.86715455
H       -0.66063292       1.75216200       0.09923871
H       -1.05150773      -1.23374823       1.15727310
H       -0.94962361      -1.43820922      -0.63764213
H        2.76104920      -0.36737514      -0.44286503
10
Frame=16 idx=005724 GeodesicLength=1.4659168482824847 rxn_smarts="[C:1]([C:2]([C:3]#[C:4][H:10])([H:8])[H:9])([H:5])([H:6])[H:7]>>[C:1]1([H:5])([H:7])[C:2]([H:8])([H:9])[C:3]1=[C:4]([H:6])[H:10]"
C       -0.76910761       0.67589316       0.04778533
C       -0.66365971      -0.84426896       0.21895700
C        0.72955972      -0.45054639       0.31986846
C        1.78139142      -0.01412133      -0.23469214
H       -1.81511487       0.81051045       0.37007192
H        0.65964476       1.14474113      -0.86908806
H       -0.69174493       1.76021783       0.05735984
H       -1.03247302      -1.25174122       1.15742392
H       -0.96444796      -1.43109868      -0.64375580
H        2.76595220      -0.39958597      -0.42393048
