13
Frame=0 idx=009845 GeodesicLength=0.0 rxn_smarts="[C:1]1([H:8])([H:9])[O:2][C@@:3]2([H:10])[C@@:4]3([H:11])[O:5][C@:6]1([H:12])[C@@:7]23[H:13]>>[C:1]1([H:8])([H:9])[O:2][C@:3]2([H:10])[C@:4]([H:11])([O:5][C:6]1([H:12])[H:13])[C:7]2"
C        0.66403932       0.63679790       1.06541966
O        0.72890201      -0.77892558       1.06455996
C        0.16868271      -1.32703930      -0.08754219
C       -1.03860924      -0.75112502      -0.70452029
O       -1.36076580       0.53777584      -0.24171262
C       -0.08307513       1.11730663      -0.14804787
C        0.33008393      -0.67252226      -1.45709248
H        1.67626363       1.05351613       1.08645559
H        0.12765769       0.95638629       1.96347534
H        0.29468597      -2.40460026      -0.12172244
H       -1.88184892      -1.32954178      -1.05808254
H       -0.12637894       2.20210418      -0.24950143
H        0.50036279       0.75986720      -1.11168874
13
Frame=1 idx=009845 GeodesicLength=0.06981885230463565 rxn_smarts="[C:1]1([H:8])([H:9])[O:2][C@@:3]2([H:10])[C@@:4]3([H:11])[O:5][C@:6]1([H:12])[C@@:7]23[H:13]>>[C:1]1([H:8])([H:9])[O:2][C@:3]2([H:10])[C@:4]([H:11])([O:5][C:6]1([H:12])[H:13])[C:7]2"
C        0.66415098       0.63702493       1.06374130
O        0.74270913      -0.77785419       1.05493556
C        0.16316829      -1.33428571      -0.08255238
C       -1.04003338      -0.75005446      -0.69970689
O       -1.36225822       0.53823224      -0.23681132
C       -0.08106914       1.11581581      -0.15207707
C        0.32792247      -0.66848740      -1.44388671
H        1.67366451       1.05983697       1.09042692
H        0.12377226       0.94600762       1.96301514
H        0.28687760      -2.41209535      -0.11263531
H       -1.87963888      -1.32697618      -1.06465227
H       -0.13149755       2.20110682      -0.24581931
H        0.51223191       0.77172890      -1.13397766
13
Frame=2 idx=009845 GeodesicLength=0.13963109789742767 rxn_smarts="[C:1]1([H:8])([H:9])[O:2][C@@:3]2([H:10])[C@@:4]3([H:11])[O:5][C@:6]1([H:12])[C@@:7]23[H:13]>>[C:1]1([H:8])([H:9])[O:2][C@:3]2([H:10])[C@:4]([H:11])([O:5][C:6]1([H:12])[H:13])[C:7]2"
C        0.66415394       0.63717789       1.06214687
O        0.75610226      -0.77675454       1.04519837
C        0.15778170      -1.34137443      -0.07757284
C       -1.04147756      -0.74900144      -0.69474183
O       -1.36379613       0.53870048      -0.23172653
C       -0.07910718       1.11435279      -0.15607975
C        0.32572512      -0.66408084      -1.43057997
H        1.67096213       1.06589181       1.09444328
H        0.11992078       0.93554623       1.96257679
H        0.27938690      -2.41938576      -0.10359063
H       -1.87727046      -1.32440099      -1.07112737
H       -0.13628249       2.20001679      -0.24246525
H        0.52390099       0.78331199      -1.15648114
13
Frame=3 idx=009845 GeodesicLength=0.20945081069838356 rxn_smarts="[C:1]1([H:8])([H:9])[O:2][C@@:3]2([H:10])[C@@:4]3([H:11])[O:5][C@:6]1([H:12])[C@@:7]23[H:13]>>[C:1]1([H:8])([H:9])[O:2][C@:3]2([H:10])[C@:4]([H:11])([O:5][C:6]1([H:12])[H:13])[C:7]2"
C        0.66404543       0.63726019       1.06064582
O        0.76905181      -0.77562948       1.03537926
C        0.15254616      -1.34829431      -0.07263066
C       -1.04293518      -0.74796187      -0.68963384
O       -1.36537866       0.53918231      -0.22646980
C       -0.07720071       1.11292628      -0.16003508
C        0.32348095      -0.65931811      -1.41720313
H        1.66816475       1.07166809       1.09850151
H        0.11610911       0.92502152       1.96217117
H        0.27222063      -2.42646542      -0.09460056
H       -1.87473964      -1.32181748      -1.07749171
H       -0.14074771       2.19885488      -0.23942596
H        0.53538304       0.79457340      -1.17920702
13
Frame=4 idx=009845 GeodesicLength=0.2792850561382579 rxn_smarts="[C:1]1([H:8])([H:9])[O:2][C@@:3]2([H:10])[C@@:4]3([H:11])[O:5][C@:6]1([H:12])[C@@:7]23[H:13]>>[C:1]1([H:8])([H:9])[O:2][C@:3]2([H:10])[C@:4]([H:11])([O:5][C:6]1([H:12])[H:13])[C:7]2"
C        0.66382404       0.63727446       1.05924653
O        0.78153249      -0.77448127       1.02550603
C        0.14748385      -1.35503564      -0.06775185
C       -1.04440038      -0.74693116      -0.68439243
O       -1.36700501       0.53967884      -0.22105133
C       -0.07536091       1.11154411      -0.16392254
C        0.32118137      -0.65421376      -1.40378656
H        1.66528098       1.07715478       1.10259905
H        0.11233950       0.91445093       1.96180939
H        0.26538415      -2.43332923      -0.08567487
H       -1.87204445      -1.31922609      -1.08372873
H       -0.14490762       2.19764120      -0.23668827
H        0.54669199       0.80547284      -1.20216442
13
Frame=5 idx=009845 GeodesicLength=0.3491445688305608 rxn_smarts="[C:1]1([H:8])([H:9])[O:2][C@@:3]2([H:10])[C@@:4]3([H:11])[O:5][C@:6]1([H:12])[C@@:7]23[H:13]>>[C:1]1([H:8])([H:9])[O:2][C@:3]2([H:10])[C@:4]([H:11])([O:5][C:6]1([H:12])[H:13])[C:7]2"
C        0.66348924       0.63722575       1.05795662
O        0.79352911      -0.77331218       1.01560950
C        0.14260990      -1.36159271      -0.06295985
C       -1.04586732      -0.74590464      -0.67902729
O       -1.36867568       0.54019070      -0.21547946
C       -0.07359792       1.11021357      -0.16772327
C        0.31881950      -0.64878189      -1.39035563
H        1.66231990       1.08234877       1.10673191
H        0.10861613       0.90385213       1.96150149
H        0.25887775      -2.43997479      -0.07682630
H       -1.86918451      -1.31662576      -1.08982981
H       -0.14878302       2.19639467      -0.23423236
H        0.55784691       0.81596637      -1.22536555
13
Frame=6 idx=009845 GeodesicLength=0.41902387556451703 rxn_smarts="[C:1]1([H:8])([H:9])[O:2][C@@:3]2([H:10])[C@@:4]3([H:11])[O:5][C@:6]1([H:12])[C@@:7]23[H:13]>>[C:1]1([H:8])([H:9])[O:2][C@:3]2([H:10])[C@:4]([H:11])([O:5][C:6]1([H:12])[H:13])[C:7]2"
C        0.66304010       0.63711693       1.05678368
O        0.80502776      -0.77212359       1.00571301
C        0.13794319      -1.36795941      -0.05827949
C       -1.04733107      -0.74487758      -0.67354888
O       -1.37039088       0.54071782      -0.20976130
C       -0.07192175       1.10894134      -0.17141874
C        0.31638841      -0.64303581      -1.37693664
H        1.65928785       1.08724574       1.11090054
H        0.10494051       0.89323897       1.96125767
H        0.25270151      -2.44640028      -0.06806200
H       -1.86616061      -1.31401502      -1.09578146
H       -0.15238938       2.19513202      -0.23204542
H        0.56886436       0.82601889      -1.24882097
13
Frame=7 idx=009845 GeodesicLength=0.48892810126008746 rxn_smarts="[C:1]1([H:8])([H:9])[O:2][C@@:3]2([H:10])[C@@:4]3([H:11])[O:5][C@:6]1([H:12])[C@@:7]23[H:13]>>[C:1]1([H:8])([H:9])[O:2][C@:3]2([H:10])[C@:4]([H:11])([O:5][C:6]1([H:12])[H:13])[C:7]2"
C        0.66247660       0.63695382       1.05573503
O        0.81602902      -0.77091686       0.99584174
C        0.13349363      -1.37413424      -0.05373169
C       -1.04878689      -0.74384475      -0.66796757
O       -1.37215189       0.54125984      -0.20390169
C       -0.07034195       1.10773367      -0.17499099
C        0.31388417      -0.63698966      -1.36354926
H        1.65619107       1.09185190       1.11510413
H        0.10131358       0.88262200       1.96108773
H        0.24684986      -2.45260616      -0.05939312
H       -1.86297578      -1.31138961      -1.10157786
H       -0.15574703       2.19386867      -0.23010967
H        0.57976561       0.83559136      -1.27254680
13
Frame=8 idx=009845 GeodesicLength=0.558858031426168 rxn_smarts="[C:1]1([H:8])([H:9])[O:2][C@@:3]2([H:10])[C@@:4]3([H:11])[O:5][C@:6]1([H:12])[C@@:7]23[H:13]>>[C:1]1([H:8])([H:9])[O:2][C@:3]2([H:10])[C@:4]([H:11])([O:5][C:6]1([H:12])[H:13])[C:7]2"
C        0.66179964       0.63674032       1.05481627
O        0.82653381      -0.76969104       0.98601335
C        0.12927212      -1.38011523      -0.04933665
C       -1.05023046      -0.74280068      -0.66229446
O       -1.37395979       0.54181592      -0.19790530
C       -0.06886800       1.10659704      -0.17842290
C        0.31130341      -0.63065544      -1.35021289
H        1.65303525       1.09617176       1.11934261
H        0.09773559       0.87200972       1.96100129
H        0.24131650      -2.45859360      -0.05082318
H       -1.85963304      -1.30874481      -1.10721355
H       -0.15887815       2.19262038      -0.22840420
H        0.59057313       0.84464566      -1.29656039
13
Frame=9 idx=009845 GeodesicLength=0.6288203704536963 rxn_smarts="[C:1]1([H:8])([H:9])[O:2][C@@:3]2([H:10])[C@@:4]3([H:11])[O:5][C@:6]1([H:12])[C@@:7]23[H:13]>>[C:1]1([H:8])([H:9])[O:2][C@:3]2([H:10])[C@:4]([H:11])([O:5][C:6]1([H:12])[H:13])[C:7]2"
C        0.66100934       0.63648265       1.05403377
O        0.83654875      -0.76844599       0.97624479
C        0.12528604      -1.38589951      -0.04511175
C       -1.05165637      -0.74173873      -0.65654103
O       -1.37581552       0.54238713      -0.19177673
C       -0.06750861       1.10554004      -0.18169772
C        0.30864313      -0.62404935      -1.33694356
H        1.64982525       1.10021468       1.12361585
H        0.09420694       0.86140782       1.96100646
H        0.23609218      -2.46436108      -0.04236038
H       -1.85613510      -1.30607601      -1.11268380
H       -0.16180934       2.19140094      -0.22690129
H        0.60131331       0.85313741      -1.32088460
13
Frame=10 idx=009845 GeodesicLength=0.6988021226295615 rxn_smarts="[C:1]1([H:8])([H:9])[O:2][C@@:3]2([H:10])[C@@:4]3([H:11])[O:5][C@:6]1([H:12])[C@@:7]23[H:13]>>[C:1]1([H:8])([H:9])[O:2][C@:3]2([H:10])[C@:4]([H:11])([O:5][C:6]1([H:12])[H:13])[C:7]2"
C        0.66010663       0.63618433       1.05339351
O        0.84608627      -0.76718031       0.96655091
C        0.12153960      -1.39148988      -0.04107307
C       -1.05306379      -0.74065483      -0.65071452
O       -1.37772291       0.54297051      -0.18551412
C       -0.06627211       1.10456529      -0.18480030
C        0.30590417      -0.61717297      -1.32375364
H        1.64656320       1.10399103       1.12792778
H        0.09072591       0.85081917       1.96111274
H        0.23117178      -2.46991271      -0.03401007
H       -1.85248986      -1.30337629      -1.11798864
H       -0.16455485       2.19022229      -0.22559208
H        0.61200596       0.86103436      -1.34553848
13
Frame=11 idx=009845 GeodesicLength=0.7687995566239405 rxn_smarts="[C:1]1([H:8])([H:9])[O:2][C@@:3]2([H:10])[C@@:4]3([H:11])[O:5][C@:6]1([H:12])[C@@:7]23[H:13]>>[C:1]1([H:8])([H:9])[O:2][C@:3]2([H:10])[C@:4]([H:11])([O:5][C:6]1([H:12])[H:13])[C:7]2"
C        0.65909336       0.63585094       1.05290033
O        0.85516691      -0.76589073       0.95694267
C        0.11803514      -1.39689017      -0.03723585
C       -1.05445021      -0.73954307      -0.64482429
O       -1.37968371       0.54356483      -0.17911667
C       -0.06516563       1.10367842      -0.18771683
C        0.30308693      -0.61003662      -1.31065165
H        1.64325130       1.10751887       1.13228278
H        0.08728932       0.84024253       1.96132783
H        0.22654367      -2.47525250      -0.02577671
H       -1.84870526      -1.30063584      -1.12312988
H       -0.16713758       2.18909428      -0.22445505
H        0.62267576       0.86829907      -1.37054668
13
Frame=12 idx=009845 GeodesicLength=0.8388097223908897 rxn_smarts="[C:1]1([H:8])([H:9])[O:2][C@@:3]2([H:10])[C@@:4]3([H:11])[O:5][C@:6]1([H:12])[C@@:7]23[H:13]>>[C:1]1([H:8])([H:9])[O:2][C@:3]2([H:10])[C@:4]([H:11])([O:5][C:6]1([H:12])[H:13])[C:7]2"
C        0.65797013       0.63548635       1.05255988
O        0.86380491      -0.76457452       0.94742792
C        0.11477657      -1.40209960      -0.03361527
C       -1.05581376      -0.73839813      -0.63887842
O       -1.38170208       0.54416828      -0.17258213
C       -0.06419820       1.10288497      -0.19043160
C        0.30019204      -0.60264333      -1.29764633
H        1.63989026       1.11080982       1.13668463
H        0.08389626       0.82967635       1.96166059
H        0.22220022      -2.48038107      -0.01766347
H       -1.84478669      -1.29784801      -1.12810832
H       -0.16957688       2.18802987      -0.22347168
H        0.63334725       0.87488904      -1.39593582
13
Frame=13 idx=009845 GeodesicLength=0.9088296168932581 rxn_smarts="[C:1]1([H:8])([H:9])[O:2][C@@:3]2([H:10])[C@@:4]3([H:11])[O:5][C@:6]1([H:12])[C@@:7]23[H:13]>>[C:1]1([H:8])([H:9])[O:2][C@:3]2([H:10])[C@:4]([H:11])([O:5][C:6]1([H:12])[H:13])[C:7]2"
C        0.65673809       0.63509610       1.05237712
O        0.87202605      -0.76322725       0.93801159
C        0.11176117      -1.40712190      -0.03022180
C       -1.05715273      -0.73721404      -0.63288473
O       -1.38378107       0.54477968      -0.16590732
C       -0.06337663       1.10219083      -0.19293154
C        0.29722102      -0.59499854      -1.28474112
H        1.63647989       1.11388497       1.14114007
H        0.08054458       0.81911476       1.96211814
H        0.21813099      -2.48530127      -0.00967608
H       -1.84074190      -1.29500183      -1.13292914
H       -0.17189570       2.18703841      -0.22261946
H        0.64404622       0.88076009      -1.42173573
13
Frame=14 idx=009845 GeodesicLength=0.9788526497509114 rxn_smarts="[C:1]1([H:8])([H:9])[O:2][C@@:3]2([H:10])[C@@:4]3([H:11])[O:5][C@:6]1([H:12])[C@@:7]23[H:13]>>[C:1]1([H:8])([H:9])[O:2][C@:3]2([H:10])[C@:4]([H:11])([O:5][C:6]1([H:12])[H:13])[C:7]2"
C        0.65539750       0.63468371       1.05235823
O        0.87984853      -0.76184388       0.92869610
C        0.10899220      -1.41195680      -0.02706907
C       -1.05846604      -0.73598537      -0.62684910
O       -1.38592430       0.54539747      -0.15908810
C       -0.06270870       1.10160155      -0.19520204
C        0.29417559      -0.58710324      -1.27193967
H        1.63301892       1.11675714       1.14565566
H        0.07723059       0.80855116       1.96270859
H        0.21433027      -2.49001263      -0.00181807
H       -1.83657891      -1.29208811      -1.13759401
H       -0.17411193       2.18613050      -0.22188143
H        0.65479628       0.88586849      -1.44797710
13
Frame=15 idx=009845 GeodesicLength=1.0488726930773824 rxn_smarts="[C:1]1([H:8])([H:9])[O:2][C@@:3]2([H:10])[C@@:4]3([H:11])[O:5][C@:6]1([H:12])[C@@:7]23[H:13]>>[C:1]1([H:8])([H:9])[O:2][C@:3]2([H:10])[C@:4]([H:11])([O:5][C:6]1([H:12])[H:13])[C:7]2"
C        0.65394907       0.63425328       1.05250850
O        0.88729497      -0.76041880       0.91948154
C        0.10646881      -1.41660470      -0.02416780
C       -1.05975238      -0.73470641      -0.62077733
O       -1.38813544       0.54602034      -0.15211996
C       -0.06220105       1.10112354      -0.19723011
C        0.29105698      -0.57895677      -1.25924361
H        1.62950518       1.11944409       1.15024016
H        0.07395148       0.79797693       1.96343872
H        0.21079118      -2.49451468       0.00590543
H       -1.83230480      -1.28909635      -1.14210689
H       -0.17624643       2.18531616      -0.22123519
H        0.66562244       0.89016336      -1.47469346
13
Frame=16 idx=009845 GeodesicLength=1.1188843530161015 rxn_smarts="[C:1]1([H:8])([H:9])[O:2][C@@:3]2([H:10])[C@@:4]3([H:11])[O:5][C@:6]1([H:12])[C@@:7]23[H:13]>>[C:1]1([H:8])([H:9])[O:2][C@:3]2([H:10])[C@:4]([H:11])([O:5][C:6]1([H:12])[H:13])[C:7]2"
C        0.65239276       0.63380875       1.05283405
O        0.89438704      -0.75894544       0.91036696
C        0.10419089      -1.42106515      -0.02152914
C       -1.06101111      -0.73337112      -0.61467443
O       -1.39041881       0.54664693      -0.14499651
C       -0.06186114       1.10076345      -0.19900183
C        0.28786694      -0.57055658      -1.24665296
H        1.62593595       1.12196210       1.15490217
H        0.07070452       0.78738246       1.96431592
H        0.20750896      -2.49880582       0.01348822
H       -1.82792630      -1.28601506      -1.14647248
H       -0.17831948       2.18460533      -0.22065948
H        0.67654978       0.89359013      -1.50192048
