8
Frame=0 idx=005827 GeodesicLength=0.0 rxn_smarts="[N:1]([C:2](=[O:3])[N:4]([H:7])[H:8])([H:5])[H:6]>>[N:1]([C@@:2]1([H:7])[O:3][N:4]1[H:8])([H:5])[H:6]"
N        1.03339779      -0.50653869      -0.25077097
C       -0.15671290       0.19234292       0.09598869
O        0.00885527       1.35475369       0.65949769
N       -1.13147267       0.33572620      -0.87741598
H        1.09733544      -1.45593144       0.07660378
H        1.86347133       0.03324756      -0.05507968
H       -0.76616787      -0.60538103       0.70159825
H       -1.94870637       0.65178082      -0.35042182
8
Frame=1 idx=005827 GeodesicLength=0.07584016452754389 rxn_smarts="[N:1]([C:2](=[O:3])[N:4]([H:7])[H:8])([H:5])[H:6]>>[N:1]([C@@:2]1([H:7])[O:3][N:4]1[H:8])([H:5])[H:6]"
N        1.04213714      -0.50596704      -0.23188148
C       -0.14533829       0.19194481       0.10951820
O        0.00268912       1.37052096       0.63809271
N       -1.12804081       0.32816294      -0.85631504
H        1.09776501      -1.46493267       0.06593057
H        1.87318923       0.03977176      -0.06203149
H       -0.79504220      -0.61765452       0.67934489
H       -1.94735920       0.65815376      -0.34265835
8
Frame=2 idx=005827 GeodesicLength=0.15160471486502353 rxn_smarts="[N:1]([C:2](=[O:3])[N:4]([H:7])[H:8])([H:5])[H:6]>>[N:1]([C@@:2]1([H:7])[O:3][N:4]1[H:8])([H:5])[H:6]"
N        1.05043509      -0.50540659      -0.21071984
C       -0.13475361       0.19141182       0.12514392
O       -0.00319728       1.38572450       0.61653760
N       -1.12341909       0.32122625      -0.83526088
H        1.09759398      -1.47380895       0.05408872
H        1.88206238       0.04668975      -0.07092076
H       -0.82295754      -0.62971940       0.65750502
H       -1.94576393       0.66388262      -0.33637379
8
Frame=3 idx=005827 GeodesicLength=0.2273921683271188 rxn_smarts="[N:1]([C:2](=[O:3])[N:4]([H:7])[H:8])([H:5])[H:6]>>[N:1]([C@@:2]1([H:7])[O:3][N:4]1[H:8])([H:5])[H:6]"
N        1.05842751      -0.50487927      -0.18700403
C       -0.12489543       0.19082453       0.14285506
O       -0.00886213       1.40030685       0.59496263
N       -1.11760993       0.31474856      -0.81429649
H        1.09681158      -1.48240475       0.04093614
H        1.88994523       0.05389303      -0.08194976
H       -0.84996198      -0.64153977       0.63612049
H       -1.94385485       0.66905083      -0.33162405
8
Frame=4 idx=005827 GeodesicLength=0.3030706803159903 rxn_smarts="[N:1]([C:2](=[O:3])[N:4]([H:7])[H:8])([H:5])[H:6]>>[N:1]([C@@:2]1([H:7])[O:3][N:4]1[H:8])([H:5])[H:6]"
N        1.06626671      -0.50434899      -0.15991936
C       -0.11570928       0.19025526       0.16265961
O       -0.01435324       1.41397236       0.57373544
N       -1.11049608       0.30863908      -0.79349867
H        1.09521239      -1.49040708       0.02634266
H        1.89652706       0.06125699      -0.09586429
H       -0.87600427      -0.65293019       0.61517352
H       -1.94144328       0.67356258      -0.32862891
8
Frame=5 idx=005827 GeodesicLength=0.3787292040528665 rxn_smarts="[N:1]([C:2](=[O:3])[N:4]([H:7])[H:8])([H:5])[H:6]>>[N:1]([C@@:2]1([H:7])[O:3][N:4]1[H:8])([H:5])[H:6]"
N        1.07424990      -0.50385717      -0.12861738
C       -0.10712660       0.18990044       0.18456942
O       -0.01973927       1.42694771       0.55296636
N       -1.10201947       0.30262642      -0.77293688
H        1.09268621      -1.49759365       0.00955548
H        1.90159413       0.06843848      -0.11287118
H       -0.90112092      -0.66375284       0.59487997
H       -1.93852398       0.67729061      -0.32754579
8
Frame=6 idx=005827 GeodesicLength=0.4543161067934436 rxn_smarts="[N:1]([C:2](=[O:3])[N:4]([H:7])[H:8])([H:5])[H:6]>>[N:1]([C@@:2]1([H:7])[O:3][N:4]1[H:8])([H:5])[H:6]"
N        1.08230236      -0.50355657      -0.09240529
C       -0.09916065       0.18968405       0.20860603
O       -0.02506423       1.43870947       0.53318402
N       -1.09193894       0.29684816      -0.75266353
H        1.08992015      -1.50316488      -0.00882831
H        1.90387660       0.07504006      -0.13421340
H       -0.92529527      -0.67418726       0.57494854
H       -1.93464002       0.68062698      -0.32862805
8
Frame=7 idx=005827 GeodesicLength=0.5295261672975992 rxn_smarts="[N:1]([C:2](=[O:3])[N:4]([H:7])[H:8])([H:5])[H:6]>>[N:1]([C@@:2]1([H:7])[O:3][N:4]1[H:8])([H:5])[H:6]"
N        1.09061010      -0.50294063      -0.05229326
C       -0.09150274       0.18998307       0.23387396
O       -0.03003622       1.44948051       0.51357422
N       -1.08090391       0.29086905      -0.73263840
H        1.08601851      -1.50549212      -0.02994623
H        1.90351129       0.07921644      -0.15710390
H       -0.94760959      -0.68365594       0.55567431
H       -1.93008743       0.68253961      -0.33114070
8
Frame=8 idx=005827 GeodesicLength=0.6046505389450635 rxn_smarts="[N:1]([C:2](=[O:3])[N:4]([H:7])[H:8])([H:5])[H:6]>>[N:1]([C@@:2]1([H:7])[O:3][N:4]1[H:8])([H:5])[H:6]"
N        1.09887978      -0.50231657      -0.01176007
C       -0.08417750       0.19058360       0.25930489
O       -0.03449070       1.45890371       0.49454456
N       -1.06978293       0.28545014      -0.71291136
H        1.08288762      -1.50421797      -0.05052692
H        1.90030484       0.08043565      -0.18058642
H       -0.96821283      -0.69287722       0.53608183
H       -1.92540827       0.68403867      -0.33414651
8
Frame=9 idx=005827 GeodesicLength=0.6798367173022014 rxn_smarts="[N:1]([C:2](=[O:3])[N:4]([H:7])[H:8])([H:5])[H:6]>>[N:1]([C@@:2]1([H:7])[O:3][N:4]1[H:8])([H:5])[H:6]"
N        1.10660714      -0.50152870       0.02576076
C       -0.07703004       0.19145600       0.28388770
O       -0.03821105       1.46683969       0.47555010
N       -1.05947806       0.28071741      -0.69335594
H        1.08064372      -1.49964511      -0.06922778
H        1.89519200       0.07878561      -0.20197369
H       -0.98671979      -0.70185708       0.51596848
H       -1.92100391       0.68523218      -0.33660964
8
Frame=10 idx=005827 GeodesicLength=0.755167878048406 rxn_smarts="[N:1]([C:2](=[O:3])[N:4]([H:7])[H:8])([H:5])[H:6]>>[N:1]([C@@:2]1([H:7])[O:3][N:4]1[H:8])([H:5])[H:6]"
N        1.11379706      -0.50065494       0.05929470
C       -0.06996591       0.19256728       0.30728477
O       -0.04126665       1.47336934       0.45662875
N       -1.05023998       0.27667647      -0.67399645
H        1.07904621      -1.49274541      -0.08556806
H        1.88905150       0.07512184      -0.22074579
H       -1.00332980      -0.71055702       0.49537193
H       -1.91709242       0.68622242      -0.33826985
8
Frame=11 idx=005827 GeodesicLength=0.8306193951497791 rxn_smarts="[N:1]([C:2](=[O:3])[N:4]([H:7])[H:8])([H:5])[H:6]>>[N:1]([C@@:2]1([H:7])[O:3][N:4]1[H:8])([H:5])[H:6]"
N        1.12041380      -0.49954187       0.08832590
C       -0.06292825       0.19391254       0.32935080
O       -0.04381497       1.47856207       0.43797419
N       -1.04212867       0.27335977      -0.65483725
H        1.07778197      -1.48459681      -0.09908587
H        1.88263784       0.07023445      -0.23693215
H       -1.01823420      -0.71898290       0.47421875
H       -1.91372752       0.68705275      -0.33901437
8
Frame=12 idx=005827 GeodesicLength=0.9061723191506672 rxn_smarts="[N:1]([C:2](=[O:3])[N:4]([H:7])[H:8])([H:5])[H:6]>>[N:1]([C@@:2]1([H:7])[O:3][N:4]1[H:8])([H:5])[H:6]"
N        1.12667277      -0.49831816       0.11408575
C       -0.05589158       0.19546063       0.35038589
O       -0.04606563       1.48260752       0.41982551
N       -1.03481190       0.27061513      -0.63591305
H        1.07669185      -1.47574207      -0.11033045
H        1.87594732       0.06467130      -0.25152645
H       -1.03179984      -0.72708692       0.45270723
H       -1.91074299       0.68779256      -0.33923444
8
Frame=13 idx=005827 GeodesicLength=0.9818310102981792 rxn_smarts="[N:1]([C:2](=[O:3])[N:4]([H:7])[H:8])([H:5])[H:6]>>[N:1]([C@@:2]1([H:7])[O:3][N:4]1[H:8])([H:5])[H:6]"
N        1.13266586      -0.49697270       0.13715114
C       -0.04880336       0.19721893       0.37052027
O       -0.04812584       1.48561872       0.40231648
N       -1.02812550       0.26836433      -0.61722223
H        1.07565780      -1.46655816      -0.11953225
H        1.86901778       0.05872703      -0.26501425
H       -1.04422698      -0.73483003       0.43087040
H       -1.90805976       0.68843188      -0.33908957
8
Frame=14 idx=005827 GeodesicLength=1.057524295136124 rxn_smarts="[N:1]([C:2](=[O:3])[N:4]([H:7])[H:8])([H:5])[H:6]>>[N:1]([C@@:2]1([H:7])[O:3][N:4]1[H:8])([H:5])[H:6]"
N        1.13841528      -0.49547281       0.15784599
C       -0.04165665       0.19921532       0.38983093
O       -0.05006105       1.48776300       0.38529848
N       -1.02203617       0.26644317      -0.59868995
H        1.07447626      -1.45723322      -0.12718973
H        1.86213184       0.05255230      -0.27733374
H       -1.05564321      -0.74220050       0.40889315
H       -1.90562629       0.68893273      -0.33865512
8
Frame=15 idx=005827 GeodesicLength=1.1332839547040416 rxn_smarts="[N:1]([C:2](=[O:3])[N:4]([H:7])[H:8])([H:5])[H:6]>>[N:1]([C@@:2]1([H:7])[O:3][N:4]1[H:8])([H:5])[H:6]"
N        1.14408023      -0.49383417       0.17680287
C       -0.03440458       0.20143465       0.40844686
O       -0.05197458       1.48912476       0.36906137
N       -1.01633340       0.26484795      -0.58034368
H        1.07319873      -1.44789806      -0.13329508
H        1.85500103       0.04621870      -0.28922564
H       -1.06623621      -0.74920971       0.38667504
H       -1.90333121       0.68931588      -0.33812174
8
Frame=16 idx=005827 GeodesicLength=1.2090594472943264 rxn_smarts="[N:1]([C:2](=[O:3])[N:4]([H:7])[H:8])([H:5])[H:6]>>[N:1]([C@@:2]1([H:7])[O:3][N:4]1[H:8])([H:5])[H:6]"
N        1.14963807      -0.49208000       0.19413717
C       -0.02702625       0.20390406       0.42643219
O       -0.05387917       1.48983742       0.35338380
N       -1.01103996       0.26344412      -0.56208627
H        1.07175107      -1.43864939      -0.13828438
H        1.84785815       0.03981901      -0.30044594
H       -1.07611345      -0.75585329       0.36439481
H       -1.90118846       0.68957807      -0.33753139
