10
Frame=0 idx=007271 GeodesicLength=0.0 rxn_smarts="[N:1]#[C:2][c:3]1[n:4][c:5]([H:8])[c:6]([H:9])[n:7]1[H:10]>>[N:1]#[C:2][N:7]([C:6](=[C:5]([N+:4]#[C-:3])[H:8])[H:9])[H:10]"
N        2.57941092       0.31367079       0.61644719
C        1.63229775      -0.13582510       0.09865957
C        0.82992397      -1.35166364      -0.40024478
N       -0.26873116      -1.57721883       0.07474611
C       -1.26877186      -0.69672843       0.23646362
C       -0.86800809       0.57911705      -0.10322747
N        0.35582973       0.73154867      -0.60079626
H       -2.20483678      -0.98289615       0.68514521
H       -1.49482119       1.44288354       0.08291022
H        0.70770672       1.67711210      -0.69010340
10
Frame=1 idx=007271 GeodesicLength=0.08172095150450939 rxn_smarts="[N:1]#[C:2][c:3]1[n:4][c:5]([H:8])[c:6]([H:9])[n:7]1[H:10]>>[N:1]#[C:2][N:7]([C:6](=[C:5]([N+:4]#[C-:3])[H:8])[H:9])[H:10]"
N        2.63532010       0.30960737       0.57153259
C        1.65920365      -0.12160397       0.09683010
C        0.82907990      -1.35560337      -0.36485571
N       -0.28188411      -1.58072741       0.07859242
C       -1.27974390      -0.69571248       0.23653521
C       -0.87789756       0.57802814      -0.09956520
N        0.35750951       0.73072765      -0.57391045
H       -2.22806435      -0.98570641       0.65604738
H       -1.51157269       1.44074557       0.06517345
H        0.69804944       1.68024491      -0.66637978
10
Frame=2 idx=007271 GeodesicLength=0.16326359534916696 rxn_smarts="[N:1]#[C:2][c:3]1[n:4][c:5]([H:8])[c:6]([H:9])[n:7]1[H:10]>>[N:1]#[C:2][N:7]([C:6](=[C:5]([N+:4]#[C-:3])[H:8])[H:9])[H:10]"
N        2.69152063       0.30489627       0.52174134
C        1.68663208      -0.10669982       0.09528725
C        0.82861554      -1.35903308      -0.32474852
N       -0.29589493      -1.58454062       0.08056809
C       -1.29122885      -0.69483882       0.23609916
C       -0.88835541       0.57669868      -0.09695625
N        0.35944215       0.73018051      -0.54417317
H       -2.25085654      -0.98837197       0.62645272
H       -1.52843990       1.43821613       0.04583554
H        0.68856522       1.68349273      -0.64010616
10
Frame=3 idx=007271 GeodesicLength=0.24457727537735488 rxn_smarts="[N:1]#[C:2][c:3]1[n:4][c:5]([H:8])[c:6]([H:9])[n:7]1[H:10]>>[N:1]#[C:2][N:7]([C:6](=[C:5]([N+:4]#[C-:3])[H:8])[H:9])[H:10]"
N        2.74758572       0.29947118       0.46640205
C        1.71469849      -0.09105370       0.09386995
C        0.82850915      -1.36185296      -0.27853603
N       -0.31076064      -1.58866064       0.07992116
C       -1.30318674      -0.69413730       0.23499655
C       -0.89941717       0.57504227      -0.09595497
N        0.36163517       0.72993075      -0.51114620
H       -2.27315428      -0.99091344       0.59637785
H       -1.54515387       1.43530600       0.02505913
H        0.67924418       1.68686783      -0.61098948
10
Frame=4 idx=007271 GeodesicLength=0.32558254546830623 rxn_smarts="[N:1]#[C:2][c:3]1[n:4][c:5]([H:8])[c:6]([H:9])[n:7]1[H:10]>>[N:1]#[C:2][N:7]([C:6](=[C:5]([N+:4]#[C-:3])[H:8])[H:9])[H:10]"
N        2.80289097       0.29294094       0.40500665
C        1.74363786      -0.07466467       0.09174695
C        0.82860022      -1.36382439      -0.22434470
N       -0.32634128      -1.59302390       0.07553663
C       -1.31545462      -0.69359020       0.23327759
C       -0.91108581       0.57297506      -0.09720085
N        0.36406739       0.73012729      -0.47415261
H       -2.29474277      -0.99340676       0.56601995
H       -1.56164653       1.43196907       0.00255867
H        0.67007459       1.69049756      -0.57844828
10
Frame=5 idx=007271 GeodesicLength=0.40634715948558675 rxn_smarts="[N:1]#[C:2][c:3]1[n:4][c:5]([H:8])[c:6]([H:9])[n:7]1[H:10]>>[N:1]#[C:2][N:7]([C:6](=[C:5]([N+:4]#[C-:3])[H:8])[H:9])[H:10]"
N        2.85780761       0.28494403       0.33375697
C        1.77404215      -0.05766848       0.08736963
C        0.82852394      -1.36458821      -0.15763044
N       -0.34202193      -1.59712343       0.06835418
C       -1.32794314      -0.69322372       0.23152909
C       -0.92309236       0.57062568      -0.09970225
N        0.36663704       0.73096235      -0.43145056
H       -2.31697936      -0.99669900       0.53076270
H       -1.57792866       1.42826337      -0.02145180
H        0.66095471       1.69450742      -0.54153752
10
Frame=6 idx=007271 GeodesicLength=0.4862678946335393 rxn_smarts="[N:1]#[C:2][c:3]1[n:4][c:5]([H:8])[c:6]([H:9])[n:7]1[H:10]>>[N:1]#[C:2][N:7]([C:6](=[C:5]([N+:4]#[C-:3])[H:8])[H:9])[H:10]"
N        2.91103968       0.27348520       0.25117583
C        1.80669974      -0.04104272       0.07406313
C        0.82737425      -1.36274763      -0.07350512
N       -0.35611161      -1.60016457       0.06016028
C       -1.34103864      -0.69327025       0.22746395
C       -0.93503833       0.56827020      -0.10209682
N        0.36925241       0.73340450      -0.37997622
H       -2.33917682      -1.00137238       0.48942532
H       -1.59493108       1.42363375      -0.05022738
H        0.65193041       1.69980391      -0.49648298
10
Frame=7 idx=007271 GeodesicLength=0.5645679414022031 rxn_smarts="[N:1]#[C:2][c:3]1[n:4][c:5]([H:8])[c:6]([H:9])[n:7]1[H:10]>>[N:1]#[C:2][N:7]([C:6](=[C:5]([N+:4]#[C-:3])[H:8])[H:9])[H:10]"
N        2.96213631       0.25643765       0.14657200
C        1.84143108      -0.02722315       0.04303236
C        0.82415908      -1.35519711       0.04033842
N       -0.36529053      -1.60099200       0.06004371
C       -1.35620975      -0.69530813       0.21214127
C       -0.94665372       0.56633569      -0.10342402
N        0.37191273       0.73893768      -0.31300020
H       -2.36217844      -1.00892118       0.43462779
H       -1.61270044       1.41786574      -0.08588860
H        0.64339368       1.70806482      -0.43444274
10
Frame=8 idx=007271 GeodesicLength=0.6377076675568694 rxn_smarts="[N:1]#[C:2][c:3]1[n:4][c:5]([H:8])[c:6]([H:9])[n:7]1[H:10]>>[N:1]#[C:2][N:7]([C:6](=[C:5]([N+:4]#[C-:3])[H:8])[H:9])[H:10]"
N        3.00411236       0.22746047       0.00761938
C        1.87189191      -0.02118317      -0.02068228
C        0.81827799      -1.33481888       0.19024726
N       -0.36391654      -1.59855565       0.08643384
C       -1.37110258      -0.70000236       0.17783495
C       -0.95736862       0.56378320      -0.11385265
N        0.37429621       0.75041332      -0.22262854
H       -2.38237193      -1.02024921       0.36356295
H       -1.63042199       1.40911035      -0.14085897
H        0.63660319       1.72404193      -0.32767594
10
Frame=9 idx=007271 GeodesicLength=0.7091991852786131 rxn_smarts="[N:1]#[C:2][c:3]1[n:4][c:5]([H:8])[c:6]([H:9])[n:7]1[H:10]>>[N:1]#[C:2][N:7]([C:6](=[C:5]([N+:4]#[C-:3])[H:8])[H:9])[H:10]"
N        3.02204929       0.18824654      -0.14722842
C        1.88384531      -0.02141187      -0.09625366
C        0.81114399      -1.30073857       0.34527073
N       -0.35255625      -1.59304277       0.13837528
C       -1.37713268      -0.70649007       0.13168683
C       -0.96259303       0.56067130      -0.13554485
N        0.37476663       0.76443439      -0.12744788
H       -2.39137542      -1.03352660       0.28648198
H       -1.64043402       1.39918233      -0.20582359
H        0.63228619       1.74267532      -0.18951642
10
Frame=10 idx=007271 GeodesicLength=0.7873012961086896 rxn_smarts="[N:1]#[C:2][c:3]1[n:4][c:5]([H:8])[c:6]([H:9])[n:7]1[H:10]>>[N:1]#[C:2][N:7]([C:6](=[C:5]([N+:4]#[C-:3])[H:8])[H:9])[H:10]"
N        3.02122247       0.14851667      -0.27560998
C        1.88291183      -0.01958746      -0.15145912
C        0.80352733      -1.26456680       0.46763094
N       -0.33995919      -1.58636064       0.19023347
C       -1.37386434      -0.71300628       0.08822907
C       -0.96291809       0.55828426      -0.15779983
N        0.37316382       0.77493741      -0.05841195
H       -2.38941617      -1.04551129       0.22160603
H       -1.64279474       1.39225205      -0.25233915
H        0.62812709       1.75504207      -0.07207948
10
Frame=11 idx=007271 GeodesicLength=0.8681420922548947 rxn_smarts="[N:1]#[C:2][c:3]1[n:4][c:5]([H:8])[c:6]([H:9])[n:7]1[H:10]>>[N:1]#[C:2][N:7]([C:6](=[C:5]([N+:4]#[C-:3])[H:8])[H:9])[H:10]"
N        3.01399624       0.10878732      -0.37470909
C        1.87937949      -0.01502267      -0.19039174
C        0.79436334      -1.22883866       0.56593728
N       -0.32834439      -1.57903337       0.23246696
C       -1.36562160      -0.71950198       0.04752332
C       -0.96212438       0.55685191      -0.17783680
N        0.37063829       0.78278569      -0.01375557
H       -2.38127689      -1.05647829       0.16947221
H       -1.64418011       1.38809999      -0.27614299
H        0.62317000       1.76235008       0.01743642
10
Frame=12 idx=007271 GeodesicLength=0.949444114626633 rxn_smarts="[N:1]#[C:2][c:3]1[n:4][c:5]([H:8])[c:6]([H:9])[n:7]1[H:10]>>[N:1]#[C:2][N:7]([C:6](=[C:5]([N+:4]#[C-:3])[H:8])[H:9])[H:10]"
N        3.00390954       0.06874581      -0.45591214
C        1.87602484      -0.00823030      -0.21986460
C        0.78349443      -1.19441292       0.64802810
N       -0.31720461      -1.57156290       0.26501868
C       -1.35454721      -0.72565755       0.01043129
C       -0.96090860       0.55587458      -0.19641672
N        0.36777070       0.78960557       0.01951587
H       -2.36973779      -1.06583498       0.12895518
H       -1.64594902       1.38450227      -0.29161468
H        0.61714771       1.76697043       0.09185901
10
Frame=13 idx=007271 GeodesicLength=1.0310869833755054 rxn_smarts="[N:1]#[C:2][c:3]1[n:4][c:5]([H:8])[c:6]([H:9])[n:7]1[H:10]>>[N:1]#[C:2][N:7]([C:6](=[C:5]([N+:4]#[C-:3])[H:8])[H:9])[H:10]"
N        2.99269559       0.02804712      -0.52331224
C        1.87326391       0.00030166      -0.24564575
C        0.77132633      -1.16116367       0.71889612
N       -0.30617216      -1.56403272       0.29028513
C       -1.34179826      -0.73124845      -0.02270669
C       -0.95955715       0.55526900      -0.21385175
N        0.36474019       0.79600988       0.04618595
H       -2.35625946      -1.07421489       0.09610694
H       -1.64848277       1.38097965      -0.30188257
H        0.61024379       1.77005242       0.15592486
10
Frame=14 idx=007271 GeodesicLength=1.1128329226732472 rxn_smarts="[N:1]#[C:2][c:3]1[n:4][c:5]([H:8])[c:6]([H:9])[n:7]1[H:10]>>[N:1]#[C:2][N:7]([C:6](=[C:5]([N+:4]#[C-:3])[H:8])[H:9])[H:10]"
N        2.97966163      -0.01367921      -0.58332415
C        1.87118484       0.01056739      -0.26866045
C        0.75807537      -1.12880555       0.78247510
N       -0.29479052      -1.55647610       0.31113657
C       -1.32781894      -0.73623583      -0.05228468
C       -0.95789699       0.55500771      -0.22981490
N        0.36170940       0.80229965       0.06973351
H       -2.34149935      -1.08218291       0.06698780
H       -1.65122544       1.37732622      -0.31023453
H        0.60259999       1.77217863       0.21398573
10
Frame=15 idx=007271 GeodesicLength=1.1947112248610263 rxn_smarts="[N:1]#[C:2][c:3]1[n:4][c:5]([H:8])[c:6]([H:9])[n:7]1[H:10]>>[N:1]#[C:2][N:7]([C:6](=[C:5]([N+:4]#[C-:3])[H:8])[H:9])[H:10]"
N        2.96481904      -0.05664492      -0.63739378
C        1.86976349       0.02244129      -0.29041994
C        0.74383173      -1.09703999       0.84070677
N       -0.28294249      -1.54881523       0.32890920
C       -1.31279494      -0.74071010      -0.07927522
C       -0.95597785       0.55506497      -0.24459726
N        0.35875939       0.80857137       0.09092910
H       -2.32560359      -1.08997645       0.04029130
H       -1.65420217       1.37352900      -0.31677225
H        0.59434739       1.77358006       0.26762208
10
Frame=16 idx=007271 GeodesicLength=1.276732198840833 rxn_smarts="[N:1]#[C:2][c:3]1[n:4][c:5]([H:8])[c:6]([H:9])[n:7]1[H:10]>>[N:1]#[C:2][N:7]([C:6](=[C:5]([N+:4]#[C-:3])[H:8])[H:9])[H:10]"
N        2.94778238      -0.10089392      -0.68703104
C        1.86899689       0.03579443      -0.31157320
C        0.72860328      -1.06565044       0.89504869
N       -0.27056916      -1.54096137       0.34473432
C       -1.29674909      -0.74473783      -0.10432645
C       -0.95377080       0.55543163      -0.25827516
N        0.35599696       0.81487443       0.11042000
H       -2.30860710      -1.09781378       0.01475731
H       -1.65733135       1.36957593      -0.32170379
H        0.58564800       1.77438091       0.31794933
