18
Frame=0 idx=005185 GeodesicLength=0.0 rxn_smarts="[C:1]([C@@:2]1([H:10])[C:3]([H:11])([H:12])[C@:4]([C:5]([H:14])([H:15])[H:16])([H:13])[C:6]1([H:17])[H:18])([H:7])([H:8])[H:9]>>[C:1]([C:2][C:6]([C:4]([C:3]([H:10])([H:11])[H:12])([C:5]([H:14])([H:15])[H:16])[H:13])([H:17])[H:18])([H:7])([H:8])[H:9]"
C       -2.39309575       0.10346186       0.35614974
C       -1.33186762      -0.01120538      -0.68651742
C        0.29442321       1.22891170      -0.08085781
C        0.98754385      -0.05726792      -0.50744180
C        2.24810777      -0.42169702       0.25159170
C       -0.21697708      -0.98584974      -0.34692176
H       -2.05762576       0.00074089       1.39949147
H       -3.05112056      -0.75178899       0.15427482
H       -3.00488801       1.00023163       0.25081009
H       -0.71323524       1.16632435      -0.80256345
H        0.06962198       1.27874985       0.98392636
H        0.71005359       2.17399105      -0.43722012
H        1.21200255       0.02751365      -1.57484381
H        2.65364614      -1.37377107      -0.09791776
H        3.02126210       0.33933552       0.11928546
H        2.04768928      -0.51489260       1.32176571
H       -0.21456799      -1.86226375      -0.99920060
H       -0.26097240      -1.34052405       0.69618923
18
Frame=1 idx=005185 GeodesicLength=0.057176555868772135 rxn_smarts="[C:1]([C@@:2]1([H:10])[C:3]([H:11])([H:12])[C@:4]([C:5]([H:14])([H:15])[H:16])([H:13])[C:6]1([H:17])[H:18])([H:7])([H:8])[H:9]>>[C:1]([C:2][C:6]([C:4]([C:3]([H:10])([H:11])[H:12])([C:5]([H:14])([H:15])[H:16])[H:13])([H:17])[H:18])([H:7])([H:8])[H:9]"
C       -2.40167681       0.09188624       0.35694022
C       -1.32974976      -0.00911326      -0.67513169
C        0.29682326       1.23161132      -0.08312881
C        0.98958483      -0.05634260      -0.50760607
C        2.25094621      -0.42057089       0.25005487
C       -0.21558288      -0.98302827      -0.33869023
H       -2.07674884      -0.02649530       1.40165107
H       -3.07064381      -0.74940118       0.13558045
H       -2.99824883       1.00026494       0.25962075
H       -0.71514722       1.17949829      -0.81949947
H        0.08405018       1.28621443       0.98429747
H        0.72166862       2.17337400      -0.43735828
H        1.21125235       0.02333234      -1.57595813
H        2.65273873      -1.37556971      -0.09593175
H        3.02521530       0.33838335       0.11271312
H        2.05307196      -0.50798655       1.32126817
H       -0.22054648      -1.85826564      -0.99306963
H       -0.25700679      -1.33779150       0.70424794
18
Frame=2 idx=005185 GeodesicLength=0.11438296741392842 rxn_smarts="[C:1]([C@@:2]1([H:10])[C:3]([H:11])([H:12])[C@:4]([C:5]([H:14])([H:15])[H:16])([H:13])[C:6]1([H:17])[H:18])([H:7])([H:8])[H:9]>>[C:1]([C:2][C:6]([C:4]([C:3]([H:10])([H:11])[H:12])([C:5]([H:14])([H:15])[H:16])[H:13])([H:17])[H:18])([H:7])([H:8])[H:9]"
C       -2.41040284       0.08009138       0.35758448
C       -1.32757335      -0.00668925      -0.66335315
C        0.29932836       1.23444605      -0.08551711
C        0.99163616      -0.05541571      -0.50770100
C        2.25381800      -0.41941821       0.24855339
C       -0.21421320      -0.98006087      -0.33021933
H       -2.09648558      -0.05521932       1.40330825
H       -3.09027259      -0.74618817       0.11583307
H       -2.99126196       1.00007914       0.26976048
H       -0.71698617       1.19250151      -0.83663300
H        0.09894886       1.29404400       0.98445615
H        0.73319501       2.17270082      -0.43809924
H        1.21043220       0.01897350      -1.57700241
H        2.65179783      -1.37737522      -0.09379238
H        3.02920416       0.33739236       0.10605399
H        2.05855150      -0.50092086       1.32079063
H       -0.22669466      -1.85412946      -0.98660055
H       -0.25302173      -1.33481168       0.71257774
18
Frame=3 idx=005185 GeodesicLength=0.1716120463969761 rxn_smarts="[C:1]([C@@:2]1([H:10])[C:3]([H:11])([H:12])[C@:4]([C:5]([H:14])([H:15])[H:16])([H:13])[C:6]1([H:17])[H:18])([H:7])([H:8])[H:9]>>[C:1]([C:2][C:6]([C:4]([C:3]([H:10])([H:11])[H:12])([C:5]([H:14])([H:15])[H:16])[H:13])([H:17])[H:18])([H:7])([H:8])[H:9]"
C       -2.41927931       0.06807122       0.35806103
C       -1.32534052      -0.00392714      -0.65115637
C        0.30194681       1.23741899      -0.08801767
C        0.99369487      -0.05448697      -0.50772205
C        2.25672480      -0.41824133       0.24708287
C       -0.21286928      -0.97693846      -0.32148826
H       -2.11685619      -0.08547248       1.40436519
H       -3.10996741      -0.74206889       0.09501665
H       -2.98394722       0.99960761       0.28129501
H       -0.71876095       1.20532427      -0.85396578
H        0.11433210       1.30225000       0.98439159
H        0.74464064       2.17197407      -0.43945442
H        1.20952841       0.01443106      -1.57797045
H        2.65081890      -1.37919077      -0.09150179
H        3.03323106       0.33635443       0.09929622
H        2.06413887      -0.49369383       1.32032773
H       -0.23301699      -1.84984883      -0.97976262
H       -0.24901859      -1.33156295       0.72120313
18
Frame=4 idx=005185 GeodesicLength=0.22885920307700242 rxn_smarts="[C:1]([C@@:2]1([H:10])[C:3]([H:11])([H:12])[C@:4]([C:5]([H:14])([H:15])[H:16])([H:13])[C:6]1([H:17])[H:18])([H:7])([H:8])[H:9]>>[C:1]([C:2][C:6]([C:4]([C:3]([H:10])([H:11])[H:12])([C:5]([H:14])([H:15])[H:16])[H:13])([H:17])[H:18])([H:7])([H:8])[H:9]"
C       -2.42831021       0.05582562       0.35834512
C       -1.32305269      -0.00081826      -0.63851465
C        0.30468831       1.24053429      -0.09062628
C        0.99575816      -0.05355601      -0.50766381
C        2.25966798      -0.41704329       0.24563935
C       -0.21155260      -0.97365124      -0.31247444
H       -2.13787924      -0.11730020       1.40470663
H       -3.12968351      -0.73694875       0.07312422
H       -2.97633428       0.99876200       0.29429554
H       -0.72048118       1.21795891      -0.87149964
H        0.13021597       1.31084633       0.98409290
H        0.75601512       2.17119708      -0.44143621
H        1.20852645       0.00969753      -1.57885606
H        2.64979598      -1.38102105      -0.08906051
H        3.03729836       0.33525938       0.09242585
H        2.06984568      -0.48630282       1.31987434
H       -0.23951840      -1.84541813      -0.97252365
H       -0.24499991      -1.32802139       0.73015129
18
Frame=5 idx=005185 GeodesicLength=0.28611348465700237 rxn_smarts="[C:1]([C@@:2]1([H:10])[C:3]([H:11])([H:12])[C@:4]([C:5]([H:14])([H:15])[H:16])([H:13])[C:6]1([H:17])[H:18])([H:7])([H:8])[H:9]>>[C:1]([C:2][C:6]([C:4]([C:3]([H:10])([H:11])[H:12])([C:5]([H:14])([H:15])[H:16])[H:13])([H:17])[H:18])([H:7])([H:8])[H:9]"
C       -2.43750146       0.04334905       0.35840494
C       -1.32071168       0.00264466      -0.62540082
C        0.30756033       1.24379354      -0.09333645
C        0.99782226      -0.05262278      -0.50752080
C        2.26264904      -0.41582692       0.24421813
C       -0.21026486      -0.97019049      -0.30315602
H       -2.15956131      -0.15072532       1.40421971
H       -3.14937028      -0.73073365       0.05015552
H       -2.96845823       0.99745358       0.30882587
H       -0.72215874       1.23039238      -0.88923298
H        0.14661516       1.31984225       0.98354967
H        0.76732527       2.17037028      -0.44405368
H        1.20741057       0.00476695      -1.57965242
H        2.64872427      -1.38286923      -0.08647168
H        3.04140862       0.33409952       0.08543026
H        2.07568356      -0.47874755       1.31942544
H       -0.24620361      -1.84083077      -0.96485335
H       -0.24096893      -1.32416550       0.73944867
18
Frame=6 idx=005185 GeodesicLength=0.34336894234573395 rxn_smarts="[C:1]([C@@:2]1([H:10])[C:3]([H:11])([H:12])[C@:4]([C:5]([H:14])([H:15])[H:16])([H:13])[C:6]1([H:17])[H:18])([H:7])([H:8])[H:9]>>[C:1]([C:2][C:6]([C:4]([C:3]([H:10])([H:11])[H:12])([C:5]([H:14])([H:15])[H:16])[H:13])([H:17])[H:18])([H:7])([H:8])[H:9]"
C       -2.44685446       0.03064976       0.35820871
C       -1.31831787       0.00647773      -0.61178416
C        0.31057570       1.24720339      -0.09614265
C        0.99988398      -0.05168634      -0.50728682
C        2.26566858      -0.41459823       0.24281452
C       -0.20900832      -0.96654105      -0.29350885
H       -2.18191693      -0.18578785       1.40275549
H       -3.16896802      -0.72332384       0.02614432
H       -2.96037246       0.99555781       0.32494154
H       -0.72380378       1.24261922      -0.90716278
H        0.16355206       1.32925317       0.98274991
H        0.77858449       2.16949635      -0.44731802
H        1.20616470      -0.00036704      -1.58035160
H        2.64759467      -1.38474324      -0.08373654
H        3.04556377       0.33285855       0.07829442
H        2.08166483      -0.47102771       1.31897440
H       -0.25308034      -1.83607582      -0.95671610
H       -0.23693058      -1.31996487       0.74912420
18
Frame=7 idx=005185 GeodesicLength=0.40061480918910736 rxn_smarts="[C:1]([C@@:2]1([H:10])[C:3]([H:11])([H:12])[C@:4]([C:5]([H:14])([H:15])[H:16])([H:13])[C:6]1([H:17])[H:18])([H:7])([H:8])[H:9]>>[C:1]([C:2][C:6]([C:4]([C:3]([H:10])([H:11])[H:12])([C:5]([H:14])([H:15])[H:16])[H:13])([H:17])[H:18])([H:7])([H:8])[H:9]"
C       -2.45637165       0.01772807       0.35771870
C       -1.31587306       0.01069375      -0.59763240
C        0.31374352       1.25076615      -0.09903612
C        1.00193855      -0.05074656      -0.50695518
C        2.26872746      -0.41336248       0.24142327
C       -0.20778577      -0.96269104      -0.28350858
H       -2.20494421      -0.22249873       1.40016826
H       -3.18840922      -0.71461976       0.00112938
H       -2.95213633       0.99295502       0.34268777
H       -0.72543028       1.25462846      -0.92528170
H        0.18104602       1.33908777       0.98168222
H        0.78980137       2.16857280      -0.45123608
H        1.20477012      -0.00570976      -1.58094407
H        2.64640023      -1.38664827      -0.08085899
H        3.04976657       0.33152460       0.07100410
H        2.08780252      -0.46314516       1.31851402
H       -0.26015512      -1.83114212      -0.94808069
H       -0.23289071      -1.31539272       0.75920608
18
Frame=8 idx=005185 GeodesicLength=0.45783826151441925 rxn_smarts="[C:1]([C@@:2]1([H:10])[C:3]([H:11])([H:12])[C@:4]([C:5]([H:14])([H:15])[H:16])([H:13])[C:6]1([H:17])[H:18])([H:7])([H:8])[H:9]>>[C:1]([C:2][C:6]([C:4]([C:3]([H:10])([H:11])[H:12])([C:5]([H:14])([H:15])[H:16])[H:13])([H:17])[H:18])([H:7])([H:8])[H:9]"
C       -2.46604841       0.00459437       0.35689854
C       -1.31338115       0.01531407      -0.58291206
C        0.31707718       1.25448596      -0.10201188
C        1.00398136      -0.04980153      -0.50651855
C        2.27182694      -0.41212586       0.24004092
C       -0.20660347      -0.95862051      -0.27312998
H       -2.22864500      -0.26088922       1.39627681
H       -3.20761476      -0.70452516      -0.02482939
H       -2.94382883       0.98950814       0.36211909
H       -0.72705084       1.26640927      -0.94358392
H        0.19912410       1.34935942       0.98033294
H        0.80099319       2.16759349      -0.45582203
H        1.20320714      -0.01126868      -1.58141995
H        2.64513134      -1.38859086      -0.07783734
H        3.05402179       0.33007912       0.06354462
H        2.09411115      -0.45509861       1.31803874
H       -0.26744232      -1.82601128      -0.93891124
H       -0.22885940      -1.31041214       0.76972469
18
Frame=9 idx=005185 GeodesicLength=0.5150504778710528 rxn_smarts="[C:1]([C@@:2]1([H:10])[C:3]([H:11])([H:12])[C@:4]([C:5]([H:14])([H:15])[H:16])([H:13])[C:6]1([H:17])[H:18])([H:7])([H:8])[H:9]>>[C:1]([C:2][C:6]([C:4]([C:3]([H:10])([H:11])[H:12])([C:5]([H:14])([H:15])[H:16])[H:13])([H:17])[H:18])([H:7])([H:8])[H:9]"
C       -2.47588530      -0.00869284       0.35571551
C       -1.31082976       0.02039756      -0.56754991
C        0.32060257       1.25839423      -0.10507294
C        1.00600625      -0.04884498      -0.50596870
C        2.27495625      -0.41089950       0.23866293
C       -0.20546101      -0.95430121      -0.26233205
H       -2.25304429      -0.30104816       1.39076412
H       -3.22658635      -0.69295982      -0.05158644
H       -2.93540010       0.98497154       0.38326223
H       -0.72867662       1.27798398      -0.96205549
H        0.21783319       1.36010558       0.97866983
H        0.81216722       2.16656948      -0.46108739
H        1.20144761      -0.01705072      -1.58176882
H        2.64375463      -1.39059491      -0.07466318
H        3.05832212       0.32849382       0.05589166
H        2.10059571      -0.44688496       1.31754370
H       -0.27495921      -1.82066782      -0.92915495
H       -0.22484290      -1.30497126       0.78072992
18
Frame=10 idx=005185 GeodesicLength=0.5722148709588044 rxn_smarts="[C:1]([C@@:2]1([H:10])[C:3]([H:11])([H:12])[C@:4]([C:5]([H:14])([H:15])[H:16])([H:13])[C:6]1([H:17])[H:18])([H:7])([H:8])[H:9]>>[C:1]([C:2][C:6]([C:4]([C:3]([H:10])([H:11])[H:12])([C:5]([H:14])([H:15])[H:16])[H:13])([H:17])[H:18])([H:7])([H:8])[H:9]"
C       -2.48586934      -0.02216614       0.35412358
C       -1.30823200       0.02593146      -0.55153460
C        0.32431771       1.26247021      -0.10819672
C        1.00800739      -0.04788093      -0.50529703
C        2.27812541      -0.40968802       0.23728198
C       -0.20436574      -0.94972577      -0.25110151
H       -2.27807176      -0.34285378       1.38357798
H       -3.24519388      -0.67986054      -0.07914113
H       -2.92705447       0.97929250       0.40614019
H       -0.73032946       1.28931118      -0.98068057
H        0.23718033       1.37130714       0.97669859
H        0.82333508       2.16548032      -0.46703272
H        1.19947436      -0.02305724      -1.58197748
H        2.64227940      -1.39265487      -0.07135262
H        3.06267706       0.32675922       0.04803554
H        2.10727888      -0.43851476       1.31701857
H       -0.28270977      -1.81509235      -0.91879552
H       -0.22084920      -1.29905764       0.79223347
18
Frame=11 idx=005185 GeodesicLength=0.6293471570136121 rxn_smarts="[C:1]([C@@:2]1([H:10])[C:3]([H:11])([H:12])[C@:4]([C:5]([H:14])([H:15])[H:16])([H:13])[C:6]1([H:17])[H:18])([H:7])([H:8])[H:9]>>[C:1]([C:2][C:6]([C:4]([C:3]([H:10])([H:11])[H:12])([C:5]([H:14])([H:15])[H:16])[H:13])([H:17])[H:18])([H:7])([H:8])[H:9]"
C       -2.49599380      -0.03581841       0.35208247
C       -1.30558625       0.03193476      -0.53480357
C        0.32823198       1.26672193      -0.11137439
C        1.00997597      -0.04691102      -0.50449309
C        2.28133090      -0.40849950       0.23589051
C       -0.20331810      -0.94488332      -0.23939800
H       -2.30369746      -0.38631139       1.37447495
H       -3.26334907      -0.66505593      -0.10742571
H       -2.91887579       0.97225979       0.43079555
H       -0.73203669       1.30038056      -0.99944628
H        0.25719774       1.38298427       0.97440718
H        0.83449660       2.16433034      -0.47367507
H        1.19725491      -0.02929970      -1.58203531
H        2.64068900      -1.39478299      -0.06790445
H        3.06708180       0.32485679       0.03994731
H        2.11417852      -0.42998421       1.31645443
H       -0.29070103      -1.80927926      -0.90777946
H       -0.21687923      -1.29264271       0.80428294
18
Frame=12 idx=005185 GeodesicLength=0.686437188578573 rxn_smarts="[C:1]([C@@:2]1([H:10])[C:3]([H:11])([H:12])[C@:4]([C:5]([H:14])([H:15])[H:16])([H:13])[C:6]1([H:17])[H:18])([H:7])([H:8])[H:9]>>[C:1]([C:2][C:6]([C:4]([C:3]([H:10])([H:11])[H:12])([C:5]([H:14])([H:15])[H:16])[H:13])([H:17])[H:18])([H:7])([H:8])[H:9]"
C       -2.50624648      -0.04962691       0.34955061
C       -1.30289368       0.03844014      -0.51729977
C        0.33235746       1.27115660      -0.11459115
C        1.01190260      -0.04593346      -0.50354611
C        2.28456897      -0.40734675       0.23447979
C       -0.20232409      -0.93975064      -0.22718881
H       -2.32985384      -0.43134989       1.36326610
H       -3.28096275      -0.64850822      -0.13635410
H       -2.91098104       0.96369382       0.45721031
H       -0.73382086       1.31118493      -1.01832835
H        0.27791897       1.39514467       0.97178356
H        0.84565911       2.16311203      -0.48101641
H        1.19475859      -0.03578108      -1.58192647
H        2.63896414      -1.39699415      -0.06432581
H        3.07153338       0.32275818       0.03160430
H        2.12130952      -0.42130182       1.31583888
H       -0.29894837      -1.80320509      -0.89606904
H       -0.21294164      -1.28569236       0.81691248
18
Frame=13 idx=005185 GeodesicLength=0.7434801627810683 rxn_smarts="[C:1]([C@@:2]1([H:10])[C:3]([H:11])([H:12])[C@:4]([C:5]([H:14])([H:15])[H:16])([H:13])[C:6]1([H:17])[H:18])([H:7])([H:8])[H:9]>>[C:1]([C:2][C:6]([C:4]([C:3]([H:10])([H:11])[H:12])([C:5]([H:14])([H:15])[H:16])[H:13])([H:17])[H:18])([H:7])([H:8])[H:9]"
C       -2.51661474      -0.06357952       0.34647332
C       -1.30015806       0.04547513      -0.49896294
C        0.33670152       1.27577681      -0.11783054
C        1.01377470      -0.04494715      -0.50244375
C        2.28783467      -0.40624168       0.23304196
C       -0.20139157      -0.93430882      -0.21444308
H       -2.35645852      -0.47787866       1.34975386
H       -3.29793616      -0.63018309      -0.16581944
H       -2.90347999       0.95343342       0.48535881
H       -0.73570932       1.32170775      -1.03730194
H        0.29937553       1.40779129       0.96881739
H        0.85682396       2.16181405      -0.48905752
H        1.19195003      -0.04250256      -1.58163435
H        2.63708668      -1.39929898      -0.06062439
H        3.07602799       0.32043994       0.02298546
H        2.12868718      -0.41247637       1.31516245
H       -0.30746790      -1.79684338      -0.88362912
H       -0.20904601      -1.27817817       0.83015384
18
Frame=14 idx=005185 GeodesicLength=0.8004835343536573 rxn_smarts="[C:1]([C@@:2]1([H:10])[C:3]([H:11])([H:12])[C@:4]([C:5]([H:14])([H:15])[H:16])([H:13])[C:6]1([H:17])[H:18])([H:7])([H:8])[H:9]>>[C:1]([C:2][C:6]([C:4]([C:3]([H:10])([H:11])[H:12])([C:5]([H:14])([H:15])[H:16])[H:13])([H:17])[H:18])([H:7])([H:8])[H:9]"
C       -2.52707327      -0.07764165       0.34280831
C       -1.29737868       0.05308123      -0.47971875
C        0.34127804       1.28059023      -0.12107176
C        1.01558208      -0.04394870      -0.50117281
C        2.29112395      -0.40520029       0.23156686
C       -0.20052583      -0.92853001      -0.20112480
H       -2.38343373      -0.52579998       1.33368902
H       -3.31418897      -0.61006165      -0.19565623
H       -2.89651131       0.94126941       0.51516786
H       -0.73772631       1.33194073      -1.05633719
H        0.32161051       1.42093139       0.96549725
H        0.86799901       2.16042995      -0.49779800
H        1.18879269      -0.04946452      -1.58114050
H        2.63503477      -1.40171418      -0.05680935
H        3.08056226       0.31786889       0.01406446
H        2.13633019      -0.40352071       1.31441051
H       -0.31627757      -1.79016354      -0.87041935
H       -0.20519784      -1.27006659       0.84404447
18
Frame=15 idx=005185 GeodesicLength=0.8574552786558097 rxn_smarts="[C:1]([C@@:2]1([H:10])[C:3]([H:11])([H:12])[C@:4]([C:5]([H:14])([H:15])[H:16])([H:13])[C:6]1([H:17])[H:18])([H:7])([H:8])[H:9]>>[C:1]([C:2][C:6]([C:4]([C:3]([H:10])([H:11])[H:12])([C:5]([H:14])([H:15])[H:16])[H:13])([H:17])[H:18])([H:7])([H:8])[H:9]"
C       -2.53759314      -0.09177332       0.33850623
C       -1.29455647       0.06129879      -0.45948565
C        0.34610012       1.28560245      -0.12429169
C        1.01731144      -0.04293488      -0.49971817
C        2.29443197      -0.40423713       0.23004342
C       -0.19973601      -0.92238705      -0.18719560
H       -2.41068340      -0.57499338       1.31483232
H       -3.32963570      -0.58816002      -0.22569566
H       -2.89021333       0.92701291       0.54654378
H       -0.73989782       1.34186926      -1.07539931
H        0.34466747       1.43456561       0.96181175
H        0.87918962       2.15894712      -0.50723439
H        1.18524540      -0.05666555      -1.58042480
H        2.63278568      -1.40425257      -0.05289291
H        3.08513212       0.31501352       0.00481346
H        2.14425830      -0.39444803       1.31356767
H       -0.32540129      -1.78313061      -0.85640096
H       -0.20140497      -1.26132713       0.85862052
18
Frame=16 idx=005185 GeodesicLength=0.9144318562190658 rxn_smarts="[C:1]([C@@:2]1([H:10])[C:3]([H:11])([H:12])[C@:4]([C:5]([H:14])([H:15])[H:16])([H:13])[C:6]1([H:17])[H:18])([H:7])([H:8])[H:9]>>[C:1]([C:2][C:6]([C:4]([C:3]([H:10])([H:11])[H:12])([C:5]([H:14])([H:15])[H:16])[H:13])([H:17])[H:18])([H:7])([H:8])[H:9]"
C       -2.54813800      -0.10593578       0.33351492
C       -1.29169130       0.07015781      -0.43817007
C        0.35117437       1.29082180      -0.12748033
C        1.01894763      -0.04190741      -0.49806450
C        2.29775280      -0.40335953       0.22846646
C       -0.19902616      -0.91586521      -0.17260859
H       -2.43810759      -0.62538926       1.29288447
H       -3.34422755      -0.56437703      -0.25579734
H       -2.88467580       0.91043425       0.57947120
H       -0.74226166       1.35146598      -1.09446880
H        0.36858625       1.44870763       0.95773781
H        0.89038608       2.15735831      -0.51738833
H        1.18126281      -0.06411755      -1.57947117
H        2.63031865      -1.40692532      -0.04886845
H        3.08972847       0.31185397      -0.00479903
H        2.15249257      -0.38525150       1.31262890
H       -0.33485597      -1.77573216      -0.84152100
H       -0.19766558      -1.25193899       0.87393385
