13
Frame=0 idx=008763 GeodesicLength=0.0 rxn_smarts="[O:1]=[C:2]([C@@:3]1([H:9])[O:4][C@@:5]2([H:10])[C:6]([H:11])([H:12])[C@@:7]12[H:13])[H:8]>>[O:1]([C@:2]1([H:8])[C@@:3]2([H:9])[O:4][C@@:5]3([H:10])[C@:6]1([H:11])[C@@:7]23[H:13])[H:12]"
O        0.89434043       2.02540075      -0.07036968
C        1.36715201       0.84433345       0.10881499
C        0.79839916      -0.45108363      -0.38861569
O        0.60045139      -1.32859374       0.72519127
C       -0.83294843      -1.09715872       0.59904383
C       -1.14633230       0.32161055       0.60756333
C       -0.67352276      -0.33748456      -0.68934226
H        2.42124746       0.85694640       0.39246107
H        1.49895197      -0.90208545      -1.10462032
H       -1.47188014      -1.92298777       0.87867105
H       -2.20328868       0.56620157       0.68930292
H       -0.08718251       1.86470818      -0.10328450
H       -1.16538760      -0.43980708      -1.64481599
13
Frame=1 idx=008763 GeodesicLength=0.11022252831557375 rxn_smarts="[O:1]=[C:2]([C@@:3]1([H:9])[O:4][C@@:5]2([H:10])[C:6]([H:11])([H:12])[C@@:7]12[H:13])[H:8]>>[O:1]([C@:2]1([H:8])[C@@:3]2([H:9])[O:4][C@@:5]3([H:10])[C@:6]1([H:11])[C@@:7]23[H:13])[H:12]"
O        0.89895739       2.02338604      -0.11116826
C        1.35466963       0.84109680       0.10767496
C        0.80205547      -0.45719684      -0.40214733
O        0.60718500      -1.34214091       0.70697614
C       -0.82301243      -1.09593094       0.59947669
C       -1.12306122       0.32941639       0.60261158
C       -0.67404038      -0.34545242      -0.69409303
H        2.38628351       0.84976141       0.46590023
H        1.50084905      -0.89490236      -1.12661643
H       -1.46823380      -1.91237357       0.89199931
H       -2.17672497       0.58165499       0.70049189
H       -0.10867007       1.86804851      -0.09691133
H       -1.17625719      -0.44536711      -1.64419441
13
Frame=2 idx=008763 GeodesicLength=0.22053091379334078 rxn_smarts="[O:1]=[C:2]([C@@:3]1([H:9])[O:4][C@@:5]2([H:10])[C:6]([H:11])([H:12])[C@@:7]12[H:13])[H:8]>>[O:1]([C@:2]1([H:8])[C@@:3]2([H:9])[O:4][C@@:5]3([H:10])[C@:6]1([H:11])[C@@:7]23[H:13])[H:12]"
O        0.90418343       2.02027641      -0.14868746
C        1.34313028       0.83753806       0.10600800
C        0.80592635      -0.46342724      -0.41523710
O        0.61362166      -1.35507156       0.68963606
C       -0.81303228      -1.09454838       0.59987889
C       -1.10015018       0.33714040       0.59718545
C       -0.67424239      -0.35314140      -0.69864534
H        2.34777659       0.84372937       0.53519591
H        1.50256733      -0.88853403      -1.14784907
H       -1.46416067      -1.90162196       0.90511017
H       -2.15032736       0.59675779       0.71074746
H       -0.12883415       1.87162644      -0.08991414
H       -1.18645860      -0.45072389      -1.64342884
13
Frame=3 idx=008763 GeodesicLength=0.33098216610941944 rxn_smarts="[O:1]=[C:2]([C@@:3]1([H:9])[O:4][C@@:5]2([H:10])[C:6]([H:11])([H:12])[C@@:7]12[H:13])[H:8]>>[O:1]([C@:2]1([H:8])[C@@:3]2([H:9])[O:4][C@@:5]3([H:10])[C@:6]1([H:11])[C@@:7]23[H:13])[H:12]"
O        0.91019014       2.01631057      -0.18322167
C        1.33244453       0.83369833       0.10411655
C        0.80997909      -0.46970516      -0.42785713
O        0.61977151      -1.36743088       0.67311747
C       -0.80302514      -1.09303494       0.60024461
C       -1.07763192       0.34476448       0.59135757
C       -0.67414874      -0.36056100      -0.70298735
H        2.30617099       0.83862241       0.60036302
H        1.50409333      -0.88282078      -1.16835768
H       -1.45969042      -1.89076483       0.91796523
H       -2.12414574       0.61147904       0.72018567
H       -0.14799067       1.87533750      -0.08241028
H       -1.19601695      -0.45589473      -1.64251599
13
Frame=4 idx=008763 GeodesicLength=0.44137328130208964 rxn_smarts="[O:1]=[C:2]([C@@:3]1([H:9])[O:4][C@@:5]2([H:10])[C:6]([H:11])([H:12])[C@@:7]12[H:13])[H:8]>>[O:1]([C@:2]1([H:8])[C@@:3]2([H:9])[O:4][C@@:5]3([H:10])[C@:6]1([H:11])[C@@:7]23[H:13])[H:12]"
O        0.91705059       2.01167760      -0.21506509
C        1.32251813       0.82960918       0.10230951
C        0.81419087      -0.47598618      -0.43994480
O        0.62562371      -1.37927692       0.65741667
C       -0.79304523      -1.09143055       0.60056278
C       -1.05557797       0.35227342       0.58517906
C       -0.67378090      -0.36771838      -0.70711004
H        2.26208345       0.83432409       0.66122770
H        1.50544283      -0.87764524      -1.18810567
H       -1.45490122      -1.87986318       0.93050478
H       -2.09827702       0.62579697       0.72885786
H       -0.16639398       1.87911126      -0.07436299
H       -1.20493325      -0.46087207      -1.64146977
13
Frame=5 idx=008763 GeodesicLength=0.5515651196293734 rxn_smarts="[O:1]=[C:2]([C@@:3]1([H:9])[O:4][C@@:5]2([H:10])[C:6]([H:11])([H:12])[C@@:7]12[H:13])[H:8]>>[O:1]([C@:2]1([H:8])[C@@:3]2([H:9])[O:4][C@@:5]3([H:10])[C@:6]1([H:11])[C@@:7]23[H:13])[H:12]"
O        0.92469813       2.00664500      -0.24470612
C        1.31321707       0.82533118       0.10074453
C        0.81854947      -0.48217023      -0.45144644
O        0.63116205      -1.39057877       0.64258866
C       -0.78315926      -1.08977896       0.60085643
C       -1.03403478       0.35961343       0.57866692
C       -0.67318211      -0.37459486      -0.71102776
H        2.21628364       0.83034954       0.71782301
H        1.50670775      -0.87277767      -1.20702423
H       -1.44988726      -1.86900750       0.94275717
H       -2.07280393       0.63960185       0.73679509
H       -0.18433398       1.88297136      -0.06570757
H       -1.21321678      -0.46560436      -1.64031971
13
Frame=6 idx=008763 GeodesicLength=0.6616508478631056 rxn_smarts="[O:1]=[C:2]([C@@:3]1([H:9])[O:4][C@@:5]2([H:10])[C:6]([H:11])([H:12])[C@@:7]12[H:13])[H:8]>>[O:1]([C@:2]1([H:8])[C@@:3]2([H:9])[O:4][C@@:5]3([H:10])[C@:6]1([H:11])[C@@:7]23[H:13])[H:12]"
O        0.93329250       2.00117232      -0.27227194
C        1.30443109       0.82091554       0.09956983
C        0.82300741      -0.48827120      -0.46235197
O        0.63638474      -1.40137332       0.62859091
C       -0.77337962      -1.08807848       0.60108767
C       -1.01306308       0.36680955       0.57185645
C       -0.67235313      -0.38122233      -0.71473420
H        2.16917117       0.82685613       0.77011773
H        1.50781645      -0.86824629      -1.22512774
H       -1.44465157      -1.85818448       0.95462737
H       -2.04779615       0.65292737       0.74405025
H       -0.20198831       1.88684966      -0.05633988
H       -1.22087149      -0.47015447      -1.63907448
13
Frame=7 idx=008763 GeodesicLength=0.7718801380266709 rxn_smarts="[O:1]=[C:2]([C@@:3]1([H:9])[O:4][C@@:5]2([H:10])[C:6]([H:11])([H:12])[C@@:7]12[H:13])[H:8]>>[O:1]([C@:2]1([H:8])[C@@:3]2([H:9])[O:4][C@@:5]3([H:10])[C@:6]1([H:11])[C@@:7]23[H:13])[H:12]"
O        0.94293552       1.99530611      -0.29805845
C        1.29602760       0.81641746       0.09885925
C        0.82753963      -0.49425490      -0.47264175
O        0.64128948      -1.41165437       0.61542931
C       -0.76375011      -1.08634943       0.60124722
C       -0.99271105       0.37384449       0.56477217
C       -0.67132042      -0.38760327      -0.71824252
H        2.12128932       0.82373555       0.81817852
H        1.50879823      -0.86396793      -1.24238150
H       -1.43926076      -1.84743461       0.96609035
H       -2.02332318       0.66572677       0.75067145
H       -0.21960114       1.89075734      -0.04617024
H       -1.22791312      -0.47452321      -1.63775381
13
Frame=8 idx=008763 GeodesicLength=0.8822060118693726 rxn_smarts="[O:1]=[C:2]([C@@:3]1([H:9])[O:4][C@@:5]2([H:10])[C:6]([H:11])([H:12])[C@@:7]12[H:13])[H:8]>>[O:1]([C@:2]1([H:8])[C@@:3]2([H:9])[O:4][C@@:5]3([H:10])[C@:6]1([H:11])[C@@:7]23[H:13])[H:12]"
O        0.95363839       1.98910907      -0.32232803
C        1.28789365       0.81188405       0.09866288
C        0.83212756      -0.50010326      -0.48230552
O        0.64587542      -1.42141696       0.60312158
C       -0.75431780      -1.08460591       0.60132699
C       -0.97302878       0.38071767       0.55742968
C       -0.67011081      -0.39374686      -0.72157203
H        2.07321078       0.82091017       0.86210414
H        1.50968072      -0.85990109      -1.25876586
H       -1.43377701      -1.83678680       0.97711883
H       -1.99946837       0.67797163       0.75669398
H       -0.23735864       1.89469138      -0.03508786
H       -1.23436510      -0.47872310      -1.63639877
13
Frame=9 idx=008763 GeodesicLength=0.9930357978167575 rxn_smarts="[O:1]=[C:2]([C@@:3]1([H:9])[O:4][C@@:5]2([H:10])[C:6]([H:11])([H:12])[C@@:7]12[H:13])[H:8]>>[O:1]([C@:2]1([H:8])[C@@:3]2([H:9])[O:4][C@@:5]3([H:10])[C@:6]1([H:11])[C@@:7]23[H:13])[H:12]"
O        0.96543263       1.98267397      -0.34574618
C        1.27991332       0.80739542       0.09894163
C        0.83678584      -0.50576862      -0.49135565
O        0.65018142      -1.43060624       0.59173188
C       -0.74512319      -1.08286972       0.60134790
C       -0.95401893       0.38740959       0.54987244
C       -0.66876794      -0.39962926      -0.72476340
H        2.02531999       0.81807124       0.90227806
H        1.51059151      -0.85596894      -1.27430407
H       -1.42828104      -1.82630288       0.98774134
H       -1.97628234       0.68958800       0.76218630
H       -0.25547178       1.89871226      -0.02283902
H       -1.24027948      -0.48270482      -1.63509122
13
Frame=10 idx=008763 GeodesicLength=1.1039640899275076 rxn_smarts="[O:1]=[C:2]([C@@:3]1([H:9])[O:4][C@@:5]2([H:10])[C:6]([H:11])([H:12])[C@@:7]12[H:13])[H:8]>>[O:1]([C@:2]1([H:8])[C@@:3]2([H:9])[O:4][C@@:5]3([H:10])[C@:6]1([H:11])[C@@:7]23[H:13])[H:12]"
O        0.97841068       1.97590258      -0.36806221
C        1.27202831       0.80295639       0.09966922
C        0.84146313      -0.51128986      -0.49981105
O        0.65418967      -1.43926220       0.58118153
C       -0.73617716      -1.08112523       0.60126776
C       -0.93571386       0.39395836       0.54207447
C       -0.66728866      -0.40529550      -0.72781998
H        1.97794713       0.81551494       0.93869645
H        1.51142073      -0.85223424      -1.28899320
H       -1.42278197      -1.81594458       0.99789400
H       -1.95378892       0.70060648       0.76718171
H       -0.27404753       1.90276973      -0.00947592
H       -1.24566155      -0.48655687      -1.63380280
13
Frame=11 idx=008763 GeodesicLength=1.215029477188399 rxn_smarts="[O:1]=[C:2]([C@@:3]1([H:9])[O:4][C@@:5]2([H:10])[C:6]([H:11])([H:12])[C@@:7]12[H:13])[H:8]>>[O:1]([C@:2]1([H:8])[C@@:3]2([H:9])[O:4][C@@:5]3([H:10])[C@:6]1([H:11])[C@@:7]23[H:13])[H:12]"
O        0.99266594       1.96877458      -0.38953836
C        1.26416589       0.79860763       0.10074950
C        0.84615158      -0.51666083      -0.50770496
O        0.65792282      -1.44737714       0.57146055
C       -0.72749720      -1.07937654       0.60108175
C       -0.91810396       0.40037066       0.53404474
C       -0.66569446      -0.41074918      -0.73077266
H        1.93130223       0.81321899       0.97165399
H        1.51219242      -0.84868357      -1.30285216
H       -1.41732537      -1.80572753       1.00758205
H       -1.93199699       0.71099097       0.77176324
H       -0.29323101       1.90689684       0.00510162
H       -1.25055189      -0.49028489      -1.63256932
13
Frame=12 idx=008763 GeodesicLength=1.3261727533638097 rxn_smarts="[O:1]=[C:2]([C@@:3]1([H:9])[O:4][C@@:5]2([H:10])[C:6]([H:11])([H:12])[C@@:7]12[H:13])[H:8]>>[O:1]([C@:2]1([H:8])[C@@:3]2([H:9])[O:4][C@@:5]3([H:10])[C@:6]1([H:11])[C@@:7]23[H:13])[H:12]"
O        1.00825037       1.96127033      -0.41043954
C        1.25626493       0.79439311       0.10210703
C        0.85085024      -0.52188182      -0.51507006
O        0.66140386      -1.45493809       0.56256480
C       -0.71909946      -1.07761519       0.60078786
C       -0.90118760       0.40666584       0.52578908
C       -0.66400486      -0.41599271      -0.73365303
H        1.88558631       0.81117102       1.00142458
H        1.51294261      -0.84533849      -1.31591458
H       -1.41194873      -1.79565084       1.01680189
H       -1.91092590       0.72071283       0.77599085
H       -0.31314465       1.91109891       0.02104289
H       -1.25498712      -0.49389488      -1.63143176
13
Frame=13 idx=008763 GeodesicLength=1.4374649130364845 rxn_smarts="[O:1]=[C:2]([C@@:3]1([H:9])[O:4][C@@:5]2([H:10])[C:6]([H:11])([H:12])[C@@:7]12[H:13])[H:8]>>[O:1]([C@:2]1([H:8])[C@@:3]2([H:9])[O:4][C@@:5]3([H:10])[C@:6]1([H:11])[C@@:7]23[H:13])[H:12]"
O        1.02530799       1.95334271      -0.43094191
C        1.24828244       0.79034138       0.10364189
C        0.85555108      -0.52696701      -0.52193959
O        0.66465453      -1.46193722       0.55448355
C       -0.71098995      -1.07583453       0.60037239
C       -0.88494129       0.41286722       0.51729288
C       -0.66222615      -0.42102982      -0.73648834
H        1.84086474       0.80944200       1.02822200
H        1.51367429      -0.84224711      -1.32821007
H       -1.40668393      -1.78571342       1.02554686
H       -1.89056354       0.72973813       0.77993718
H       -0.33393964       1.91538968       0.03849792
H       -1.25899056      -0.49739199      -1.63041475
13
Frame=14 idx=008763 GeodesicLength=1.5487061401319908 rxn_smarts="[O:1]=[C:2]([C@@:3]1([H:9])[O:4][C@@:5]2([H:10])[C:6]([H:11])([H:12])[C@@:7]12[H:13])[H:8]>>[O:1]([C@:2]1([H:8])[C@@:3]2([H:9])[O:4][C@@:5]3([H:10])[C@:6]1([H:11])[C@@:7]23[H:13])[H:12]"
O        1.04388310       1.94494209      -0.45126520
C        1.24017230       0.78650066       0.10527317
C        0.86025360      -0.53191274      -0.52834474
O        0.66768892      -1.46836021       0.54720284
C       -0.70317601      -1.07401018       0.59983017
C       -0.86936454       0.41900820       0.50854722
C       -0.66037185      -0.42586349      -0.73930738
H        1.79727497       0.80803651       1.05229652
H        1.51441072      -0.83943507      -1.33976764
H       -1.40155051      -1.77588980       1.03381081
H       -1.87092404       0.73803387       0.78365012
H       -0.35570955       1.91974245       0.05762526
H       -1.26258710      -0.50079230      -1.62955114
13
Frame=15 idx=008763 GeodesicLength=1.6598358409718073 rxn_smarts="[O:1]=[C:2]([C@@:3]1([H:9])[O:4][C@@:5]2([H:10])[C:6]([H:11])([H:12])[C@@:7]12[H:13])[H:8]>>[O:1]([C@:2]1([H:8])[C@@:3]2([H:9])[O:4][C@@:5]3([H:10])[C@:6]1([H:11])[C@@:7]23[H:13])[H:12]"
O        1.06410498       1.93600323      -0.47157574
C        1.23190116       0.78290785       0.10690326
C        0.86495475      -0.53672592      -0.53431783
O        0.67052415      -1.47419152       0.54071275
C       -0.69565939      -1.07211948       0.59915181
C       -0.85444000       0.42512500       0.49952776
C       -0.65844668      -0.43049347      -0.74213853
H        1.75484490       0.80701558       1.07383722
H        1.51516215      -0.83695288      -1.35061260
H       -1.39656914      -1.76615979       1.04158724
H       -1.85200101       0.74555435       0.78719116
H       -0.37858182       1.92414103       0.07860039
H       -1.26579405      -0.50410399      -1.62886689
13
Frame=16 idx=008763 GeodesicLength=1.7707545493075187 rxn_smarts="[O:1]=[C:2]([C@@:3]1([H:9])[O:4][C@@:5]2([H:10])[C:6]([H:11])([H:12])[C@@:7]12[H:13])[H:8]>>[O:1]([C@:2]1([H:8])[C@@:3]2([H:9])[O:4][C@@:5]3([H:10])[C@:6]1([H:11])[C@@:7]23[H:13])[H:12]"
O        1.08611168       1.92645067      -0.49203361
C        1.22343912       0.77960248       0.10843651
C        0.86965453      -0.54141268      -0.53988916
O        0.67317569      -1.47941037       0.53500942
C       -0.68844286      -1.07013276       0.59832814
C       -0.84015482       0.43125977       0.49020605
C       -0.65645472      -0.43491711      -0.74501223
H        1.71358283       0.80645347       1.09300564
H        1.51594571      -0.83485993      -1.36077188
H       -1.39176096      -1.75649528       1.04886816
H       -1.83379271       0.75224333       0.79062140
H       -0.40267790       1.92855431       0.10162537
H       -1.26862560      -0.50733591      -1.62839381
