16
Frame=0 idx=005466 GeodesicLength=0.0 rxn_smarts="[O:1]([C:2]([C:3]([C:4]([C:5]([O:6][H:16])([H:14])[H:15])([H:12])[H:13])([H:10])[H:11])([H:8])[H:9])[H:7]>>[O:1]1[C:2]([H:8])([H:9])[C:3]([H:10])([H:11])[C:4]([H:12])([H:13])[C:5]1([H:14])[H:15].[O:6]([H:7])[H:16]"
O       -0.60676564       0.38812696      -1.25708987
C       -1.45937399      -0.29174237      -0.41342354
C       -0.63277443      -1.29838791       0.39920503
C        0.57746224      -0.54550264       0.91307476
C        1.30965214       0.18308147      -0.13888139
O        0.51715263       2.18444618      -0.24195464
H       -0.17599754       1.51999568      -0.77689758
H       -1.98413843       0.38498719       0.28234925
H       -2.22926161      -0.82942150      -0.98321587
H       -0.31136196      -2.11099899      -0.25866520
H       -1.20543712      -1.73811204       1.21849550
H        1.32853679      -1.23448075       1.33122868
H        0.32252900       0.14906144       1.71724951
H        1.47312176      -0.30109107      -1.09083100
H        2.11063460       0.82113235       0.20120392
H        0.96602153       2.71890595      -0.90184754
16
Frame=1 idx=005466 GeodesicLength=0.04661328853173902 rxn_smarts="[O:1]([C:2]([C:3]([C:4]([C:5]([O:6][H:16])([H:14])[H:15])([H:12])[H:13])([H:10])[H:11])([H:8])[H:9])[H:7]>>[O:1]1[C:2]([H:8])([H:9])[C:3]([H:10])([H:11])[C:4]([H:12])([H:13])[C:5]1([H:14])[H:15].[O:6]([H:7])[H:16]"
O       -0.60445727       0.38725138      -1.25974936
C       -1.45915366      -0.29401846      -0.41515787
C       -0.63248434      -1.29624238       0.40197540
C        0.58009965      -0.54388082       0.91339529
C        1.30282185       0.18592472      -0.14765857
O        0.51645043       2.18342395      -0.23402583
H       -0.19220528       1.52624431      -0.78049797
H       -1.98745823       0.38469092       0.27524014
H       -2.22438547      -0.83377741      -0.98843594
H       -0.31294015      -2.11331401      -0.25127065
H       -1.20643463      -1.73027225       1.22332997
H        1.33013985      -1.23320604       1.33108254
H        0.32491908       0.15280214       1.71564745
H        1.48035747      -0.31500320      -1.08951697
H        2.11808887       0.80932261       0.18832873
H        0.96664183       2.73005452      -0.88268636
16
Frame=2 idx=005466 GeodesicLength=0.09320227712196315 rxn_smarts="[O:1]([C:2]([C:3]([C:4]([C:5]([O:6][H:16])([H:14])[H:15])([H:12])[H:13])([H:10])[H:11])([H:8])[H:9])[H:7]>>[O:1]1[C:2]([H:8])([H:9])[C:3]([H:10])([H:11])[C:4]([H:12])([H:13])[C:5]1([H:14])[H:15].[O:6]([H:7])[H:16]"
O       -0.60223224       0.38653231      -1.26236600
C       -1.45894100      -0.29625468      -0.41685763
C       -0.63214141      -1.29404038       0.40468866
C        0.58280183      -0.54221286       0.91363469
C        1.29607874       0.18870596      -0.15649364
O        0.51570867       2.18232729      -0.22627515
H       -0.20844948       1.53237655      -0.78416341
H       -1.99079356       0.38433824       0.26818937
H       -2.21947504      -0.83810334      -0.99360079
H       -0.31448022      -2.11551382      -0.24394557
H       -1.20732402      -1.72240713       1.22808110
H        1.33172006      -1.23191186       1.33097382
H        0.32737226       0.15658134       1.71396041
H        1.48759058      -0.32874159      -1.08782782
H        2.12515959       0.79744353       0.17535815
H        0.96740522       2.74088043      -0.86335619
16
Frame=3 idx=005466 GeodesicLength=0.13978522392319245 rxn_smarts="[O:1]([C:2]([C:3]([C:4]([C:5]([O:6][H:16])([H:14])[H:15])([H:12])[H:13])([H:10])[H:11])([H:8])[H:9])[H:7]>>[O:1]1[C:2]([H:8])([H:9])[C:3]([H:10])([H:11])[C:4]([H:12])([H:13])[C:5]1([H:14])[H:15].[O:6]([H:7])[H:16]"
O       -0.60009482       0.38596045      -1.26495454
C       -1.45874062      -0.29845619      -0.41853019
C       -0.63174907      -1.29178056       0.40735186
C        0.58557286      -0.54049872       0.91379136
C        1.28942790       0.19141997      -0.16539756
O        0.51492645       2.18115433      -0.21868608
H       -0.22473244       1.53838704      -0.78791277
H       -1.99415497       0.38392850       0.26118636
H       -2.21453317      -0.84240931      -0.99871966
H       -0.31598839      -2.11760770      -0.23667569
H       -1.20811202      -1.71449891       1.23276761
H        1.33328711      -1.23059594       1.33090247
H        0.32989634       0.16040013       1.71219084
H        1.49481343      -0.34229501      -1.08579143
H        2.13186033       0.78550297       0.16230074
H        0.96832108       2.75138895      -0.84382332
16
Frame=4 idx=005466 GeodesicLength=0.1863616552070336 rxn_smarts="[O:1]([C:2]([C:3]([C:4]([C:5]([O:6][H:16])([H:14])[H:15])([H:12])[H:13])([H:10])[H:11])([H:8])[H:9])[H:7]>>[O:1]1[C:2]([H:8])([H:9])[C:3]([H:10])([H:11])[C:4]([H:12])([H:13])[C:5]1([H:14])[H:15].[O:6]([H:7])[H:16]"
O       -0.59804179       0.38552591      -1.26751724
C       -1.45854693      -0.30063056      -0.42018045
C       -0.63131100      -1.28945763       0.40997161
C        0.58841119      -0.53873391       0.91385655
C        1.28286518       0.19406228      -0.17438151
O        0.51410964       2.17989946      -0.21123994
H       -0.24105198       1.54426949      -0.79175158
H       -1.99754112       0.38345583       0.25421373
H       -2.20954410      -0.84671248      -1.00379699
H       -0.31747657      -2.11960223      -0.22943661
H       -1.20880138      -1.70652493       1.23740094
H        1.33483463      -1.22925232       1.33085692
H        0.33250030       0.16426558       1.71032494
H        1.50200569      -0.35566049      -1.08342832
H        2.13819463       0.77350880       0.14915339
H        0.96939359       2.76158721      -0.82404544
16
Frame=5 idx=005466 GeodesicLength=0.23294411183805394 rxn_smarts="[O:1]([C:2]([C:3]([C:4]([C:5]([O:6][H:16])([H:14])[H:15])([H:12])[H:13])([H:10])[H:11])([H:8])[H:9])[H:7]>>[O:1]1[C:2]([H:8])([H:9])[C:3]([H:10])([H:11])[C:4]([H:12])([H:13])[C:5]1([H:14])[H:15].[O:6]([H:7])[H:16]"
O       -0.59607975       0.38522443      -1.27006733
C       -1.45836718      -0.30277749      -0.42181144
C       -0.63082646      -1.28707472       0.41255000
C        0.59131968      -0.53692179       0.91383602
C        1.27639832       0.19662817      -0.18344595
O        0.51326780       2.17856533      -0.20393514
H       -0.25741471       1.55002224      -0.79569185
H       -2.00096238       0.38292502       0.24727234
H       -2.20451941      -0.85101056      -1.00883599
H       -0.31893806      -2.12150177      -0.22223078
H       -1.20939402      -1.69848651       1.24198912
H        1.33637170      -1.22788477       1.33084784
H        0.33518170       0.16817539       1.70837333
H        1.50916086      -0.36882261      -1.08076503
H        2.14417681       0.76146888       0.13593980
H        0.97062511       2.77147078      -0.80402492
16
Frame=6 idx=005466 GeodesicLength=0.2795196800053392 rxn_smarts="[O:1]([C:2]([C:3]([C:4]([C:5]([O:6][H:16])([H:14])[H:15])([H:12])[H:13])([H:10])[H:11])([H:8])[H:9])[H:7]>>[O:1]1[C:2]([H:8])([H:9])[C:3]([H:10])([H:11])[C:4]([H:12])([H:13])[C:5]1([H:14])[H:15].[O:6]([H:7])[H:16]"
O       -0.59420585       0.38504550      -1.27260088
C       -1.45819397      -0.30490221      -0.42341958
C       -0.63029569      -1.28463317       0.41508569
C        0.59429264      -0.53506064       0.91372398
C        1.27002273       0.19911667      -0.19259082
O        0.51241875       2.17715027      -0.19677016
H       -0.27381625       1.55563823      -0.79973881
H       -2.00440303       0.38233327       0.24035958
H       -2.19945158      -0.85530955      -1.01382430
H       -0.32037700      -2.12330725      -0.21505359
H       -1.20988840      -1.69038242       1.24652618
H        1.33788659      -1.22648685       1.33086863
H        0.33793754       0.17213145       1.70632337
H        1.51624909      -0.38176373      -1.07781054
H        2.14980353       0.74939756       0.12267672
H        0.97202091       2.78103286      -0.78375545
16
Frame=7 idx=005466 GeodesicLength=0.32610850455123747 rxn_smarts="[O:1]([C:2]([C:3]([C:4]([C:5]([O:6][H:16])([H:14])[H:15])([H:12])[H:13])([H:10])[H:11])([H:8])[H:9])[H:7]>>[O:1]1[C:2]([H:8])([H:9])[C:3]([H:10])([H:11])[C:4]([H:12])([H:13])[C:5]1([H:14])[H:15].[O:6]([H:7])[H:16]"
O       -0.59242426       0.38498529      -1.27513043
C       -1.45803281      -0.30700803      -0.42501260
C       -0.62972110      -1.28213049       0.41758656
C        0.59733409      -0.53314996       0.91352140
C        1.26374034       0.20152334      -0.20182579
O        0.51156242       2.17565348      -0.18973169
H       -0.29026855       1.56111860      -0.80390027
H       -2.00788128       0.38167945       0.23346358
H       -2.19434067      -0.85961825      -1.01877696
H       -0.32179391      -2.12502695      -0.20788828
H       -1.21029076      -1.68219629       1.25102959
H        1.33939063      -1.22505554       1.33092466
H        0.34077384       0.17613696       1.70417990
H        1.52327019      -0.39448662      -1.07460352
H        2.15509169       0.73729887       0.10936791
H        0.97359012       2.79027612      -0.76320407
16
Frame=8 idx=005466 GeodesicLength=0.3727026242631456 rxn_smarts="[O:1]([C:2]([C:3]([C:4]([C:5]([O:6][H:16])([H:14])[H:15])([H:12])[H:13])([H:10])[H:11])([H:8])[H:9])[H:7]>>[O:1]1[C:2]([H:8])([H:9])[C:3]([H:10])([H:11])[C:4]([H:12])([H:13])[C:5]1([H:14])[H:15].[O:6]([H:7])[H:16]"
O       -0.59073738       0.38504069      -1.27765462
C       -1.45788486      -0.30909378      -0.42658435
C       -0.62909964      -1.27957387       0.42004674
C        0.60043983      -0.53119251       0.91323323
C        1.25755376       0.20384869      -0.21114136
O        0.51072471       2.17408201      -0.18283418
H       -0.30677756       1.56646128      -0.80817555
H       -2.01139077       0.38096375       0.22659809
H       -2.18919565      -0.86392677      -1.02368318
H       -0.32317973      -2.12665901      -0.20074996
H       -1.21059713      -1.67395150       1.25548655
H        1.34087931      -1.22358984       1.33102515
H        0.34367839       0.18018721       1.70194684
H        1.53020288      -0.40696530      -1.07115361
H        2.16004438       0.72518746       0.09604886
H        0.97533946       2.79918148      -0.74240867
16
Frame=9 idx=005466 GeodesicLength=0.4193015679815441 rxn_smarts="[O:1]([C:2]([C:3]([C:4]([C:5]([O:6][H:16])([H:14])[H:15])([H:12])[H:13])([H:10])[H:11])([H:8])[H:9])[H:7]>>[O:1]1[C:2]([H:8])([H:9])[C:3]([H:10])([H:11])[C:4]([H:12])([H:13])[C:5]1([H:14])[H:15].[O:6]([H:7])[H:16]"
O       -0.58914068       0.38520086      -1.28017307
C       -1.45774348      -0.31116686      -0.42813758
C       -0.62843513      -1.27695861       0.42247257
C        0.60360660      -0.52918435       0.91285102
C        1.25145308       0.20609319      -0.22054523
O        0.50990541       2.17243172      -0.17606474
H       -0.32334575       1.57166234      -0.81257280
H       -2.01492730       0.38018116       0.21974725
H       -2.18400225      -0.86825137      -1.02854271
H       -0.32454547      -2.12820824      -0.19361590
H       -1.21081071      -1.66562580       1.25990601
H        1.34234774      -1.22208365       1.33115616
H        0.34665795       0.18428777       1.69961158
H        1.53703614      -0.41920320      -1.06748735
H        2.16466230       0.71307581       0.08271963
H        0.97728154       2.80774922      -0.72132484
16
Frame=10 idx=005466 GeodesicLength=0.46591962326074027 rxn_smarts="[O:1]([C:2]([C:3]([C:4]([C:5]([O:6][H:16])([H:14])[H:15])([H:12])[H:13])([H:10])[H:11])([H:8])[H:9])[H:7]>>[O:1]1[C:2]([H:8])([H:9])[C:3]([H:10])([H:11])[C:4]([H:12])([H:13])[C:5]1([H:14])[H:15].[O:6]([H:7])[H:16]"
O       -0.58763825       0.38546325      -1.28269809
C       -1.45761588      -0.31322685      -0.42967708
C       -0.62772737      -1.27428620       0.42486673
C        0.60683869      -0.52712811       0.91238281
C        1.24544708       0.20825344      -0.23003639
O        0.50911636       2.17070449      -0.16942350
H       -0.33998587       1.57672234      -0.81710142
H       -2.01850498       0.37933371       0.21290986
H       -2.17876984      -0.87259032      -1.03336387
H       -0.32588528      -2.12967775      -0.18648689
H       -1.21093467      -1.65721961       1.26429591
H        1.34380687      -1.22053922       1.33132875
H        0.34971197       0.18843695       1.69718758
H        1.54375924      -0.43119195      -1.06363015
H        2.16896513       0.70097130       0.06939658
H        0.97941680       2.81597451      -0.69995083
16
Frame=11 idx=005466 GeodesicLength=0.5125418465866154 rxn_smarts="[O:1]([C:2]([C:3]([C:4]([C:5]([O:6][H:16])([H:14])[H:15])([H:12])[H:13])([H:10])[H:11])([H:8])[H:9])[H:7]>>[O:1]1[C:2]([H:8])([H:9])[C:3]([H:10])([H:11])[C:4]([H:12])([H:13])[C:5]1([H:14])[H:15].[O:6]([H:7])[H:16]"
O       -0.58622592       0.38582203      -1.28522482
C       -1.45749465      -0.31527783      -0.43120015
C       -0.62697620      -1.27155762       0.42722928
C        0.61013046      -0.52502268       0.91182509
C        1.23953016       0.21033006      -0.23961291
O        0.50837379       2.16890101      -0.16291328
H       -0.35669961       1.58163774      -0.82176350
H       -2.02211285       0.37841617       0.20608302
H       -2.17348801      -0.87694837      -1.03813842
H       -0.32720167      -2.13106811      -0.17935666
H       -1.21096736      -1.64873334       1.26865173
H        1.34524591      -1.21895127       1.33153745
H        0.35283708       0.19263554       1.69466524
H        1.55034361      -0.44291758      -1.05959383
H        2.17295160       0.68888702       0.05609271
H        0.98175365       2.82384723      -0.67828096
16
Frame=12 idx=005466 GeodesicLength=0.5591916154482774 rxn_smarts="[O:1]([C:2]([C:3]([C:4]([C:5]([O:6][H:16])([H:14])[H:15])([H:12])[H:13])([H:10])[H:11])([H:8])[H:9])[H:7]>>[O:1]1[C:2]([H:8])([H:9])[C:3]([H:10])([H:11])[C:4]([H:12])([H:13])[C:5]1([H:14])[H:15].[O:6]([H:7])[H:16]"
O       -0.58490321       0.38627059      -1.28776794
C       -1.45738266      -0.31732338      -0.43271796
C       -0.62618517      -1.26876630       0.42957068
C        0.61348709      -0.52286594       0.91117953
C        1.23370319       0.21231831      -0.24928372
O        0.50767430       2.16701461      -0.15651822
H       -0.37349991       1.58640953      -0.82657428
H       -2.02576695       0.37742946       0.19924710
H       -2.16814976      -0.88133849      -1.04288542
H       -0.32849778      -2.13238716      -0.17220028
H       -1.21091604      -1.64013732       1.27299561
H        1.34667796      -1.21731601       1.33178351
H        0.35604112       0.19688792       1.69205079
H        1.55678485      -0.45439935      -1.05541834
H        2.17664256       0.67682511       0.04279300
H        0.98429039       2.83137842      -0.65625406
16
Frame=13 idx=005466 GeodesicLength=0.6058560695767073 rxn_smarts="[O:1]([C:2]([C:3]([C:4]([C:5]([O:6][H:16])([H:14])[H:15])([H:12])[H:13])([H:10])[H:11])([H:8])[H:9])[H:7]>>[O:1]1[C:2]([H:8])([H:9])[C:3]([H:10])([H:11])[C:4]([H:12])([H:13])[C:5]1([H:14])[H:15].[O:6]([H:7])[H:16]"
O       -0.58367263       0.38680670      -1.29031558
C       -1.45727969      -0.31936511      -0.43422045
C       -0.62535157      -1.26591944       0.43188323
C        0.61690031      -0.52065689       0.91044806
C        1.22796045       0.21422754      -0.25903952
O        0.50703380       2.16505849      -0.15025560
H       -0.39039786       1.59103591      -0.83153259
H       -2.02945910       0.37636710       0.19241809
H       -2.16276572      -0.88575313      -1.04758609
H       -0.32976555      -2.13362970      -0.16503447
H       -1.21077576      -1.63146005       1.27730825
H        1.34809474      -1.21563050       1.33206865
H        0.35930976       0.20119334       1.68934218
H        1.56307297      -0.46560976      -1.05111127
H        2.18003526       0.66480648       0.02953711
H        0.98706059       2.83852901      -0.63390999
16
Frame=14 idx=005466 GeodesicLength=0.6525430709180879 rxn_smarts="[O:1]([C:2]([C:3]([C:4]([C:5]([O:6][H:16])([H:14])[H:15])([H:12])[H:13])([H:10])[H:11])([H:8])[H:9])[H:7]>>[O:1]1[C:2]([H:8])([H:9])[C:3]([H:10])([H:11])[C:4]([H:12])([H:13])[C:5]1([H:14])[H:15].[O:6]([H:7])[H:16]"
O       -0.58252792       0.38742470      -1.29287913
C       -1.45718221      -0.32140678      -0.43571850
C       -0.62447861      -1.26300973       0.43417715
C        0.62037473      -0.51839533       0.90963083
C        1.22230333       0.21605028      -0.26888211
O        0.50646617       2.16302143      -0.14411573
H       -0.40740070       1.59551379      -0.83664365
H       -2.03319725       0.37522685       0.18557409
H       -2.15731848      -0.89020603      -1.05225738
H       -0.33101424      -2.13480110      -0.15783343
H       -1.21055443      -1.62266963       1.28160706
H        1.34950099      -1.21388857       1.33239047
H        0.36265462       0.20555443       1.68653908
H        1.56918496      -0.47656362      -1.04670401
H        2.18314794       0.65283101       0.01630834
H        0.99004111       2.84531830      -0.61119309
16
Frame=15 idx=005466 GeodesicLength=0.6992464518018718 rxn_smarts="[O:1]([C:2]([C:3]([C:4]([C:5]([O:6][H:16])([H:14])[H:15])([H:12])[H:13])([H:10])[H:11])([H:8])[H:9])[H:7]>>[O:1]1[C:2]([H:8])([H:9])[C:3]([H:10])([H:11])[C:4]([H:12])([H:13])[C:5]1([H:14])[H:15].[O:6]([H:7])[H:16]"
O       -0.58147121       0.38812219      -1.29545350
C       -1.45709196      -0.32344718      -0.43720413
C       -0.62356422      -1.26004511       0.43644765
C        0.62390345      -0.51608305       0.90873409
C        1.21672794       0.21779489      -0.27880241
O        0.50598139       2.16091940      -0.13811498
H       -0.42452072       1.59984411      -0.84191571
H       -2.03697556       0.37400840       0.17873204
H       -2.15181911      -0.89468744      -1.05688657
H       -0.33223371      -2.13589923      -0.15061364
H       -1.21024849      -1.61379310       1.28588054
H        1.35089407      -1.21209312       1.33275483
H        0.36606005       0.20996732       1.68364905
H        1.57511706      -0.48724023      -1.04220968
H        2.18598295       0.64091517       0.00314062
H        0.99325808       2.85171696      -0.58813819
16
Frame=16 idx=005466 GeodesicLength=0.745958143527689 rxn_smarts="[O:1]([C:2]([C:3]([C:4]([C:5]([O:6][H:16])([H:14])[H:15])([H:12])[H:13])([H:10])[H:11])([H:8])[H:9])[H:7]>>[O:1]1[C:2]([H:8])([H:9])[C:3]([H:10])([H:11])[C:4]([H:12])([H:13])[C:5]1([H:14])[H:15].[O:6]([H:7])[H:16]"
O       -0.58049995       0.38889518      -1.29803438
C       -1.45700889      -0.32548433      -0.43867134
C       -0.62260689      -1.25703163       0.43868993
C        0.62748106      -0.51372206       0.90776473
C        1.21123186       0.21946726      -0.28878479
O        0.50559828       2.15876148      -0.13226582
H       -0.44176738       1.60402445      -0.84735049
H       -2.04078647       0.37271290       0.17190494
H       -2.14627742      -0.89918664      -1.06146347
H       -0.33341659      -2.13692073      -0.14338965
H       -1.20985637      -1.60485256       1.29011601
H        1.35226994      -1.21024258       1.33316723
H        0.36951372       0.21442789       1.68067785
H        1.58086154      -0.49762583      -1.03764425
H        2.18854718       0.62907315      -0.00993726
H        0.99671638       2.85770406      -0.56477925
