13
Frame=0 idx=009294 GeodesicLength=0.0 rxn_smarts="[C:1]([O:2][C:3](=[O:4])[C:5]([C:6](=[O:7])[H:13])([H:11])[H:12])([H:8])([H:9])[H:10]>>[C:1]([O+:2]=[C-:3][O:4][C:5]([C:6](=[O:7])[H:13])([H:11])[H:12])([H:8])([H:9])[H:10]"
C       -2.18126675       0.27275826       0.30581172
O       -1.54620164      -0.94540326      -0.13592475
C       -0.41456464      -0.87828430      -0.80382592
O        0.05926723       0.30032966      -1.00241685
C        1.34693162      -0.66639617      -0.21303083
C        2.06609758       0.60534985       0.20271508
O        2.44208003       0.77371328       1.32679781
H       -2.40980821       0.92017904      -0.53937841
H       -3.09658292      -0.04675210       0.79546433
H       -1.54088422       0.80811653       1.00613467
H        1.84378192      -1.20194161      -1.01306927
H        1.17722147      -1.28078077       0.67079165
H        2.25392858       1.33911155      -0.60006922
13
Frame=1 idx=009294 GeodesicLength=0.07325392313801783 rxn_smarts="[C:1]([O:2][C:3](=[O:4])[C:5]([C:6](=[O:7])[H:13])([H:11])[H:12])([H:8])([H:9])[H:10]>>[C:1]([O+:2]=[C-:3][O:4][C:5]([C:6](=[O:7])[H:13])([H:11])[H:12])([H:8])([H:9])[H:10]"
C       -2.21670270       0.28306561       0.28914518
O       -1.55224981      -0.94250750      -0.08204074
C       -0.41087233      -0.88012291      -0.72991829
O        0.05028609       0.29324310      -0.97079155
C        1.36765042      -0.66816522      -0.22249097
C        2.08601570       0.59729363       0.21118398
O        2.53871873       0.71703308       1.31303548
H       -2.44006997       0.88682036      -0.58915753
H       -3.13647956      -0.02926729       0.77521774
H       -1.60139011       0.86280750       0.97645440
H        1.85405289      -1.17315076      -1.04923359
H        1.24441543      -1.31888918       0.64315988
H        2.21662522       1.37183959      -0.56456399
13
Frame=2 idx=009294 GeodesicLength=0.14353315623157376 rxn_smarts="[C:1]([O:2][C:3](=[O:4])[C:5]([C:6](=[O:7])[H:13])([H:11])[H:12])([H:8])([H:9])[H:10]>>[C:1]([O+:2]=[C-:3][O:4][C:5]([C:6](=[O:7])[H:13])([H:11])[H:12])([H:8])([H:9])[H:10]"
C       -2.25281699       0.29134567       0.27159096
O       -1.55942600      -0.93720436      -0.02868852
C       -0.40604037      -0.87750822      -0.65136447
O        0.04170512       0.28891615      -0.93581275
C        1.38686728      -0.66864381      -0.23051230
C        2.10846428       0.58855767       0.21954191
O        2.63936773       0.66196777       1.29015878
H       -2.46758478       0.85123262      -0.63741952
H       -3.17795531      -0.01503842       0.75137332
H       -1.66444195       0.91331526       0.94541614
H        1.85939687      -1.14397573      -1.08329906
H        1.30856373      -1.35324262       0.61432997
H        2.18390040       1.40027801      -0.52531448
13
Frame=3 idx=009294 GeodesicLength=0.21203220007573237 rxn_smarts="[C:1]([O:2][C:3](=[O:4])[C:5]([C:6](=[O:7])[H:13])([H:11])[H:12])([H:8])([H:9])[H:10]>>[C:1]([O+:2]=[C-:3][O:4][C:5]([C:6](=[O:7])[H:13])([H:11])[H:12])([H:8])([H:9])[H:10]"
C       -2.29001625       0.29773030       0.25268817
O       -1.56709241      -0.92919798       0.02619686
C       -0.39984118      -0.86961132      -0.56613173
O        0.03365232       0.28788612      -0.89600318
C        1.40495697      -0.66808554      -0.23748936
C        2.13500392       0.57816011       0.22735764
O        2.74402895       0.60730512       1.25782427
H       -2.49290893       0.81187415      -0.68563673
H       -3.22126414      -0.00410363       0.72359972
H       -1.73154723       0.96182645       0.91157914
H        1.85921732      -1.11410516      -1.11643281
H        1.37071453      -1.38522721       0.58329087
H        2.15509613       1.42554860      -0.48084285
13
Frame=4 idx=009294 GeodesicLength=0.2784007357478014 rxn_smarts="[C:1]([O:2][C:3](=[O:4])[C:5]([C:6](=[O:7])[H:13])([H:11])[H:12])([H:8])([H:9])[H:10]>>[C:1]([O+:2]=[C-:3][O:4][C:5]([C:6](=[O:7])[H:13])([H:11])[H:12])([H:8])([H:9])[H:10]"
C       -2.32792831       0.30180346       0.23235138
O       -1.57561504      -0.91863845       0.08128627
C       -0.39218493      -0.85536991      -0.47351212
O        0.02615967       0.29075672      -0.85117956
C        1.42133054      -0.66619000      -0.24293949
C        2.16533198       0.56643895       0.23433530
O        2.85266399       0.55299413       1.21474476
H       -2.51494220       0.76937351      -0.73327185
H       -3.26609862       0.00258471       0.69116399
H       -1.80238314       1.00692669       0.87549166
H        1.85284516      -1.08381227      -1.14769348
H        1.42926286      -1.41418977       0.55090466
H        2.13155804       1.44732222      -0.43168154
13
Frame=5 idx=009294 GeodesicLength=0.34281105169220794 rxn_smarts="[C:1]([O:2][C:3](=[O:4])[C:5]([C:6](=[O:7])[H:13])([H:11])[H:12])([H:8])([H:9])[H:10]>>[C:1]([O+:2]=[C-:3][O:4][C:5]([C:6](=[O:7])[H:13])([H:11])[H:12])([H:8])([H:9])[H:10]"
C       -2.36631628       0.30322299       0.21019135
O       -1.58441901      -0.90530809       0.13711758
C       -0.38272072      -0.83312328      -0.37157598
O        0.01944806       0.29851700      -0.80023451
C        1.43566173      -0.66289946      -0.24687523
C        2.20056613       0.55271357       0.23941163
O        2.96452931       0.49836478       1.15995841
H       -2.53306181       0.72299611      -0.78080404
H       -3.31204140       0.00414467       0.65343620
H       -1.87771995       1.04904008       0.83632266
H        1.83900351      -1.05324132      -1.17719141
H        1.48356636      -1.44043287       0.51696634
H        2.11350407       1.46600582      -0.37672298
13
Frame=6 idx=009294 GeodesicLength=0.40439085388548524 rxn_smarts="[C:1]([O:2][C:3](=[O:4])[C:5]([C:6](=[O:7])[H:13])([H:11])[H:12])([H:8])([H:9])[H:10]>>[C:1]([O+:2]=[C-:3][O:4][C:5]([C:6](=[O:7])[H:13])([H:11])[H:12])([H:8])([H:9])[H:10]"
C       -2.40465331       0.30111811       0.18621265
O       -1.59310651      -0.88952081       0.19192352
C       -0.37133884      -0.80026835      -0.25922991
O        0.01370118       0.31316919      -0.74216333
C        1.44694071      -0.65761060      -0.24880287
C        2.24103918       0.53712094       0.24108419
O        3.07695174       0.44342962       1.09353369
H       -2.54556190       0.67381673      -0.82738051
H       -3.35843614      -0.00185094       0.60918433
H       -1.95784983       1.08596205       0.79563073
H        1.81615659      -1.02286070      -1.20386630
H        1.53099280      -1.46296670       0.48277024
H        2.10516433       1.48046147      -0.31889643
13
Frame=7 idx=009294 GeodesicLength=0.46302382591253866 rxn_smarts="[C:1]([O:2][C:3](=[O:4])[C:5]([C:6](=[O:7])[H:13])([H:11])[H:12])([H:8])([H:9])[H:10]>>[C:1]([O+:2]=[C-:3][O:4][C:5]([C:6](=[O:7])[H:13])([H:11])[H:12])([H:8])([H:9])[H:10]"
C       -2.44230925       0.29446565       0.15975782
O       -1.59983723      -0.87091068       0.24624242
C       -0.35770054      -0.75299255      -0.13390201
O        0.00924179       0.33748159      -0.67497949
C        1.45385041      -0.64963826      -0.24830312
C        2.28741027       0.51892054       0.23787250
O        3.18986034       0.38568974       1.01386917
H       -2.55117524       0.62059752      -0.87367594
H       -3.40399584      -0.01814546       0.55713307
H       -2.04426077       1.11759739       0.75223887
H        1.78159530      -0.99237751      -1.22724201
H        1.56912638      -1.48155347       0.44883148
H        2.10819438       1.49086551      -0.25784278
13
Frame=8 idx=009294 GeodesicLength=0.5169779996173407 rxn_smarts="[C:1]([O:2][C:3](=[O:4])[C:5]([C:6](=[O:7])[H:13])([H:11])[H:12])([H:8])([H:9])[H:10]>>[C:1]([O+:2]=[C-:3][O:4][C:5]([C:6](=[O:7])[H:13])([H:11])[H:12])([H:8])([H:9])[H:10]"
C       -2.47666017       0.28225122       0.13113031
O       -1.60143533      -0.84924407       0.29914075
C       -0.34209207      -0.68840791       0.00224530
O        0.00635008       0.37372030      -0.60015821
C        1.45409645      -0.63815252      -0.24490687
C        2.33755911       0.49798956       0.22879273
O        3.29840892       0.32355003       0.92216951
H       -2.54783968       0.56360775      -0.91865985
H       -3.44465421      -0.04749548       0.49829345
H       -2.13498442       1.14231052       0.70607774
H        1.73394472      -0.96179356      -1.24565066
H        1.59304299      -1.49519692       0.41688290
H        2.12426362       1.49686109      -0.19535708
13
Frame=9 idx=009294 GeodesicLength=0.5653106460056294 rxn_smarts="[C:1]([O:2][C:3](=[O:4])[C:5]([C:6](=[O:7])[H:13])([H:11])[H:12])([H:8])([H:9])[H:10]>>[C:1]([O+:2]=[C-:3][O:4][C:5]([C:6](=[O:7])[H:13])([H:11])[H:12])([H:8])([H:9])[H:10]"
C       -2.50343935       0.26468809       0.10213118
O       -1.59418109      -0.82390229       0.35130054
C       -0.32587616      -0.60827025       0.13822255
O        0.00472749       0.42091535      -0.52513117
C        1.44580816      -0.62268488      -0.23923063
C        2.38529684       0.47494745       0.21614539
O        3.39395086       0.25630291       0.82382488
H       -2.53512199       0.50152504      -0.96051840
H       -3.47384281      -0.08886652       0.43957838
H       -2.22271480       1.16025450       0.65551412
H        1.67651781      -0.93010996      -1.25814182
H        1.59798608      -1.50332519       0.38805782
H        2.15088895       1.49852576      -0.13175283
13
Frame=10 idx=009294 GeodesicLength=0.6098977987943277 rxn_smarts="[C:1]([O:2][C:3](=[O:4])[C:5]([C:6](=[O:7])[H:13])([H:11])[H:12])([H:8])([H:9])[H:10]>>[C:1]([O+:2]=[C-:3][O:4][C:5]([C:6](=[O:7])[H:13])([H:11])[H:12])([H:8])([H:9])[H:10]"
C       -2.51954533       0.24475605       0.07598099
O       -1.57881406      -0.79551715       0.40114475
C       -0.31084739      -0.52332376       0.25614115
O        0.00348029       0.47029148      -0.46426591
C        1.43086477      -0.60542438      -0.23274732
C        2.42331396       0.45181031       0.20483071
O        3.47048172       0.19003007       0.72383622
H       -2.51686798       0.43715025      -0.99609940
H       -3.48786644      -0.13356371       0.39173002
H       -2.29618130       1.17302262       0.60084962
H        1.62030845      -0.89975640      -1.26461963
H        1.58542085      -1.50652055       0.36435017
H        2.17625246       1.49704518      -0.06113137
13
Frame=11 idx=009294 GeodesicLength=0.6533349530411078 rxn_smarts="[C:1]([O:2][C:3](=[O:4])[C:5]([C:6](=[O:7])[H:13])([H:11])[H:12])([H:8])([H:9])[H:10]>>[C:1]([O+:2]=[C-:3][O:4][C:5]([C:6](=[O:7])[H:13])([H:11])[H:12])([H:8])([H:9])[H:10]"
C       -2.52720521       0.22422857       0.05395037
O       -1.55874255      -0.76485494       0.44867257
C       -0.29748648      -0.43941556       0.35215441
O        0.00202387       0.51840675      -0.41895517
C        1.41233108      -0.58725719      -0.22732824
C        2.45188867       0.42958632       0.19575692
O        3.52611566       0.12793737       0.63097791
H       -2.49575279       0.37168863      -1.02478002
H       -3.49021892      -0.17717747       0.35706959
H       -2.35493854       1.18163100       0.54464337
H        1.57027250      -0.87043030      -1.26831258
H        1.56115639      -1.50599163       0.34392827
H        2.20055631       1.49164845       0.01222259
13
Frame=12 idx=009294 GeodesicLength=0.6968809276780139 rxn_smarts="[C:1]([O:2][C:3](=[O:4])[C:5]([C:6](=[O:7])[H:13])([H:11])[H:12])([H:8])([H:9])[H:10]>>[C:1]([O+:2]=[C-:3][O:4][C:5]([C:6](=[O:7])[H:13])([H:11])[H:12])([H:8])([H:9])[H:10]"
C       -2.52900844       0.20468651       0.03571521
O       -1.53728768      -0.73324733       0.49139725
C       -0.28581615      -0.35998018       0.42755668
O        0.00009523       0.56163213      -0.38942237
C        1.39290550      -0.56985420      -0.22256980
C        2.47251270       0.40894746       0.18944536
O        3.56758301       0.07379001       0.53985212
H       -2.47447946       0.30869666      -1.04716769
H       -3.48511331      -0.21632041       0.33388994
H       -2.40050187       1.18701600       0.48910688
H        1.52874742      -0.84511805      -1.26950684
H        1.53103475      -1.50252370       0.32855492
H        2.21932830       1.48227510       0.09314836
13
Frame=13 idx=009294 GeodesicLength=0.7405285664310626 rxn_smarts="[C:1]([O:2][C:3](=[O:4])[C:5]([C:6](=[O:7])[H:13])([H:11])[H:12])([H:8])([H:9])[H:10]>>[C:1]([O+:2]=[C-:3][O:4][C:5]([C:6](=[O:7])[H:13])([H:11])[H:12])([H:8])([H:9])[H:10]"
C       -2.52710797       0.18571161       0.02059581
O       -1.51534224      -0.70073024       0.53080855
C       -0.27525067      -0.28388774       0.48813419
O       -0.00211733       0.60233294      -0.36944073
C        1.37310825      -0.55253485      -0.21914892
C        2.48785849       0.38945009       0.18479258
O        3.59614278       0.02593634       0.45629381
H       -2.45265030       0.24717923      -1.06437089
H       -3.47539999      -0.25247374       0.31883631
H       -2.43735603       1.18929019       0.43510404
H        1.49319038      -0.82121005      -1.27046480
H        1.49738496      -1.49702127       0.31495834
H        2.23753969       1.46795750       0.17390170
13
Frame=14 idx=009294 GeodesicLength=0.7850525491914502 rxn_smarts="[C:1]([O:2][C:3](=[O:4])[C:5]([C:6](=[O:7])[H:13])([H:11])[H:12])([H:8])([H:9])[H:10]>>[C:1]([O+:2]=[C-:3][O:4][C:5]([C:6](=[O:7])[H:13])([H:11])[H:12])([H:8])([H:9])[H:10]"
C       -2.52258977       0.16741965       0.00750481
O       -1.49363158      -0.66738763       0.56688455
C       -0.26570845      -0.21057196       0.53768824
O       -0.00450910       0.64070069      -0.35643320
C        1.35330002      -0.53563847      -0.21601821
C        2.49917781       0.37074057       0.18223492
O        3.61664140      -0.01502692       0.37314740
H       -2.43014361       0.18767198      -1.07765374
H       -3.46270313      -0.28580726       0.30898675
H       -2.46798619       1.18899805       0.38223352
H        1.46218913      -0.79942531      -1.27054238
H        1.46185192      -1.48980960       0.30418832
H        2.25411156       1.44813622       0.25777902
13
Frame=15 idx=009294 GeodesicLength=0.8303621029516798 rxn_smarts="[C:1]([O:2][C:3](=[O:4])[C:5]([C:6](=[O:7])[H:13])([H:11])[H:12])([H:8])([H:9])[H:10]>>[C:1]([O+:2]=[C-:3][O:4][C:5]([C:6](=[O:7])[H:13])([H:11])[H:12])([H:8])([H:9])[H:10]"
C       -2.51601179       0.14971256      -0.00386398
O       -1.47230663      -0.63334704       0.60012298
C       -0.25693677      -0.13968867       0.57865162
O       -0.00695529       0.67741267      -0.34825199
C        1.33355934      -0.51907756      -0.21336063
C        2.50740574       0.35257125       0.18111614
O        3.62984059      -0.04934120       0.29246862
H       -2.40667387       0.13018792      -1.08748902
H       -3.44779639      -0.31682140       0.30297855
H       -2.49385440       1.18630271       0.33078432
H        1.43458687      -0.77913096      -1.27035473
H        1.42520115      -1.48133085       0.29512208
H        2.26994144       1.42255058       0.34207603
13
Frame=16 idx=009294 GeodesicLength=0.876317178940687 rxn_smarts="[C:1]([O:2][C:3](=[O:4])[C:5]([C:6](=[O:7])[H:13])([H:11])[H:12])([H:8])([H:9])[H:10]>>[C:1]([O+:2]=[C-:3][O:4][C:5]([C:6](=[O:7])[H:13])([H:11])[H:12])([H:8])([H:9])[H:10]"
C       -2.50780855       0.13274188      -0.01369967
O       -1.45153916      -0.59903178       0.63034209
C       -0.24883884      -0.07136454       0.61237356
O       -0.00939922       0.71234372      -0.34405129
C        1.31409235      -0.50304922      -0.21110538
C        2.51303174       0.33485969       0.18133756
O        3.63689708      -0.07668505       0.21476293
H       -2.38251049       0.07527548      -1.09427088
H       -3.43128084      -0.34547042       0.30005977
H       -2.51564020       1.18151217       0.28124009
H        1.41005496      -0.76045777      -1.26998458
H        1.38817364      -1.47197102       0.28749889
H        2.28476752       1.39129685       0.42549692
