11
Frame=0 idx=005926 GeodesicLength=0.0 rxn_smarts="[C:1]([N:2]([C:3](=[O:4])[H:10])[C:5](=[O:6])[H:11])([H:7])([H:8])[H:9]>>[C-:5]#[O+:6].[C:1](=[N:2][C:3](=[O:4])[H:10])([H:8])[H:9].[H:7][H:11]"
C        1.16766262       0.02790039       0.28835399
N       -0.08232848       0.15228030       0.68333618
C       -0.75188697       1.32958180       0.33541365
O       -0.22909830       2.38351071       0.08747189
C       -1.10218606      -1.26772396      -0.37451575
O       -2.06285341      -1.76007987      -0.03307681
H        1.11357919      -0.96000675      -0.88220526
H        1.82043935      -0.62577102       0.85959493
H        1.63785756       0.82241452      -0.29055843
H       -1.84795453       1.21529345       0.37153186
H        0.33676899      -1.31739954      -1.04534623
11
Frame=1 idx=005926 GeodesicLength=0.08241714851966825 rxn_smarts="[C:1]([N:2]([C:3](=[O:4])[H:10])[C:5](=[O:6])[H:11])([H:7])([H:8])[H:9]>>[C-:5]#[O+:6].[C:1](=[N:2][C:3](=[O:4])[H:10])([H:8])[H:9].[H:7][H:11]"
C        1.16715220       0.02224836       0.29439610
N       -0.08951457       0.15591228       0.67486449
C       -0.74479050       1.33920463       0.32085021
O       -0.21171511       2.39751859       0.11805721
C       -1.11332704      -1.27394513      -0.35969229
O       -2.02820985      -1.81948956       0.02930183
H        1.10190736      -0.93856502      -0.91106659
H        1.80054520      -0.64589354       0.87089022
H        1.65668530       0.82696832      -0.25330583
H       -1.84148743       1.22669126       0.30349371
H        0.30275446      -1.29065018      -1.08778907
11
Frame=2 idx=005926 GeodesicLength=0.1640805963926964 rxn_smarts="[C:1]([N:2]([C:3](=[O:4])[H:10])[C:5](=[O:6])[H:11])([H:7])([H:8])[H:9]>>[C-:5]#[O+:6].[C:1](=[N:2][C:3](=[O:4])[H:10])([H:8])[H:9].[H:7][H:11]"
C        1.16654280       0.01656083       0.29980897
N       -0.09617032       0.15913648       0.66729123
C       -0.73773793       1.34827055       0.30846274
O       -0.19671815       2.40974383       0.14839946
C       -1.12461129      -1.27946724      -0.34456274
O       -1.99069751      -1.87437833       0.08670095
H        1.08950499      -0.91762930      -0.93883025
H        1.78181988      -0.66382479       0.88178597
H        1.67314588       0.83011185      -0.21826796
H       -1.83229861       1.23740508       0.23567586
H        0.26722026      -1.26592897      -1.12646421
11
Frame=3 idx=005926 GeodesicLength=0.24525980527851138 rxn_smarts="[C:1]([N:2]([C:3](=[O:4])[H:10])[C:5](=[O:6])[H:11])([H:7])([H:8])[H:9]>>[C-:5]#[O+:6].[C:1](=[N:2][C:3](=[O:4])[H:10])([H:8])[H:9].[H:7][H:11]"
C        1.16583067       0.01080718       0.30467533
N       -0.10241736       0.16198328       0.66052274
C       -0.73083137       1.35682541       0.29801818
O       -0.18381300       2.42045992       0.17884183
C       -1.13617240      -1.28444210      -0.32895125
O       -1.95055339      -1.92558171       0.13991620
H        1.07638678      -0.89698170      -0.96574579
H        1.76410938      -0.67984052       0.89248455
H        1.68759879       0.83211305      -0.18508117
H       -1.82013854       1.24759143       0.16736991
H        0.23000044      -1.24293423      -1.16205053
11
Frame=4 idx=005926 GeodesicLength=0.32590942212401774 rxn_smarts="[C:1]([N:2]([C:3](=[O:4])[H:10])[C:5](=[O:6])[H:11])([H:7])([H:8])[H:9]>>[C-:5]#[O+:6].[C:1](=[N:2][C:3](=[O:4])[H:10])([H:8])[H:9].[H:7][H:11]"
C        1.16521437       0.00505921       0.30909546
N       -0.10815842       0.16437572       0.65455851
C       -0.72425291       1.36462655       0.28936224
O       -0.17308781       2.42957939       0.20859245
C       -1.14783626      -1.28906038      -0.31274503
O       -1.90900950      -1.97277834       0.18861584
H        1.06287011      -0.87668996      -0.99171801
H        1.74767406      -0.69380614       0.90329963
H        1.70030657       0.83323519      -0.15368653
H       -1.80494889       1.25696557       0.09956139
H        0.19122868      -1.22150681      -1.19493593
11
Frame=5 idx=005926 GeodesicLength=0.40643138507623827 rxn_smarts="[C:1]([N:2]([C:3](=[O:4])[H:10])[C:5](=[O:6])[H:11])([H:7])([H:8])[H:9]>>[C-:5]#[O+:6].[C:1](=[N:2][C:3](=[O:4])[H:10])([H:8])[H:9].[H:7][H:11]"
C        1.16440179      -0.00080621       0.31303224
N       -0.11370316       0.16641035       0.64925328
C       -0.71798779       1.37196697       0.28227669
O       -0.16409301       2.43755425       0.23942791
C       -1.16001565      -1.29332319      -0.29582498
O       -1.86478819      -2.01752782       0.23455101
H        1.04850239      -0.85636244      -1.01721349
H        1.73190952      -0.70625665       0.91416462
H        1.71138736       0.83361501      -0.12367123
H       -1.78591291       1.26599304       0.02965779
H        0.15029966      -1.20126330      -1.22565385
11
Frame=6 idx=005926 GeodesicLength=0.486525659482545 rxn_smarts="[C:1]([N:2]([C:3](=[O:4])[H:10])[C:5](=[O:6])[H:11])([H:7])([H:8])[H:9]>>[C-:5]#[O+:6].[C:1](=[N:2][C:3](=[O:4])[H:10])([H:8])[H:9].[H:7][H:11]"
C        1.16379040      -0.00663011       0.31665097
N       -0.11877558       0.16797127       0.64463771
C       -0.71226721       1.37841983       0.27652921
O       -0.15715871       2.44406384       0.26904431
C       -1.17228180      -1.29731842      -0.27833975
O       -1.82006848      -2.05869303       0.27611212
H        1.03402268      -0.83645866      -1.04175073
H        1.71744509      -0.71665180       0.92558091
H        1.72108235       0.83344323      -0.09526224
H       -1.76353409       1.27409710      -0.03891060
H        0.10774535      -1.18224325      -1.25429192
11
Frame=7 idx=005926 GeodesicLength=0.5663088395867766 rxn_smarts="[C:1]([N:2]([C:3](=[O:4])[H:10])[C:5](=[O:6])[H:11])([H:7])([H:8])[H:9]>>[C-:5]#[O+:6].[C:1](=[N:2][C:3](=[O:4])[H:10])([H:8])[H:9].[H:7][H:11]"
C        1.16331677      -0.01245245       0.32000699
N       -0.12347965       0.16912241       0.64058376
C       -0.70708929       1.38404043       0.27177884
O       -0.15201622       2.44925679       0.29755589
C       -1.18476175      -1.30098027      -0.26030659
O       -1.77457799      -2.09695689       0.31372621
H        1.01940658      -0.81688034      -1.06540364
H        1.70403569      -0.72515780       0.93766847
H        1.72955651       0.83277091      -0.06824263
H       -1.73772489       1.28140336      -0.10625811
H        0.06333424      -1.16416614      -1.28110918
11
Frame=8 idx=005926 GeodesicLength=0.6461169912775516 rxn_smarts="[C:1]([N:2]([C:3](=[O:4])[H:10])[C:5](=[O:6])[H:11])([H:7])([H:8])[H:9]>>[C-:5]#[O+:6].[C:1](=[N:2][C:3](=[O:4])[H:10])([H:8])[H:9].[H:7][H:11]"
C        1.16302713      -0.01825335       0.32322494
N       -0.12784069       0.16992582       0.63704568
C       -0.70241837       1.38892520       0.26766695
O       -0.14841383       2.45341093       0.32445415
C       -1.19746225      -1.30445349      -0.24182919
O       -1.72861141      -2.13282299       0.34735610
H        1.00486867      -0.79773804      -1.08823140
H        1.69155967      -0.73181784       0.95072763
H        1.73705286       0.83175692      -0.04247974
H       -1.70879966       1.28803017      -0.17147775
H        0.01703787      -1.14696334      -1.30645738
11
Frame=9 idx=005926 GeodesicLength=0.7252470019770151 rxn_smarts="[C:1]([N:2]([C:3](=[O:4])[H:10])[C:5](=[O:6])[H:11])([H:7])([H:8])[H:9]>>[C-:5]#[O+:6].[C:1](=[N:2][C:3](=[O:4])[H:10])([H:8])[H:9].[H:7][H:11]"
C        1.16296186      -0.02412655       0.32609242
N       -0.13183026       0.17026948       0.63367874
C       -0.69837034       1.39284851       0.26385051
O       -0.14672770       2.45627812       0.35104067
C       -1.21016369      -1.30755449      -0.22294538
O       -1.68242752      -2.16529503       0.37777216
H        0.99054690      -0.77898384      -1.11028546
H        1.68015693      -0.73668954       0.96443258
H        1.74347146       0.83036393      -0.01795571
H       -1.67653652       1.29344310      -0.23553398
H       -0.03108112      -1.13055370      -1.33014654
11
Frame=10 idx=005926 GeodesicLength=0.8044271203156586 rxn_smarts="[C:1]([N:2]([C:3](=[O:4])[H:10])[C:5](=[O:6])[H:11])([H:7])([H:8])[H:9]>>[C-:5]#[O+:6].[C:1](=[N:2][C:3](=[O:4])[H:10])([H:8])[H:9].[H:7][H:11]"
C        1.16324542      -0.03000226       0.32900990
N       -0.13542979       0.17030669       0.63057745
C       -0.69469530       1.39604181       0.25997340
O       -0.14624847       2.45831888       0.37512716
C       -1.22287988      -1.31048357      -0.20390393
O       -1.63650237      -2.19548610       0.40413636
H        0.97692274      -0.76086563      -1.13145792
H        1.66962331      -0.73975955       0.97945964
H        1.74929472       0.82869569       0.00550535
H       -1.64233346       1.29798704      -0.29570517
H       -0.08099691      -1.11475300      -1.35272225
11
Frame=11 idx=005926 GeodesicLength=0.8834858696634211 rxn_smarts="[C:1]([N:2]([C:3](=[O:4])[H:10])[C:5](=[O:6])[H:11])([H:7])([H:8])[H:9]>>[C-:5]#[O+:6].[C:1](=[N:2][C:3](=[O:4])[H:10])([H:8])[H:9].[H:7][H:11]"
C        1.16390219      -0.03594451       0.33201282
N       -0.13864486       0.17007037       0.62756245
C       -0.69127795       1.39850354       0.25575692
O       -0.14677083       2.45953129       0.39675926
C       -1.23553063      -1.31315273      -0.18467558
O       -1.59074806      -2.22343954       0.42659693
H        0.96417586      -0.74333342      -1.15173101
H        1.65983401      -0.74112731       0.99578576
H        1.75465864       0.82665931       0.02806388
H       -1.60675575       1.30156094      -0.35195386
H       -0.13284262      -1.09932794      -1.37417757
11
Frame=12 idx=005926 GeodesicLength=0.9624230825815376 rxn_smarts="[C:1]([N:2]([C:3](=[O:4])[H:10])[C:5](=[O:6])[H:11])([H:7])([H:8])[H:9]>>[C-:5]#[O+:6].[C:1](=[N:2][C:3](=[O:4])[H:10])([H:8])[H:9].[H:7][H:11]"
C        1.16498663      -0.04198719       0.33517077
N       -0.14145234       0.16957646       0.62452522
C       -0.68799522       1.40030493       0.25103855
O       -0.14810543       2.46006419       0.41595763
C       -1.24799338      -1.31562740      -0.16527740
O       -1.54527643      -2.24928227       0.44529690
H        0.95254633      -0.72641611      -1.17115712
H        1.65071829      -0.74089156       1.01343936
H        1.75969577       0.82426479       0.04984345
H       -1.57038067       1.30414078      -0.40423685
H       -0.18674358      -1.08414662      -1.39460053
11
Frame=13 idx=005926 GeodesicLength=1.0412629426473416 rxn_smarts="[C:1]([N:2]([C:3](=[O:4])[H:10])[C:5](=[O:6])[H:11])([H:7])([H:8])[H:9]>>[C-:5]#[O+:6].[C:1](=[N:2][C:3](=[O:4])[H:10])([H:8])[H:9].[H:7][H:11]"
C        1.16653819      -0.04814488       0.33856316
N       -0.14384151       0.16884269       0.62137708
C       -0.68472070       1.40150778       0.24573200
O       -0.15003033       2.46003482       0.43273830
C       -1.26017347      -1.31797062      -0.14568862
O       -1.50013287      -2.27321701       0.46034299
H        0.94227261      -0.71010013      -1.18977172
H        1.64216903      -0.73912842       1.03242122
H        1.76453218       0.82152499       0.07096123
H       -1.53371481       1.30572579      -0.45263673
H       -0.24289833      -1.06907500      -1.41403890
11
Frame=14 idx=005926 GeodesicLength=1.1200069492637865 rxn_smarts="[C:1]([N:2]([C:3](=[O:4])[H:10])[C:5](=[O:6])[H:11])([H:7])([H:8])[H:9]>>[C-:5]#[O+:6].[C:1](=[N:2][C:3](=[O:4])[H:10])([H:8])[H:9].[H:7][H:11]"
C        1.16860468      -0.05442027       0.34226680
N       -0.14578478       0.16786711       0.61803178
C       -0.68134285       1.40216160       0.23978201
O       -0.15238022       2.45954969       0.44719122
C       -1.27195832      -1.32027040      -0.12588969
O       -1.45538437      -2.29541676       0.47185752
H        0.93359869      -0.69437377      -1.20760715
H        1.63411264      -0.73591658       1.05270201
H        1.76926757       0.81848404       0.09153842
H       -1.49716159       1.30632184      -0.49736721
H       -0.30157147      -1.05398649      -1.43250572
11
Frame=15 idx=005926 GeodesicLength=1.1986681633181844 rxn_smarts="[C:1]([N:2]([C:3](=[O:4])[H:10])[C:5](=[O:6])[H:11])([H:7])([H:8])[H:9]>>[C-:5]#[O+:6].[C:1](=[N:2][C:3](=[O:4])[H:10])([H:8])[H:9].[H:7][H:11]"
C        1.17123410      -0.06080514       0.34636406
N       -0.14726192       0.16665007       0.61440679
C       -0.67776395       1.40230438       0.23315109
O       -0.15500136       2.45868504       0.45940383
C       -1.28325424      -1.32260310      -0.10583894
O       -1.41104534      -2.31606224       0.47992240
H        0.92679516      -0.67921022      -1.22468763
H        1.62646523      -0.73132692       1.07424194
H        1.77400496       0.81518511       0.11170645
H       -1.46106434       1.30594257      -0.53869865
H       -0.36310829      -1.03875955      -1.44997133
11
Frame=16 idx=005926 GeodesicLength=1.2772137434104014 rxn_smarts="[C:1]([N:2]([C:3](=[O:4])[H:10])[C:5](=[O:6])[H:11])([H:7])([H:8])[H:9]>>[C-:5]#[O+:6].[C:1](=[N:2][C:3](=[O:4])[H:10])([H:8])[H:9].[H:7][H:11]"
C        1.17446222      -0.06729828       0.35093851
N       -0.14825783       0.16518857       0.61041079
C       -0.67389872       1.40195363       0.22580761
O       -0.15775947       2.45746750       0.46942991
C       -1.29395989      -1.32501375      -0.08546678
O       -1.36704088      -2.33531583       0.48452730
H        0.92216092      -0.66459358      -1.24100642
H        1.61911830      -0.72539729       1.09702097
H        1.77882039       0.81163847       0.13157869
H       -1.42569357       1.30460536      -0.57691256
H       -0.42795148      -1.02323480      -1.46632801
