13
Frame=0 idx=007975 GeodesicLength=0.0 rxn_smarts="[N:1](=[C:2]1\[O:3][C:4]([H:9])([H:10])[C@@:5]12[C:6]([H:11])([H:12])[N:7]2[H:13])\[H:8]>>[N:1](=[C:2]1\[O:3][C:4]([H:9])=[C:5]1[N:7]([C:6]([H:10])([H:11])[H:12])[H:13])\[H:8]"
N        1.52161012      -1.15628071      -1.06819175
C        1.19640437      -0.20743670      -0.31717030
O        1.77815322       0.90533127       0.12736943
C        0.52581319       1.33755436       0.89530442
C       -0.06689515       0.03116137       0.45872730
C       -1.55339584       0.01645758      -0.33584585
N       -1.10418777      -0.82731904       0.80332982
H        2.46484432      -1.05751759      -1.43457668
H        0.75127963       1.43948834       1.95424963
H       -0.68686320       1.07324444      -0.15994169
H       -1.52660947      -0.42243280      -1.32561579
H       -2.40861155       0.63272570      -0.06905231
H       -0.89154183      -1.76497625       0.47141378
13
Frame=1 idx=007975 GeodesicLength=0.09698115050157913 rxn_smarts="[N:1](=[C:2]1\[O:3][C:4]([H:9])([H:10])[C@@:5]12[C:6]([H:11])([H:12])[N:7]2[H:13])\[H:8]>>[N:1](=[C:2]1\[O:3][C:4]([H:9])=[C:5]1[N:7]([C:6]([H:10])([H:11])[H:12])[H:13])\[H:8]"
N        1.54034281      -1.15950648      -1.06904762
C        1.20707530      -0.21601615      -0.31565152
O        1.78762093       0.89917165       0.13404880
C        0.52927410       1.32946487       0.88244365
C       -0.05988835       0.02492431       0.45156652
C       -1.56426148       0.02223755      -0.32891768
N       -1.09880929      -0.83328655       0.79218813
H        2.49100634      -1.06270935      -1.41635123
H        0.73718332       1.45145668       1.94254956
H       -0.69411969       1.09794424      -0.16873098
H       -1.56579028      -0.41593092      -1.31955951
H       -2.41635066       0.63137901      -0.03670986
H       -0.89328306      -1.76912885       0.45217175
13
Frame=2 idx=007975 GeodesicLength=0.19373429606805598 rxn_smarts="[N:1](=[C:2]1\[O:3][C:4]([H:9])([H:10])[C@@:5]12[C:6]([H:11])([H:12])[N:7]2[H:13])\[H:8]>>[N:1](=[C:2]1\[O:3][C:4]([H:9])=[C:5]1[N:7]([C:6]([H:10])([H:11])[H:12])[H:13])\[H:8]"
N        1.55964679      -1.16265759      -1.06996118
C        1.21803927      -0.22480729      -0.31408337
O        1.79675584       0.89332235       0.14032344
C        0.53244566       1.32120584       0.86908682
C       -0.05270459       0.01815407       0.44422817
C       -1.57510219       0.02821037      -0.32155950
N       -1.09342977      -0.83974096       0.78032299
H        2.51789443      -1.06861097      -1.39668221
H        0.72284308       1.46376330       1.92972301
H       -0.70191977       1.12345314      -0.17709350
H       -1.60591822      -0.40862221      -1.31252348
H       -2.42336189       0.62977342      -0.00334836
H       -0.89518865      -1.77344347       0.43156715
13
Frame=3 idx=007975 GeodesicLength=0.29033386044741344 rxn_smarts="[N:1](=[C:2]1\[O:3][C:4]([H:9])([H:10])[C@@:5]12[C:6]([H:11])([H:12])[N:7]2[H:13])\[H:8]>>[N:1](=[C:2]1\[O:3][C:4]([H:9])=[C:5]1[N:7]([C:6]([H:10])([H:11])[H:12])[H:13])\[H:8]"
N        1.57976691      -1.16632101      -1.07001633
C        1.22945059      -0.23418589      -0.31186112
O        1.80566922       0.88753701       0.14655741
C        0.53533078       1.31274890       0.85526873
C       -0.04534811       0.01077150       0.43694298
C       -1.58571317       0.03433728      -0.31392569
N       -1.08826082      -0.84655084       0.76783038
H        2.54464202      -1.07409895      -1.37728890
H        0.70806228       1.47660647       1.91571415
H       -0.71007974       1.14976434      -0.18512034
H       -1.64657815      -0.40071195      -1.30452171
H       -2.42944887       0.62795822       0.03050396
H       -0.89749295      -1.77785509       0.40991649
13
Frame=4 idx=007975 GeodesicLength=0.3868843572356663 rxn_smarts="[N:1](=[C:2]1\[O:3][C:4]([H:9])([H:10])[C@@:5]12[C:6]([H:11])([H:12])[N:7]2[H:13])\[H:8]>>[N:1](=[C:2]1\[O:3][C:4]([H:9])=[C:5]1[N:7]([C:6]([H:10])([H:11])[H:12])[H:13])\[H:8]"
N        1.60046141      -1.16981044      -1.07022812
C        1.24113871      -0.24375881      -0.30964843
O        1.81412407       0.88226430       0.15207167
C        0.53787090       1.30408606       0.84089105
C       -0.03779065       0.00278155       0.42949244
C       -1.59627175       0.04067366      -0.30578740
N       -1.08309270      -0.85392354       0.75447198
H        2.57232975      -1.08064014      -1.35588826
H        0.69314712       1.48970324       1.90031366
H       -0.71900531       1.17712374      -0.19240622
H       -1.68816816      -0.39179639      -1.29537379
H       -2.43477897       0.62569428       0.06547380
H       -0.89996442      -1.78239748       0.38661762
13
Frame=5 idx=007975 GeodesicLength=0.4834264696171312 rxn_smarts="[N:1](=[C:2]1\[O:3][C:4]([H:9])([H:10])[C@@:5]12[C:6]([H:11])([H:12])[N:7]2[H:13])\[H:8]>>[N:1](=[C:2]1\[O:3][C:4]([H:9])=[C:5]1[N:7]([C:6]([H:10])([H:11])[H:12])[H:13])\[H:8]"
N        1.62209235      -1.17417259      -1.06899517
C        1.25335557      -0.25416917      -0.30639171
O        1.82233553       0.87702291       0.15755886
C        0.54009204       1.29517547       0.82602474
C       -0.03005156      -0.00593755       0.42227998
C       -1.60645139       0.04715497      -0.29743847
N       -1.07828242      -0.86162333       0.74046255
H        2.59951398      -1.08617671      -1.33553118
H        0.67777970       1.50337309       1.88346862
H       -0.72832359       1.20545651      -0.19918984
H       -1.72999369      -0.38226389      -1.28518838
H       -2.43907128       0.62314491       0.10065298
H       -0.90299526      -1.78698461       0.36228700
13
Frame=6 idx=007975 GeodesicLength=0.5800177496352807 rxn_smarts="[N:1](=[C:2]1\[O:3][C:4]([H:9])([H:10])[C@@:5]12[C:6]([H:11])([H:12])[N:7]2[H:13])\[H:8]>>[N:1](=[C:2]1\[O:3][C:4]([H:9])=[C:5]1[N:7]([C:6]([H:10])([H:11])[H:12])[H:13])\[H:8]"
N        1.64442396      -1.17874596      -1.06730073
C        1.26593880      -0.26503635      -0.30272609
O        1.83006399       0.87227418       0.16229510
C        0.54192752       1.28602677       0.81054391
C       -0.02210498      -0.01536458       0.41508715
C       -1.61642524       0.05382634      -0.28866476
N       -1.07362921      -0.86983288       0.72555244
H        2.62724694      -1.09218535      -1.31397330
H        0.66228250       1.51732356       1.86499970
H       -0.73847047       1.23502586      -0.20498150
H       -1.77241642      -0.37173742      -1.27377419
H       -2.44248836       0.62003357       0.13661677
H       -0.90634903      -1.79160774       0.33632550
13
Frame=7 idx=007975 GeodesicLength=0.6767020262155877 rxn_smarts="[N:1](=[C:2]1\[O:3][C:4]([H:9])([H:10])[C@@:5]12[C:6]([H:11])([H:12])[N:7]2[H:13])\[H:8]>>[N:1](=[C:2]1\[O:3][C:4]([H:9])=[C:5]1[N:7]([C:6]([H:10])([H:11])[H:12])[H:13])\[H:8]"
N        1.66754075      -1.18386994      -1.06462476
C        1.27895660      -0.27657311      -0.29829519
O        1.83731607       0.86795001       0.16633154
C        0.54335257       1.27663533       0.79439221
C       -0.01395578      -0.02555756       0.40806984
C       -1.62607389       0.06067015      -0.27955719
N       -1.06924761      -0.87846665       0.70975533
H        2.65515351      -1.09809545      -1.29201850
H        0.64666380       1.53155282       1.84485845
H       -0.74946664       1.26591784      -0.20968650
H       -1.81515083      -0.36029930      -1.26112644
H       -2.44494916       0.61634011       0.17305283
H       -0.91013938      -1.79620426       0.30884840
13
Frame=8 idx=007975 GeodesicLength=0.7734499956025411 rxn_smarts="[N:1](=[C:2]1\[O:3][C:4]([H:9])([H:10])[C@@:5]12[C:6]([H:11])([H:12])[N:7]2[H:13])\[H:8]>>[N:1](=[C:2]1\[O:3][C:4]([H:9])=[C:5]1[N:7]([C:6]([H:10])([H:11])[H:12])[H:13])\[H:8]"
N        1.69140924      -1.18951329      -1.06102415
C        1.29238470      -0.28876420      -0.29313092
O        1.84400191       0.86419363       0.16936630
C        0.54433397       1.26700427       0.77747813
C       -0.00560081      -0.03654123       0.40123028
C       -1.63539694       0.06769210      -0.27009058
N       -1.06512887      -0.88753995       0.69295445
H        2.68342376      -1.10415933      -1.26923840
H        0.63105658       1.54598461       1.82292579
H       -0.76150768       1.29827406      -0.21295491
H       -1.85816918      -0.34784825      -1.24715413
H       -2.44647395       0.61191506       0.20999274
H       -0.91433272      -1.80069748       0.27964539
13
Frame=9 idx=007975 GeodesicLength=0.8697039043265101 rxn_smarts="[N:1](=[C:2]1\[O:3][C:4]([H:9])([H:10])[C@@:5]12[C:6]([H:11])([H:12])[N:7]2[H:13])\[H:8]>>[N:1](=[C:2]1\[O:3][C:4]([H:9])=[C:5]1[N:7]([C:6]([H:10])([H:11])[H:12])[H:13])\[H:8]"
N        1.71618473      -1.19599431      -1.05578304
C        1.30635361      -0.30166256      -0.28678822
O        1.84980182       0.86089893       0.17083680
C        0.54479015       1.25716315       0.75954712
C        0.00296165      -0.04825707       0.39474335
C       -1.64431991       0.07490456      -0.26046267
N       -1.06130734      -0.89693196       0.67502150
H        2.71166969      -1.11012663      -1.24609606
H        0.61577542       1.56056725       1.79926255
H       -0.77486074       1.33208198      -0.21393606
H       -1.90113835      -0.33449430      -1.23214825
H       -2.44706817       0.60674086       0.24720320
H       -0.91884254      -1.80488990       0.24859976
13
Frame=10 idx=007975 GeodesicLength=0.9658405800415876 rxn_smarts="[N:1](=[C:2]1\[O:3][C:4]([H:9])([H:10])[C@@:5]12[C:6]([H:11])([H:12])[N:7]2[H:13])\[H:8]>>[N:1](=[C:2]1\[O:3][C:4]([H:9])=[C:5]1[N:7]([C:6]([H:10])([H:11])[H:12])[H:13])\[H:8]"
N        1.74177674      -1.20333915      -1.04903656
C        1.32076108      -0.31532187      -0.27944718
O        1.85482504       0.85827441       0.17072491
C        0.54472000       1.24708748       0.74061661
C        0.01173977      -0.06083034       0.38858735
C       -1.65285566       0.08230724      -0.25054585
N       -1.05782957      -0.90671283       0.65589765
H        2.74025703      -1.11608416      -1.22221896
H        0.60075991       1.57529165       1.77356130
H       -0.78950629       1.36753274      -0.21260279
H       -1.94413161      -0.32003214      -1.21581770
H       -2.44674414       0.60061529       0.28471994
H       -0.92377231      -1.80878833       0.21556128
13
Frame=11 idx=007975 GeodesicLength=1.0619186800613276 rxn_smarts="[N:1](=[C:2]1\[O:3][C:4]([H:9])([H:10])[C@@:5]12[C:6]([H:11])([H:12])[N:7]2[H:13])\[H:8]>>[N:1](=[C:2]1\[O:3][C:4]([H:9])=[C:5]1[N:7]([C:6]([H:10])([H:11])[H:12])[H:13])\[H:8]"
N        1.76819250      -1.21164652      -1.04056277
C        1.33558292      -0.32967647      -0.27110460
O        1.85894222       0.85643573       0.16861310
C        0.54406531       1.23677877       0.72055567
C        0.02073518      -0.07425763       0.38281152
C       -1.66099871       0.08988788      -0.24034469
N       -1.05467079      -0.91687381       0.63547949
H        2.76918491      -1.12216841      -1.19734729
H        0.58618910       1.59001113       1.74571130
H       -0.80564558       1.40480734      -0.20851436
H       -1.98698946      -0.30437650      -1.19817322
H       -2.44553267       0.59337808       0.32252780
H       -0.92905493      -1.81229960       0.18034804
13
Frame=12 idx=007975 GeodesicLength=1.1578780674034268 rxn_smarts="[N:1](=[C:2]1\[O:3][C:4]([H:9])([H:10])[C@@:5]12[C:6]([H:11])([H:12])[N:7]2[H:13])\[H:8]>>[N:1](=[C:2]1\[O:3][C:4]([H:9])=[C:5]1[N:7]([C:6]([H:10])([H:11])[H:12])[H:13])\[H:8]"
N        1.79548126      -1.22107362      -1.03008446
C        1.35080117      -0.34469414      -0.26174984
O        1.86197296       0.85550869       0.16396692
C        0.54276741       1.22625530       0.69918764
C        0.02995865      -0.08855260       0.37745366
C       -1.66876392       0.09765164      -0.22986120
N       -1.05182817      -0.92739958       0.61360789
H        2.79856179      -1.12851216      -1.17117050
H        0.57225237       1.60466577       1.71557411
H       -0.82344775       1.44399616      -0.20102948
H       -2.02964277      -0.28742044      -1.17922627
H       -2.44347705       0.58485731       0.36063912
H       -0.93463595      -1.81528231       0.14269241
13
Frame=13 idx=007975 GeodesicLength=1.253728185635214 rxn_smarts="[N:1](=[C:2]1\[O:3][C:4]([H:9])([H:10])[C@@:5]12[C:6]([H:11])([H:12])[N:7]2[H:13])\[H:8]>>[N:1](=[C:2]1\[O:3][C:4]([H:9])=[C:5]1[N:7]([C:6]([H:10])([H:11])[H:12])[H:13])\[H:8]"
N        1.82364199      -1.23178358      -1.01726747
C        1.36636987      -0.36027924      -0.25137604
O        1.86379891       0.85562452       0.15623689
C        0.54074271       1.21553617       0.67632930
C        0.03938262      -0.10368415       0.37257205
C       -1.67614300       0.10558143      -0.21908374
N       -1.04928476      -0.93825155       0.59012955
H        2.82837341      -1.13522198      -1.14339168
H        0.55920616       1.61909241       1.68303081
H       -0.84313091       1.48522378      -0.18957177
H       -2.07189401      -0.26910275      -1.15901930
H       -2.44060378       0.57484438       0.39904601
H       -0.94045921      -1.81757941       0.10236538
13
Frame=14 idx=007975 GeodesicLength=1.3493994845928419 rxn_smarts="[N:1](=[C:2]1\[O:3][C:4]([H:9])([H:10])[C@@:5]12[C:6]([H:11])([H:12])[N:7]2[H:13])\[H:8]>>[N:1](=[C:2]1\[O:3][C:4]([H:9])=[C:5]1[N:7]([C:6]([H:10])([H:11])[H:12])[H:13])\[H:8]"
N        1.85276262      -1.24405577      -1.00160776
C        1.38227375      -0.37644688      -0.23985692
O        1.86417806       0.85682566       0.14476025
C        0.53792018       1.20463527       0.65173893
C        0.04900314      -0.11967490       0.36825164
C       -1.68318491       0.11367893      -0.20804840
N       -1.04706184      -0.94936611       0.56484393
H        2.85866581      -1.14223469      -1.11387601
H        0.54727249       1.63331139       1.64796666
H       -0.86475071       1.52845098      -0.17333630
H       -2.11370726      -0.24938286      -1.13756412
H       -2.43694789       0.56320382       0.43767874
H       -0.94642344      -1.81894484       0.05904936
13
Frame=15 idx=007975 GeodesicLength=1.4448948676608093 rxn_smarts="[N:1](=[C:2]1\[O:3][C:4]([H:9])([H:10])[C@@:5]12[C:6]([H:11])([H:12])[N:7]2[H:13])\[H:8]>>[N:1](=[C:2]1\[O:3][C:4]([H:9])=[C:5]1[N:7]([C:6]([H:10])([H:11])[H:12])[H:13])\[H:8]"
N        1.88285817      -1.25809700      -0.98261478
C        1.39844797      -0.39305940      -0.22718525
O        1.86289006       0.85917994       0.12874025
C        0.53417481       1.19356809       0.62514531
C        0.05877484      -0.13649822       0.36458906
C       -1.68993547       0.12192688      -0.19673489
N       -1.04514761      -0.96066986       0.53750130
H        2.88947374      -1.14963302      -1.08220469
H        0.53678730       1.64724172       1.61022933
H       -0.88841845       1.57365259      -0.15147794
H       -2.15497274      -0.22824932      -1.11487494
H       -2.43252452       0.54972868       0.47653994
H       -0.95240809      -1.81909109       0.01234731
13
Frame=16 idx=007975 GeodesicLength=1.5402370609542246 rxn_smarts="[N:1](=[C:2]1\[O:3][C:4]([H:9])([H:10])[C@@:5]12[C:6]([H:11])([H:12])[N:7]2[H:13])\[H:8]>>[N:1](=[C:2]1\[O:3][C:4]([H:9])=[C:5]1[N:7]([C:6]([H:10])([H:11])[H:12])[H:13])\[H:8]"
N        1.91405408      -1.27399634      -0.95985179
C        1.41482380      -0.40987506      -0.21352379
O        1.85955586       0.86277839       0.10704369
C        0.52935992       1.18236300       0.59617576
C        0.06869344      -0.15411324       0.36161588
C       -1.69651291       0.13033641      -0.18508366
N       -1.04346627      -0.97209483       0.50770648
H        2.92093323      -1.15780663      -1.04734780
H        0.52813581       1.66084723       1.56961195
H       -0.91418241       1.62066664      -0.12288984
H       -2.19588074      -0.20561156      -1.09088714
H       -2.42734350       0.53413111       0.51582751
H       -0.95817031      -1.81762513      -0.03839722
