11
Frame=0 idx=001677 GeodesicLength=0.0 rxn_smarts="[O:1]([C@@:2]1([H:8])[C:3]([H:9])([H:10])[O:4]/[C:5]1=[N:6]\[H:11])[H:7]>>[O:1]=[C:2](/[C:5]([O:4][C:3]([H:7])([H:9])[H:10])=[N:6]/[H:11])[H:8]"
O        0.53198303       1.60007619       1.07132614
C       -0.05984165       1.29450933      -0.04937535
C        0.84648493      -1.08545724       0.51061892
O       -0.52713405      -0.96786002       0.39259024
C       -0.68686291       0.06493867      -0.47033924
N       -1.36145976       0.04508027      -1.55002630
H        0.89993880       0.75209853       1.40664029
H       -0.38349464       2.16855466      -0.60864751
H        1.34638680      -1.38558144      -0.40605875
H        1.13313758      -1.60358562       1.42126273
H       -1.73913816      -0.88277331      -1.71799113
11
Frame=1 idx=001677 GeodesicLength=0.09900248660214676 rxn_smarts="[O:1]([C@@:2]1([H:8])[C:3]([H:9])([H:10])[O:4]/[C:5]1=[N:6]\[H:11])[H:7]>>[O:1]=[C:2](/[C:5]([O:4][C:3]([H:7])([H:9])[H:10])=[N:6]/[H:11])[H:8]"
O        0.50528328       1.59297380       1.08278640
C       -0.03857625       1.27505192      -0.05813137
C        0.85995048      -1.05603683       0.50850942
O       -0.51853135      -0.98897581       0.36952957
C       -0.70557549       0.05878011      -0.46862783
N       -1.41497952       0.05362267      -1.52448273
H        0.85675131       0.73068845       1.45394980
H       -0.29481604       2.14297000      -0.66145002
H        1.38387035      -1.33743110      -0.40098152
H        1.14350644      -1.59418019       1.40862123
H       -1.77688320      -0.87746301      -1.70972295
11
Frame=2 idx=001677 GeodesicLength=0.1982795930993651 rxn_smarts="[O:1]([C@@:2]1([H:8])[C:3]([H:9])([H:10])[O:4]/[C:5]1=[N:6]\[H:11])[H:7]>>[O:1]=[C:2](/[C:5]([O:4][C:3]([H:7])([H:9])[H:10])=[N:6]/[H:11])[H:8]"
O        0.48240061       1.58650973       1.08966662
C       -0.01889009       1.25568880      -0.06647833
C        0.87234959      -1.02756620       0.50810317
O       -0.50827734      -1.01015037       0.34341148
C       -0.72118117       0.05222096      -0.46885394
N       -1.46642060       0.06378378      -1.49810603
H        0.81491980       0.70928642       1.49575414
H       -0.21356896       2.11321767      -0.70754585
H        1.42181438      -1.29046957      -0.39212773
H        1.15180355      -1.58388359       1.39854637
H       -1.81494978      -0.86863762      -1.70236990
11
Frame=3 idx=001677 GeodesicLength=0.2977018427738712 rxn_smarts="[O:1]([C@@:2]1([H:8])[C:3]([H:9])([H:10])[O:4]/[C:5]1=[N:6]\[H:11])[H:7]>>[O:1]=[C:2](/[C:5]([O:4][C:3]([H:7])([H:9])[H:10])=[N:6]/[H:11])[H:8]"
O        0.46283033       1.58052868       1.09280646
C       -0.00015767       1.23658601      -0.07490954
C        0.88378359      -1.00016939       0.50916402
O       -0.49616491      -1.03124130       0.31427333
C       -0.73382606       0.04528147      -0.47109279
N       -1.51556810       0.07500567      -1.47088340
H        0.77438536       0.68778828       1.53271876
H       -0.13991685       2.08096284      -0.74792107
H        1.46014401      -1.24474841      -0.37967927
H        1.15800872      -1.57321104       1.39072130
H       -1.85351840      -0.85678281      -1.69519780
11
Frame=4 idx=001677 GeodesicLength=0.3971874702391402 rxn_smarts="[O:1]([C@@:2]1([H:8])[C:3]([H:9])([H:10])[O:4]/[C:5]1=[N:6]\[H:11])[H:7]>>[O:1]=[C:2](/[C:5]([O:4][C:3]([H:7])([H:9])[H:10])=[N:6]/[H:11])[H:8]"
O        0.44551656       1.57478172       1.09306060
C        0.01824599       1.21778355      -0.08380445
C        0.89460045      -0.97385190       0.51148180
O       -0.48159299      -1.05230326       0.28144610
C       -0.74313086       0.03788299      -0.47600503
N       -1.56113790       0.08678244      -1.44387689
H        0.73425394       0.66592835       1.56568318
H       -0.07325558       2.04766040      -0.78351675
H        1.49954676      -1.19989813      -0.36351187
H        1.16206959      -1.56260583       1.38484881
H       -1.89511596      -0.84216033      -1.68580552
11
Frame=5 idx=001677 GeodesicLength=0.4966553620490396 rxn_smarts="[O:1]([C@@:2]1([H:8])[C:3]([H:9])([H:10])[O:4]/[C:5]1=[N:6]\[H:11])[H:7]>>[O:1]=[C:2](/[C:5]([O:4][C:3]([H:7])([H:9])[H:10])=[N:6]/[H:11])[H:8]"
O        0.42980653       1.56911287       1.09101279
C        0.03664644       1.19937678      -0.09329667
C        0.90482076      -0.94858932       0.51478876
O       -0.46429313      -1.07316814       0.24464821
C       -0.74924539       0.03016600      -0.48377099
N       -1.60317294       0.09887515      -1.41709205
H        0.69405871       0.64347089       1.59510004
H       -0.01266627       2.01437000      -0.81525138
H        1.53998906      -1.15568485      -0.34368848
H        1.16389574      -1.55240676       1.38050602
H       -1.93983951      -0.82552263      -1.67295625
11
Frame=6 idx=001677 GeodesicLength=0.5960147677234219 rxn_smarts="[O:1]([C@@:2]1([H:8])[C:3]([H:9])([H:10])[O:4]/[C:5]1=[N:6]\[H:11])[H:7]>>[O:1]=[C:2](/[C:5]([O:4][C:3]([H:7])([H:9])[H:10])=[N:6]/[H:11])[H:8]"
O        0.41543725       1.56348891       1.08698449
C        0.05529072       1.18146377      -0.10345062
C        0.91432878      -0.92437194       0.51882115
O       -0.44407031      -1.09362469       0.20375792
C       -0.75242584       0.02228542      -0.49435067
N       -1.64176813       0.11104421      -1.39040876
H        0.65333769       0.62022723       1.62126778
H        0.04258539       1.98196778      -0.84380943
H        1.58115540      -1.11195996      -0.32030165
H        1.16333034      -1.54290255       1.37721563
H       -1.98720128      -0.80761817      -1.65572584
11
Frame=7 idx=001677 GeodesicLength=0.6951854782060293 rxn_smarts="[O:1]([C@@:2]1([H:8])[C:3]([H:9])([H:10])[O:4]/[C:5]1=[N:6]\[H:11])[H:7]>>[O:1]=[C:2](/[C:5]([O:4][C:3]([H:7])([H:9])[H:10])=[N:6]/[H:11])[H:8]"
O        0.40237061       1.55793043       1.08119711
C        0.07428237       1.16416118      -0.11424987
C        0.92288895      -0.90119287       0.52332545
O       -0.42089182      -1.11334041       0.15885359
C       -0.75312729       0.01448282      -0.50745467
N       -1.67722920       0.12306375      -1.36345374
H        0.61194635       0.59607831       1.64430926
H        0.09309122       1.95105995      -0.86977688
H        1.62245299      -1.06869486      -0.29350802
H        1.16018503      -1.53433121       1.37449361
H       -2.03596921      -0.78921710      -1.63373584
11
Frame=8 idx=001677 GeodesicLength=0.7942282472474732 rxn_smarts="[O:1]([C@@:2]1([H:8])[C:3]([H:9])([H:10])[O:4]/[C:5]1=[N:6]\[H:11])[H:7]>>[O:1]=[C:2](/[C:5]([O:4][C:3]([H:7])([H:9])[H:10])=[N:6]/[H:11])[H:8]"
O        0.39055842       1.55250788       1.07389562
C        0.09372293       1.14764747      -0.12567700
C        0.93032820      -0.87904290       0.52808639
O       -0.39457827      -1.13200459       0.10977565
C       -0.75163193       0.00701260      -0.52298399
N       -1.70965718       0.13464418      -1.33618464
H        0.56957289       0.57088573       1.66438836
H        0.13952722       1.92214901      -0.89368571
H        1.66351180      -1.02578569      -0.26330400
H        1.15420397      -1.52700329       1.37189235
H       -2.08555805      -0.77101039      -1.60620303
11
Frame=9 idx=001677 GeodesicLength=0.8928378356240386 rxn_smarts="[O:1]([C@@:2]1([H:8])[C:3]([H:9])([H:10])[O:4]/[C:5]1=[N:6]\[H:11])[H:7]>>[O:1]=[C:2](/[C:5]([O:4][C:3]([H:7])([H:9])[H:10])=[N:6]/[H:11])[H:8]"
O        0.37993261       1.54716878       1.06516900
C        0.11348422       1.13190689      -0.13759151
C        0.93627423      -0.85787068       0.53281989
O       -0.36531966      -1.14898923       0.05690707
C       -0.74854269       0.00013040      -0.54029469
N       -1.73884997       0.14553227      -1.30839934
H        0.52648357       0.54464395       1.68131445
H        0.18225386       1.89530644      -0.91580592
H        1.70342013      -0.98338364      -0.22997348
H        1.14517657      -1.52089045       1.36881450
H       -2.13431287      -0.75355473      -1.57295996
11
Frame=10 idx=001677 GeodesicLength=0.9912798235076674 rxn_smarts="[O:1]([C@@:2]1([H:8])[C:3]([H:9])([H:10])[O:4]/[C:5]1=[N:6]\[H:11])[H:7]>>[O:1]=[C:2](/[C:5]([O:4][C:3]([H:7])([H:9])[H:10])=[N:6]/[H:11])[H:8]"
O        0.37096836       1.54223385       1.05526069
C        0.13358158       1.11725420      -0.14988443
C        0.94049310      -0.83773160       0.53738579
O       -0.33321815      -1.16387185       0.00055652
C       -0.74435836      -0.00582423      -0.55887829
N       -1.76533895       0.15535552      -1.28006967
H        0.48292779       0.51742156       1.69535717
H        0.22161703       1.87089648      -0.93655197
H        1.74152852      -0.94163072      -0.19366032
H        1.13292743      -1.51638368       1.36487427
H       -2.18112835      -0.73771950      -1.53438977
11
Frame=11 idx=001677 GeodesicLength=1.0894924145172695 rxn_smarts="[O:1]([C@@:2]1([H:8])[C:3]([H:9])([H:10])[O:4]/[C:5]1=[N:6]\[H:11])[H:7]>>[O:1]=[C:2](/[C:5]([O:4][C:3]([H:7])([H:9])[H:10])=[N:6]/[H:11])[H:8]"
O        0.36370092       1.53781307       1.04436487
C        0.15391129       1.10379586      -0.16240940
C        0.94274390      -0.81859763       0.54157762
O       -0.29846937      -1.17603317      -0.05884733
C       -0.73944441      -0.01062051      -0.57827165
N       -1.78896161       0.16378473      -1.25149918
H        0.43913617       0.48928825       1.70659169
H        0.25800084       1.84893642      -0.95613527
H        1.77715396      -0.90073931      -0.15460753
H        1.11732047      -1.51357210       1.35954810
H       -2.22509216      -0.72405561      -1.49031191
11
Frame=12 idx=001677 GeodesicLength=1.1875072950375365 rxn_smarts="[O:1]([C@@:2]1([H:8])[C:3]([H:9])([H:10])[O:4]/[C:5]1=[N:6]\[H:11])[H:7]>>[O:1]=[C:2](/[C:5]([O:4][C:3]([H:7])([H:9])[H:10])=[N:6]/[H:11])[H:8]"
O        0.35835775       1.53409846       1.03263244
C        0.17438390       1.09163221      -0.17503756
C        0.94283410      -0.80046605       0.54525291
O       -0.26154480      -1.18487931      -0.12045031
C       -0.73417778      -0.01408211      -0.59795580
N       -1.81010698       0.17062942      -1.22243929
H        0.39558137       0.46042146       1.71519359
H        0.29160783       1.82940158      -0.97477743
H        1.80954613      -0.86113135      -0.11321833
H        1.09841190      -1.51247685       1.35245077
H       -2.26489342      -0.71314745      -1.44165098
11
Frame=13 idx=001677 GeodesicLength=1.2853902576505691 rxn_smarts="[O:1]([C@@:2]1([H:8])[C:3]([H:9])([H:10])[O:4]/[C:5]1=[N:6]\[H:11])[H:7]>>[O:1]=[C:2](/[C:5]([O:4][C:3]([H:7])([H:9])[H:10])=[N:6]/[H:11])[H:8]"
O        0.35509929       1.53127642       1.02021377
C        0.19490754       1.08080859      -0.18765254
C        0.94068758      -0.78330020       0.54831567
O       -0.22312036      -1.18996353      -0.18306792
C       -0.72879174      -0.01616671      -0.61756521
N       -1.82921081       0.17576468      -1.19250757
H        0.35269170       0.43101500       1.72144392
H        0.32264768       1.81216538      -0.99266990
H        1.83804069      -0.82326528      -0.07007742
H        1.07652558      -1.51297518       1.34332238
H       -2.29947715      -0.70535917      -1.38975518
11
Frame=14 idx=001677 GeodesicLength=1.3832150037773892 rxn_smarts="[O:1]([C@@:2]1([H:8])[C:3]([H:9])([H:10])[O:4]/[C:5]1=[N:6]\[H:11])[H:7]>>[O:1]=[C:2](/[C:5]([O:4][C:3]([H:7])([H:9])[H:10])=[N:6]/[H:11])[H:8]"
O        0.35402871       1.52951951       1.00730895
C        0.21531575       1.07132658      -0.20007840
C        0.93635888      -0.76699306       0.55070479
O       -0.18417035      -1.19103539      -0.24518129
C       -0.72357363      -0.01686915      -0.63671660
N       -1.84658048       0.17912438      -1.16145738
H        0.31090228       0.40125664       1.72575667
H        0.35140797       1.79695623      -1.00995713
H        1.86206886      -0.78760431      -0.02607378
H        1.05231600      -1.51477313       1.33203663
H       -2.32807400      -0.70090829      -1.33634246
11
Frame=15 idx=001677 GeodesicLength=1.4810878516738397 rxn_smarts="[O:1]([C@@:2]1([H:8])[C:3]([H:9])([H:10])[O:4]/[C:5]1=[N:6]\[H:11])[H:7]>>[O:1]=[C:2](/[C:5]([O:4][C:3]([H:7])([H:9])[H:10])=[N:6]/[H:11])[H:8]"
O        0.35387721       1.52858907       0.99422174
C        0.23568792       1.06316016      -0.21232912
C        0.93005920      -0.75135462       0.55226748
O       -0.14470552      -1.18819590      -0.30666704
C       -0.71766978      -0.01636964      -0.65673252
N       -1.86092347       0.18062223      -1.13171923
H        0.26891874       0.37062338       1.72818251
H        0.37917645       1.78375991      -1.02648633
H        1.88193185      -0.75388338       0.01862839
H        1.02617495      -1.51761079       1.31834624
H       -2.35252755      -0.69934043      -1.27771212
11
Frame=16 idx=001677 GeodesicLength=1.5790815522225978 rxn_smarts="[O:1]([C@@:2]1([H:8])[C:3]([H:9])([H:10])[O:4]/[C:5]1=[N:6]\[H:11])[H:7]>>[O:1]=[C:2](/[C:5]([O:4][C:3]([H:7])([H:9])[H:10])=[N:6]/[H:11])[H:8]"
O        0.35483421       1.52864778       0.98106328
C        0.25577564       1.05620438      -0.22420948
C        0.92196293      -0.73622976       0.55304928
O       -0.10592171      -1.18174082      -0.36585863
C       -0.71162373      -0.01471722      -0.67698452
N       -1.87293641       0.18045056      -1.10277442
H        0.22717807       0.33923736       1.72910022
H        0.40615105       1.77207172      -1.04239557
H        1.89725546      -0.72242873       0.06289757
H        0.99911683      -1.52100854       1.30245440
H       -2.37179233      -0.70048672      -1.21634212
