13
Frame=0 idx=003278 GeodesicLength=0.0 rxn_smarts="[C:1]([C@@:2]1([C:5](=[O:6])[H:13])[C:3]([H:10])([H:11])[N:4]1[H:12])([H:7])([H:8])[H:9]>>[C:1]([C@@:2]1([C:5](=[O:6])[H:13])[C-:3]([H:10])[N+:4]1([H:11])[H:12])([H:7])([H:8])[H:9]"
C        1.42148710      -0.63337508       0.06210772
C        0.05548924       0.00212934       0.04361918
C       -0.12549683       1.41048149       0.51285637
N       -0.26795621       0.80849221      -1.11784675
C       -1.08048999      -0.90691858       0.41293516
O       -2.18780324      -0.82275372      -0.04893046
H        1.48398745      -1.46561344      -0.64272117
H        2.17139429       0.11056709      -0.20114606
H        1.64963397      -1.00269128       1.06390594
H       -1.16816931       1.57524839       0.80510836
H        0.15222375       1.83014700      -0.75470504
H       -1.26690605       0.76817627      -1.30807088
H       -0.83739415      -1.67388964       1.17288761
13
Frame=1 idx=003278 GeodesicLength=0.05346407130329927 rxn_smarts="[C:1]([C@@:2]1([C:5](=[O:6])[H:13])[C:3]([H:10])([H:11])[N:4]1[H:12])([H:7])([H:8])[H:9]>>[C:1]([C@@:2]1([C:5](=[O:6])[H:13])[C-:3]([H:10])[N+:4]1([H:11])[H:12])([H:7])([H:8])[H:9]"
C        1.42050581      -0.63251738       0.06170756
C        0.05282940      -0.00119471       0.04524475
C       -0.13192898       1.41021747       0.50370882
N       -0.27392578       0.81282878      -1.11006815
C       -1.08158637      -0.91059404       0.41488027
O       -2.18966366      -0.82696487      -0.04571767
H        1.48536441      -1.46314091      -0.64485042
H        2.16890455       0.11360664      -0.19982566
H        1.64996318      -1.00353051       1.06260392
H       -1.17120574       1.57741776       0.80480737
H        0.17887974       1.83659383      -0.75852777
H       -1.27086995       0.76568512      -1.30763435
H       -0.83726661      -1.67840718       1.17367134
13
Frame=2 idx=003278 GeodesicLength=0.10689835661056063 rxn_smarts="[C:1]([C@@:2]1([C:5](=[O:6])[H:13])[C:3]([H:10])([H:11])[N:4]1[H:12])([H:7])([H:8])[H:9]>>[C:1]([C@@:2]1([C:5](=[O:6])[H:13])[C-:3]([H:10])[N+:4]1([H:11])[H:12])([H:7])([H:8])[H:9]"
C        1.41949622      -0.63160770       0.06127755
C        0.05017479      -0.00440393       0.04680674
C       -0.13826909       1.41001488       0.49459264
N       -0.27979659       0.81724762      -1.10240431
C       -1.08267083      -0.91416921       0.41676654
O       -2.19153125      -0.83098083      -0.04249407
H        1.48669801      -1.46059657      -0.64701829
H        2.16642363       0.11666028      -0.19849960
H        1.65024811      -1.00433793       1.06126263
H       -1.17401877       1.57959007       0.80474266
H        0.20498706       1.84250566      -0.76193677
H       -1.27457883       0.76285536      -1.30754446
H       -0.83716246      -1.68277772       1.17444876
13
Frame=3 idx=003278 GeodesicLength=0.1603019661100816 rxn_smarts="[C:1]([C@@:2]1([C:5](=[O:6])[H:13])[C:3]([H:10])([H:11])[N:4]1[H:12])([H:7])([H:8])[H:9]>>[C:1]([C@@:2]1([C:5](=[O:6])[H:13])[C-:3]([H:10])[N+:4]1([H:11])[H:12])([H:7])([H:8])[H:9]"
C        1.41846366      -0.63065367       0.06082056
C        0.04752935      -0.00750715       0.04830492
C       -0.14451495       1.40985901       0.48551888
N       -0.28557200       0.82171255      -1.09486711
C       -1.08374221      -0.91765087       0.41859480
O       -2.19340310      -0.83481280      -0.03926481
H        1.48799340      -1.45799909      -0.64920949
H        2.16395427       0.11971945      -0.19717732
H        1.65049573      -1.00511178       1.05988810
H       -1.17661016       1.58177178       0.80488020
H        0.23052252       1.84794744      -0.76494375
H       -1.27803559       0.75973420      -1.30776553
H       -0.83708092      -1.68700906       1.17522052
13
Frame=4 idx=003278 GeodesicLength=0.21367838223429575 rxn_smarts="[C:1]([C@@:2]1([C:5](=[O:6])[H:13])[C:3]([H:10])([H:11])[N:4]1[H:12])([H:7])([H:8])[H:9]>>[C:1]([C@@:2]1([C:5](=[O:6])[H:13])[C-:3]([H:10])[N+:4]1([H:11])[H:12])([H:7])([H:8])[H:9]"
C        1.41741856      -0.62966475       0.06033898
C        0.04489607      -0.01051358       0.04973939
C       -0.15066693       1.40974238       0.47649468
N       -0.29125671       0.82619455      -1.08746726
C       -1.08480406      -0.92105014       0.42036735
O       -2.19528569      -0.83847684      -0.03603319
H        1.48926183      -1.45537185      -0.65140920
H        2.16150691       0.12277739      -0.19586956
H        1.65071915      -1.00585361       1.05848603
H       -1.17898941       1.58397628       0.80518599
H        0.25547564       1.85298590      -0.76755948
H       -1.28125061       0.75636959      -1.30826404
H       -0.83702475      -1.69111533       1.17599033
13
Frame=5 idx=003278 GeodesicLength=0.2670306444374183 rxn_smarts="[C:1]([C@@:2]1([C:5](=[O:6])[H:13])[C:3]([H:10])([H:11])[N:4]1[H:12])([H:7])([H:8])[H:9]>>[C:1]([C@@:2]1([C:5](=[O:6])[H:13])[C-:3]([H:10])[N+:4]1([H:11])[H:12])([H:7])([H:8])[H:9]"
C        1.41634775      -0.62864116       0.05983653
C        0.04227944      -0.01343202       0.05111137
C       -0.15672133       1.40963016       0.46753338
N       -0.29685773       0.83065422      -1.08020813
C       -1.08584146      -0.92436243       0.42207997
O       -2.19714645      -0.84196976      -0.03281042
H        1.49048525      -1.45271348      -0.65360454
H        2.15905643       0.12582278      -0.19458064
H        1.65090504      -1.00655333       1.05706234
H       -1.18114043       1.58617669       0.80563738
H        0.27983245       1.85768001      -0.76980568
H       -1.28421650       0.75278898      -1.30900739
H       -0.83698248      -1.69508066       1.17675584
13
Frame=6 idx=003278 GeodesicLength=0.3203309207245283 rxn_smarts="[C:1]([C@@:2]1([C:5](=[O:6])[H:13])[C:3]([H:10])([H:11])[N:4]1[H:12])([H:7])([H:8])[H:9]>>[C:1]([C@@:2]1([C:5](=[O:6])[H:13])[C-:3]([H:10])[N+:4]1([H:11])[H:12])([H:7])([H:8])[H:9]"
C        1.41526722      -0.62759152       0.05931227
C        0.03967692      -0.01627094       0.05242186
C       -0.16268611       1.40953353       0.45863212
N       -0.30237506       0.83507725      -1.07309969
C       -1.08686702      -0.92760426       0.42374252
O       -2.19901164      -0.84531849      -0.02958720
H        1.49168656      -1.45004989      -0.65578824
H        2.15662135       0.12885811      -0.19332569
H        1.65107474      -1.00721064       1.05561880
H       -1.18309249       1.58841235       0.80619493
H        0.30362384       1.86206599      -0.77167181
H       -1.28695772       0.74903664      -1.30996670
H       -0.83696060      -1.69893813       1.17751684
13
Frame=7 idx=003278 GeodesicLength=0.3736194119811946 rxn_smarts="[C:1]([C@@:2]1([C:5](=[O:6])[H:13])[C:3]([H:10])([H:11])[N:4]1[H:12])([H:7])([H:8])[H:9]>>[C:1]([C@@:2]1([C:5](=[O:6])[H:13])[C-:3]([H:10])[N+:4]1([H:11])[H:12])([H:7])([H:8])[H:9]"
C        1.41417572      -0.62652024       0.05877049
C        0.03709131      -0.01903804       0.05367333
C       -0.16856166       1.40943404       0.44979623
N       -0.30782544       0.83943765      -1.06614395
C       -1.08787663      -0.93077900       0.42535608
O       -2.20086960      -0.84852699      -0.02636863
H        1.49286169      -1.44738430      -0.65795200
H        2.15419666       0.13187659      -0.19210121
H        1.65122700      -1.00783174       1.05416053
H       -1.18484233       1.59066919       0.80683642
H        0.32685843       1.86621130      -0.77318800
H       -1.28948186       0.74514003      -1.31111569
H       -0.83695328      -1.70268851       1.17827640
13
Frame=8 idx=003278 GeodesicLength=0.4268836300075621 rxn_smarts="[C:1]([C@@:2]1([C:5](=[O:6])[H:13])[C:3]([H:10])([H:11])[N:4]1[H:12])([H:7])([H:8])[H:9]>>[C:1]([C@@:2]1([C:5](=[O:6])[H:13])[C-:3]([H:10])[N+:4]1([H:11])[H:12])([H:7])([H:8])[H:9]"
C        1.41307679      -0.62543042       0.05821044
C        0.03452096      -0.02174110       0.05486813
C       -0.17435406       1.40933002       0.44102232
N       -0.31321013       0.84371729      -1.05934548
C       -1.08887320      -0.93389620       0.42692565
O       -2.20272739      -0.85161170      -0.02314772
H        1.49401848      -1.44471783      -0.66010243
H        2.15178539       0.13488061      -0.19090631
H        1.65136479      -1.00842057       1.05268565
H       -1.18640334       1.59296125       0.80753526
H        0.34956917       1.87014802      -0.77435303
H       -1.29180489       0.74112066      -1.31243325
H       -0.83696257      -1.70634001       1.17904076
13
Frame=9 idx=003278 GeodesicLength=0.4801354769648747 rxn_smarts="[C:1]([C@@:2]1([C:5](=[O:6])[H:13])[C:3]([H:10])([H:11])[N:4]1[H:12])([H:7])([H:8])[H:9]>>[C:1]([C@@:2]1([C:5](=[O:6])[H:13])[C-:3]([H:10])[N+:4]1([H:11])[H:12])([H:7])([H:8])[H:9]"
C        1.41196981      -0.62432485       0.05763185
C        0.03196449      -0.02438568       0.05600962
C       -0.18007067       1.40921452       0.43230919
N       -0.31853961       0.84790192      -1.05270705
C       -1.08985546      -0.93696191       0.42845529
O       -2.20458154      -0.85458510      -0.01992428
H        1.49515792      -1.44204837      -0.66224508
H        2.14938417       0.13786941      -0.18973932
H        1.65148999      -1.00898721       1.05119173
H       -1.18778688       1.59528959       0.80826706
H        0.37179182       1.87391396      -0.77516891
H       -1.29393858       0.73699426      -1.31390322
H       -0.83698545      -1.70989054       1.17982314
13
Frame=10 idx=003278 GeodesicLength=0.5333738389707976 rxn_smarts="[C:1]([C@@:2]1([C:5](=[O:6])[H:13])[C:3]([H:10])([H:11])[N:4]1[H:12])([H:7])([H:8])[H:9]>>[C:1]([C@@:2]1([C:5](=[O:6])[H:13])[C-:3]([H:10])[N+:4]1([H:11])[H:12])([H:7])([H:8])[H:9]"
C        1.41085277      -0.62320409       0.05703402
C        0.02942016      -0.02697709       0.05709910
C       -0.18571443       1.40908221       0.42365418
N       -0.32382173       0.85197884      -1.04622930
C       -1.09082365      -0.93998046       0.42994907
O       -2.20642998      -0.85746081      -0.01669827
H        1.49627614      -1.43937979      -0.66437603
H        2.14698800       0.14084313      -0.18860532
H        1.65160270      -1.00952463       1.04967860
H       -1.18899993       1.59765935       0.80901015
H        0.39356401       1.87753600      -0.77563384
H       -1.29589664       0.73277507      -1.31550424
H       -0.83701741      -1.71334774       1.18062187
13
Frame=11 idx=003278 GeodesicLength=0.5866027874409119 rxn_smarts="[C:1]([C@@:2]1([C:5](=[O:6])[H:13])[C:3]([H:10])([H:11])[N:4]1[H:12])([H:7])([H:8])[H:9]>>[C:1]([C@@:2]1([C:5](=[O:6])[H:13])[C-:3]([H:10])[N+:4]1([H:11])[H:12])([H:7])([H:8])[H:9]"
C        1.40972649      -0.62207182       0.05641738
C        0.02688759      -0.02952111       0.05813555
C       -0.19128892       1.40892876       0.41505363
N       -0.32906488       0.85593527      -1.03991514
C       -1.09177746      -0.94295226       0.43141706
O       -2.20827257      -0.86024294      -0.01345853
H        1.49737605      -1.43672258      -0.66648852
H        2.14459602       0.14380068      -0.18750112
H        1.65170168      -1.01003103       1.04815006
H       -1.19004718       1.60007749       0.80974292
H        0.41490960       1.88105187      -0.77575493
H       -1.29769584       0.72847982      -1.31722052
H       -0.83705057      -1.71673215       1.18142217
13
Frame=12 idx=003278 GeodesicLength=0.6398208093979105 rxn_smarts="[C:1]([C@@:2]1([C:5](=[O:6])[H:13])[C:3]([H:10])([H:11])[N:4]1[H:12])([H:7])([H:8])[H:9]>>[C:1]([C@@:2]1([C:5](=[O:6])[H:13])[C-:3]([H:10])[N+:4]1([H:11])[H:12])([H:7])([H:8])[H:9]"
C        1.40859193      -0.62092803       0.05578426
C        0.02436399      -0.03202206       0.05912218
C       -0.19679919       1.40875300       0.40649950
N       -0.33427610       0.85976236      -1.03376863
C       -1.09272129      -0.94587979       0.43286878
O       -2.21011669      -0.86293378      -0.01019115
H        1.49846295      -1.43407530      -0.66858051
H        2.14220766       0.14674364      -0.18643030
H        1.65179129      -1.01050443       1.04660968
H       -1.19093941       1.60255107       0.81044561
H        0.43586932       1.88448123      -0.77553250
H       -1.29935345       0.72411994      -1.31903878
H       -0.83708100      -1.72006786       1.18221187
13
Frame=13 idx=003278 GeodesicLength=0.6930363495173852 rxn_smarts="[C:1]([C@@:2]1([C:5](=[O:6])[H:13])[C:3]([H:10])([H:11])[N:4]1[H:12])([H:7])([H:8])[H:9]>>[C:1]([C@@:2]1([C:5](=[O:6])[H:13])[C-:3]([H:10])[N+:4]1([H:11])[H:12])([H:7])([H:8])[H:9]"
C        1.40744792      -0.61977364       0.05513366
C        0.02184748      -0.03448319       0.06006139
C       -0.20225171       1.40855427       0.39798521
N       -0.33946323       0.86345058      -1.02779094
C       -1.09365553      -0.94876599       0.43430915
O       -2.21196334      -0.86554119      -0.00688958
H        1.49953732      -1.43143525      -0.67065825
H        2.13981995       0.14967456      -0.18538801
H        1.65187212      -1.01095158       1.04505318
H       -1.19168485       1.60508376       0.81110224
H        0.45648059       1.88784842      -0.77496228
H       -1.30088119       0.71969656      -1.32094993
H       -0.83710553      -1.72335730       1.18299416
13
Frame=14 idx=003278 GeodesicLength=0.7462414136691259 rxn_smarts="[C:1]([C@@:2]1([C:5](=[O:6])[H:13])[C:3]([H:10])([H:11])[N:4]1[H:12])([H:7])([H:8])[H:9]>>[C:1]([C@@:2]1([C:5](=[O:6])[H:13])[C-:3]([H:10])[N+:4]1([H:11])[H:12])([H:7])([H:8])[H:9]"
C        1.40629391      -0.61861093       0.05446421
C        0.01933762      -0.03690983       0.06095167
C       -0.20764862       1.40832643       0.38950787
N       -0.34463102       0.86699405      -1.02198304
C       -1.09457976      -0.95161576       0.43573530
O       -2.21381034      -0.86807560      -0.00355992
H        1.50059727      -1.42881372      -0.67271278
H        2.13742942       0.15258842      -0.18439029
H        1.65194824      -1.01135944       1.04348389
H       -1.19228809       1.60767243       0.81170238
H        0.47676900       1.89117888      -0.77403266
H       -1.30229345       0.71522148      -1.32294162
H       -0.83712418      -1.72659640       1.18377499
13
Frame=15 idx=003278 GeodesicLength=0.7994422196379419 rxn_smarts="[C:1]([C@@:2]1([C:5](=[O:6])[H:13])[C:3]([H:10])([H:11])[N:4]1[H:12])([H:7])([H:8])[H:9]>>[C:1]([C@@:2]1([C:5](=[O:6])[H:13])[C-:3]([H:10])[N+:4]1([H:11])[H:12])([H:7])([H:8])[H:9]"
C        1.40513122      -0.61744149       0.05377452
C        0.01683266      -0.03930453       0.06179467
C       -0.21299783       1.40807079       0.38105941
N       -0.34978706       0.87038847      -1.01634850
C       -1.09549500      -0.95443097       0.43715698
O       -2.21566082      -0.87054171      -0.00019004
H        1.50164629      -1.42620756      -0.67475261
H        2.13503780       0.15548733      -0.18343088
H        1.65201993      -1.01173955       1.04189844
H       -1.19276198       1.61032430       0.81222842
H        0.49677090       1.89449436      -0.77273675
H       -1.30360332       0.71069524      -1.32501072
H       -0.83713278      -1.72979469       1.18455705
13
Frame=16 idx=003278 GeodesicLength=0.8526445703722172 rxn_smarts="[C:1]([C@@:2]1([C:5](=[O:6])[H:13])[C:3]([H:10])([H:11])[N:4]1[H:12])([H:7])([H:8])[H:9]>>[C:1]([C@@:2]1([C:5](=[O:6])[H:13])[C-:3]([H:10])[N+:4]1([H:11])[H:12])([H:7])([H:8])[H:9]"
C        1.40395541      -0.61626161       0.05306366
C        0.01433060      -0.04166889       0.06259285
C       -0.21830152       1.40778625       0.37262968
N       -0.35493521       0.87362487      -1.01088591
C       -1.09640133      -0.95721165       0.43858110
O       -2.21751509      -0.87294378       0.00323426
H        1.50267733      -1.42360876      -0.67678050
H        2.13264036       0.15837620      -0.18250623
H        1.65208152      -1.01209147       1.04029121
H       -1.19310859       1.61304271       0.81266018
H        0.51652313       1.89780822      -0.77106337
H       -1.30481983       0.70611035      -1.32714706
H       -0.83712677      -1.73296245       1.18533013
