10
Frame=0 idx=008633 GeodesicLength=0.0 rxn_smarts="[N:1](=[C:2]1/[C:3]([H:9])=[C:4]([H:10])[C:5](=[O:6])[O:7]1)\[H:8]>>[N:1](=[c:2]1/[c:3]([H:9])[c:4]([H:10])[o+:6][c-:5][o:7]1)\[H:8]"
N        2.13389590      -0.26647144      -0.16727769
C        0.92821087       0.05655963      -0.01206964
C       -0.18741562      -0.90340745      -0.03012321
C       -1.39138175      -0.29403295       0.06440402
C       -0.93429712       1.24204126       0.40820273
O       -1.39397527       0.97696867      -0.78435614
O        0.47131418       1.30238503       0.33363172
H        2.74494063       0.54602373      -0.13701236
H       -0.00154676      -1.96351419       0.06391369
H       -2.36974505      -0.69655229       0.26068688
10
Frame=1 idx=008633 GeodesicLength=0.08669245097305243 rxn_smarts="[N:1](=[C:2]1/[C:3]([H:9])=[C:4]([H:10])[C:5](=[O:6])[O:7]1)\[H:8]>>[N:1](=[c:2]1/[c:3]([H:9])[c:4]([H:10])[o+:6][c-:5][o:7]1)\[H:8]"
N        2.13876696      -0.27382538      -0.15723110
C        0.93097016       0.05590387      -0.03743875
C       -0.18555324      -0.90152972      -0.03796437
C       -1.38595810      -0.29344463       0.07880450
C       -0.91965450       1.26196516       0.38503240
O       -1.45706973       0.99146591      -0.76610150
O        0.47915033       1.30708107       0.30036517
H        2.75542164       0.53195701      -0.08739404
H       -0.00016328      -1.96259795       0.04592736
H       -2.35591024      -0.71697535       0.27600034
10
Frame=2 idx=008633 GeodesicLength=0.17283986893785735 rxn_smarts="[N:1](=[C:2]1/[C:3]([H:9])=[C:4]([H:10])[C:5](=[O:6])[O:7]1)\[H:8]>>[N:1](=[c:2]1/[c:3]([H:9])[c:4]([H:10])[o+:6][c-:5][o:7]1)\[H:8]"
N        2.14333723      -0.28052364      -0.14932334
C        0.93448877       0.05406476      -0.05830336
C       -0.18341957      -0.90000401      -0.04469208
C       -1.37984071      -0.29247775       0.09171296
C       -0.90490292       1.28188185       0.35910292
O       -1.51943212       1.00630742      -0.74410130
O        0.48720598       1.31111888       0.26841072
H        2.76309837       0.51851549      -0.04045689
H        0.00085577      -1.96199147       0.02982847
H       -2.34139079      -0.73689153       0.28782189
10
Frame=3 idx=008633 GeodesicLength=0.2584556264106243 rxn_smarts="[N:1](=[C:2]1/[C:3]([H:9])=[C:4]([H:10])[C:5](=[O:6])[O:7]1)\[H:8]>>[N:1](=[c:2]1/[c:3]([H:9])[c:4]([H:10])[o+:6][c-:5][o:7]1)\[H:8]"
N        2.14792032      -0.28660794      -0.14326932
C        0.93864869       0.05118106      -0.07467867
C       -0.18108042      -0.89885803      -0.05063492
C       -1.37328362      -0.29124286       0.10270388
C       -0.89024265       1.30159078       0.33021980
O       -1.58115293       1.02180266      -0.71801043
O        0.49537703       1.31437752       0.23840823
H        2.76862296       0.50569669       0.00307070
H        0.00167024      -1.96163654       0.01638809
H       -2.32647960      -0.75630335       0.29580263
10
Frame=4 idx=008633 GeodesicLength=0.3435504170179765 rxn_smarts="[N:1](=[C:2]1/[C:3]([H:9])=[C:4]([H:10])[C:5](=[O:6])[O:7]1)\[H:8]>>[N:1](=[c:2]1/[c:3]([H:9])[c:4]([H:10])[o+:6][c-:5][o:7]1)\[H:8]"
N        2.15276868      -0.29248828      -0.13666026
C        0.94338254       0.04725210      -0.08598989
C       -0.17863096      -0.89817929      -0.05591018
C       -1.36659250      -0.28986463       0.11113024
C       -0.87584726       1.32084978       0.29818422
O       -1.64202101       1.03833992      -0.68751074
O        0.50359084       1.31658577       0.21175882
H        2.77270241       0.49427328       0.03987068
H        0.00226451      -1.96161402       0.00606899
H       -2.31161725      -0.77515463       0.29905812
10
Frame=5 idx=008633 GeodesicLength=0.4283191600150701 rxn_smarts="[N:1](=[C:2]1/[C:3]([H:9])=[C:4]([H:10])[C:5](=[O:6])[O:7]1)\[H:8]>>[N:1](=[c:2]1/[c:3]([H:9])[c:4]([H:10])[o+:6][c-:5][o:7]1)\[H:8]"
N        2.15793908      -0.29829545      -0.12944819
C        0.94859158       0.04278516      -0.09567747
C       -0.17601613      -0.89769677      -0.06209081
C       -1.35959794      -0.28835518       0.11785514
C       -0.86147290       1.33987247       0.26118769
O       -1.70399651       1.05555100      -0.65093365
O        0.51190485       1.31827347       0.18502264
H        2.77583420       0.48302086       0.07617961
H        0.00289949      -1.96168560      -0.00328425
H       -2.29608574      -0.79346996       0.30118929
10
Frame=6 idx=008633 GeodesicLength=0.5125769228912889 rxn_smarts="[N:1](=[C:2]1/[C:3]([H:9])=[C:4]([H:10])[C:5](=[O:6])[O:7]1)\[H:8]>>[N:1](=[c:2]1/[c:3]([H:9])[c:4]([H:10])[o+:6][c-:5][o:7]1)\[H:8]"
N        2.16345282      -0.30498510      -0.11611378
C        0.95434592       0.03709882      -0.09868655
C       -0.17345294      -0.89785916      -0.06727884
C       -1.35291124      -0.28682767       0.12140084
C       -0.84744953       1.35822698       0.21850793
O       -1.76486713       1.07391255      -0.60890145
O        0.52015928       1.31846712       0.16403748
H        2.77910413       0.47531407       0.10000656
H        0.00284657      -1.96247441      -0.01138711
H       -2.28122788      -0.81087321       0.29841491
10
Frame=7 idx=008633 GeodesicLength=0.5962429929756179 rxn_smarts="[N:1](=[C:2]1/[C:3]([H:9])=[C:4]([H:10])[C:5](=[O:6])[O:7]1)\[H:8]>>[N:1](=[c:2]1/[c:3]([H:9])[c:4]([H:10])[o+:6][c-:5][o:7]1)\[H:8]"
N        2.16917275      -0.31218416      -0.09855085
C        0.96048608       0.03051446      -0.09558810
C       -0.17088319      -0.89859183      -0.07188398
C       -1.34652636      -0.28528294       0.12189608
C       -0.83358117       1.37587060       0.16673825
O       -1.82531535       1.09318667      -0.56013733
O        0.52809379       1.31723499       0.14940781
H        2.78308009       0.47034653       0.11461644
H        0.00230567      -1.96389452      -0.01907967
H       -2.26683231      -0.82719979       0.29258136
10
Frame=8 idx=008633 GeodesicLength=0.678843999126637 rxn_smarts="[N:1](=[C:2]1/[C:3]([H:9])=[C:4]([H:10])[C:5](=[O:6])[O:7]1)\[H:8]>>[N:1](=[c:2]1/[c:3]([H:9])[c:4]([H:10])[o+:6][c-:5][o:7]1)\[H:8]"
N        2.17506690      -0.31952180      -0.07699838
C        0.96688259       0.02325955      -0.08671704
C       -0.16822907      -0.89987188      -0.07712022
C       -1.34022119      -0.28371064       0.11948160
C       -0.81928063       1.39230742       0.09987938
O       -1.88595316       1.11351870      -0.50128231
O        0.53503729       1.31468112       0.14102905
H        2.78766720       0.46739704       0.12359767
H        0.00142086      -1.96594323      -0.02859660
H       -2.25239078      -0.84211627       0.28672685
10
Frame=9 idx=008633 GeodesicLength=0.7584056749388806 rxn_smarts="[N:1](=[C:2]1/[C:3]([H:9])=[C:4]([H:10])[C:5](=[O:6])[O:7]1)\[H:8]>>[N:1](=[c:2]1/[c:3]([H:9])[c:4]([H:10])[o+:6][c-:5][o:7]1)\[H:8]"
N        2.18105336      -0.32693793      -0.04559626
C        0.97326865       0.01471469      -0.06854137
C       -0.16545452      -0.90246080      -0.08376910
C       -1.33434826      -0.28275962       0.11101447
C       -0.80347183       1.40505904       0.01149277
O       -1.94483367       1.13812545      -0.42336214
O        0.53936303       1.31061184       0.13786523
H        2.79267316       0.46849527       0.12201017
H        0.00034575      -1.96930215      -0.03979792
H       -2.23859568      -0.85554579       0.27868415
10
Frame=10 idx=008633 GeodesicLength=0.8286317738033075 rxn_smarts="[N:1](=[C:2]1/[C:3]([H:9])=[C:4]([H:10])[C:5](=[O:6])[O:7]1)\[H:8]>>[N:1](=[c:2]1/[c:3]([H:9])[c:4]([H:10])[o+:6][c-:5][o:7]1)\[H:8]"
N        2.18650467      -0.33220373      -0.00286164
C        0.97828682       0.00490643      -0.03358731
C       -0.16184570      -0.90801467      -0.08267387
C       -1.33032512      -0.28435978       0.09207187
C       -0.78667326       1.40983243      -0.09792446
O       -1.99127731       1.17242257      -0.30981971
O        0.53834636       1.30651417       0.13112945
H        2.79675088       0.47527227       0.10017278
H        0.00034876      -1.97553000      -0.04511269
H       -2.23011611      -0.86883968       0.24860558
10
Frame=11 idx=008633 GeodesicLength=0.8861467129525494 rxn_smarts="[N:1](=[C:2]1/[C:3]([H:9])=[C:4]([H:10])[C:5](=[O:6])[O:7]1)\[H:8]>>[N:1](=[c:2]1/[c:3]([H:9])[c:4]([H:10])[o+:6][c-:5][o:7]1)\[H:8]"
N        2.19005755      -0.32986818       0.02745979
C        0.97898348      -0.00461350       0.01399798
C       -0.15773055      -0.91856014      -0.06633336
C       -1.33024896      -0.29212544       0.05111929
C       -0.77391673       1.40372197      -0.20942418
O       -2.00260773       1.21648541      -0.15598535
O        0.53001320       1.30231620       0.11474730
H        2.79415884       0.48790973       0.06670785
H        0.00442255      -1.98555643      -0.02097031
H       -2.23313166      -0.87970960       0.17868099
10
Frame=12 idx=008633 GeodesicLength=0.9500706944071711 rxn_smarts="[N:1](=[C:2]1/[C:3]([H:9])=[C:4]([H:10])[C:5](=[O:6])[O:7]1)\[H:8]>>[N:1](=[c:2]1/[c:3]([H:9])[c:4]([H:10])[o+:6][c-:5][o:7]1)\[H:8]"
N        2.18887246      -0.32310834       0.05287763
C        0.97528178      -0.00906657       0.05971222
C       -0.15476132      -0.92932533      -0.03546569
C       -1.33115268      -0.30390882       0.01001654
C       -0.77239131       1.39480489      -0.29345125
O       -1.97451471       1.25029757      -0.00486610
O        0.51778625       1.30059771       0.08539429
H        2.78549683       0.50068961       0.02641498
H        0.00889404      -1.99562718       0.01311604
H       -2.24351134      -0.88535354       0.08625134
10
Frame=13 idx=008633 GeodesicLength=1.0233988368690339 rxn_smarts="[N:1](=[C:2]1/[C:3]([H:9])=[C:4]([H:10])[C:5](=[O:6])[O:7]1)\[H:8]>>[N:1](=[c:2]1/[c:3]([H:9])[c:4]([H:10])[o+:6][c-:5][o:7]1)\[H:8]"
N        2.18579993      -0.31514724       0.06292667
C        0.97051005      -0.01024626       0.08554095
C       -0.15490048      -0.93830273       0.01814808
C       -1.33195255      -0.31621352      -0.01147497
C       -0.77996774       1.38600707      -0.35155293
O       -1.92954916       1.27212510       0.11612137
O        0.50599338       1.29878751       0.04598763
H        2.77534673       0.51219225       0.00593760
H        0.01359347      -2.00449161       0.03266310
H       -2.25487362      -0.88471057      -0.00429750
10
Frame=14 idx=008633 GeodesicLength=1.0996876500917436 rxn_smarts="[N:1](=[C:2]1/[C:3]([H:9])=[C:4]([H:10])[C:5](=[O:6])[O:7]1)\[H:8]>>[N:1](=[c:2]1/[c:3]([H:9])[c:4]([H:10])[o+:6][c-:5][o:7]1)\[H:8]"
N        2.18173442      -0.30822580       0.06210205
C        0.96529219      -0.01098531       0.09686871
C       -0.15663132      -0.94555194       0.06796987
C       -1.33230743      -0.32857658      -0.01955404
C       -0.79287771       1.37815019      -0.39539880
O       -1.87985811       1.28793833       0.21125156
O        0.49405667       1.29518814       0.00302962
H        2.76573707       0.52322251       0.00752987
H        0.01745851      -2.01055947       0.04297946
H       -2.26260428      -0.88060006      -0.07677830
10
Frame=15 idx=008633 GeodesicLength=1.1770012918888428 rxn_smarts="[N:1](=[C:2]1/[C:3]([H:9])=[C:4]([H:10])[C:5](=[O:6])[O:7]1)\[H:8]>>[N:1](=[c:2]1/[c:3]([H:9])[c:4]([H:10])[o+:6][c-:5][o:7]1)\[H:8]"
N        2.17732411      -0.30140551       0.05694919
C        0.95969750      -0.01219045       0.10087517
C       -0.15831366      -0.95257606       0.10197640
C       -1.33282819      -0.34083873      -0.01927805
C       -0.80869479       1.37043999      -0.43246591
O       -1.82737049       1.30231450       0.28856652
O        0.48161921       1.28953680      -0.04128862
H        2.75605189       0.53496247       0.02552959
H        0.02079882      -2.01571328       0.04803826
H       -2.26828439      -0.87452974      -0.12890256
10
Frame=16 idx=008633 GeodesicLength=1.2547777397295388 rxn_smarts="[N:1](=[C:2]1/[C:3]([H:9])=[C:4]([H:10])[C:5](=[O:6])[O:7]1)\[H:8]>>[N:1](=[c:2]1/[c:3]([H:9])[c:4]([H:10])[o+:6][c-:5][o:7]1)\[H:8]"
N        2.17289912      -0.29420969       0.05403487
C        0.95388675      -0.01369303       0.10277097
C       -0.15981460      -0.95964858       0.12725475
C       -1.33362484      -0.35298514      -0.01674303
C       -0.82577304       1.36351269      -0.46336334
O       -1.77315737       1.31600467       0.35334078
O        0.46882513       1.28242355      -0.08297923
H        2.74563752       0.54688523       0.04544576
H        0.02396442      -2.02064229       0.05035434
H       -2.27284310      -0.86764741      -0.17011588
