16
Frame=0 idx=002893 GeodesicLength=0.0 rxn_smarts="[C:1]([C@@:2]1([H:10])[C:3]([H:11])([H:12])[C@@:4]2([H:13])[C:5]([H:14])([H:15])[C@@:6]12[H:16])([H:7])([H:8])[H:9]>>[C:1]([C:2]([C@@:6]1([H:16])[C@:4]([C:3][H:11])([H:13])[C:5]1([H:14])[H:15])([H:10])[H:12])([H:7])([H:8])[H:9]"
C       -1.11881388      -0.86712243       1.42409397
C       -0.46899213       0.29370432       0.70369671
C        1.60014024       0.92133626       0.25294886
C        0.98372761       0.71659273      -1.11075642
C        0.62461137      -0.69847549      -1.40437863
C       -0.40035099       0.23000008      -0.80574722
H       -1.08999275      -0.74604214       2.50766419
H       -2.16745448      -0.93490717       1.11843063
H       -0.63740435      -1.81162993       1.16608218
H       -0.85030765       1.25383135       1.04586422
H        1.38709738       1.96110633       0.55681745
H        0.70061299       0.24620498       1.05160078
H        1.20390047       1.42595641      -1.89907743
H        1.07585339      -1.46864474      -0.78829026
H        0.44757236      -0.97788652      -2.43489824
H       -1.29019957       0.45597595      -1.38405074
16
Frame=1 idx=002893 GeodesicLength=0.056826823188846104 rxn_smarts="[C:1]([C@@:2]1([H:10])[C:3]([H:11])([H:12])[C@@:4]2([H:13])[C:5]([H:14])([H:15])[C@@:6]12[H:16])([H:7])([H:8])[H:9]>>[C:1]([C:2]([C@@:6]1([H:16])[C@:4]([C:3][H:11])([H:13])[C:5]1([H:14])[H:15])([H:10])[H:12])([H:7])([H:8])[H:9]"
C       -1.12332465      -0.86801086       1.42159425
C       -0.46357871       0.29194495       0.70705115
C        1.59285364       0.92839118       0.24963095
C        0.98183787       0.72082250      -1.11223716
C        0.62427947      -0.69846118      -1.40094197
C       -0.40122199       0.22640415      -0.80331151
H       -1.09494397      -0.75050170       2.50566242
H       -2.17234805      -0.93032045       1.11645234
H       -0.64606479      -1.81426424       1.16186802
H       -0.85396000       1.24991961       1.04640873
H        1.40324595       1.97412370       0.54612275
H        0.71604471       0.23197672       1.06695322
H        1.19519252       1.42608612      -1.90613593
H        1.07972873      -1.46588341      -0.78469623
H        0.45187466      -0.97788779      -2.43222301
H       -1.28961539       0.45566072      -1.38219802
16
Frame=2 idx=002893 GeodesicLength=0.11362684099514114 rxn_smarts="[C:1]([C@@:2]1([H:10])[C:3]([H:11])([H:12])[C@@:4]2([H:13])[C:5]([H:14])([H:15])[C@@:6]12[H:16])([H:7])([H:8])[H:9]>>[C:1]([C:2]([C@@:6]1([H:16])[C@:4]([C:3][H:11])([H:13])[C:5]1([H:14])[H:15])([H:10])[H:12])([H:7])([H:8])[H:9]"
C       -1.12770248      -0.86887363       1.41911740
C       -0.45846723       0.29028772       0.71031981
C        1.58510066       0.93526779       0.24672740
C        0.97986753       0.72506539      -1.11355664
C        0.62384851      -0.69837713      -1.39749049
C       -0.40223453       0.22289695      -0.80096782
H       -1.09980913      -0.75478496       2.50365579
H       -2.17704595      -0.92614086       1.11446588
H       -0.65424373      -1.81670643       1.15780334
H       -0.85808489       1.24600006       1.04672630
H        1.42028202       1.98678576       0.53510030
H        0.73138213       0.21781793       1.08214175
H        1.18662607       1.42618653      -1.91289259
H        1.08338283      -1.46308848      -0.78108219
H        0.45621973      -0.97772546      -2.42955975
H       -1.28912152       0.45538880      -1.38050847
16
Frame=3 idx=002893 GeodesicLength=0.17043076824797682 rxn_smarts="[C:1]([C@@:2]1([H:10])[C:3]([H:11])([H:12])[C@@:4]2([H:13])[C:5]([H:14])([H:15])[C@@:6]12[H:16])([H:7])([H:8])[H:9]>>[C:1]([C:2]([C@@:6]1([H:16])[C@:4]([C:3][H:11])([H:13])[C:5]1([H:14])[H:15])([H:10])[H:12])([H:7])([H:8])[H:9]"
C       -1.13197040      -0.86972731       1.41667765
C       -0.45368648       0.28875831       0.71350443
C        1.57690749       0.94202818       0.24421478
C        0.97782687       0.72934825      -1.11472841
C        0.62333280      -0.69822888      -1.39403476
C       -0.40339948       0.21947927      -0.79871829
H       -1.10459813      -0.75889718       2.50166029
H       -2.18160380      -0.92240201       1.11250713
H       -0.66194436      -1.81899410       1.15388820
H       -0.86271528       1.24210586       1.04683252
H        1.43827477       1.99901964       0.52377438
H        0.74663626       0.20376619       1.09715219
H        1.17821657       1.42628630      -1.91937350
H        1.08684067      -1.46026044      -0.77745520
H        0.46062407      -0.97742768      -2.42692023
H       -1.28874158       0.45514560      -1.37898118
16
Frame=4 idx=002893 GeodesicLength=0.22720887323935246 rxn_smarts="[C:1]([C@@:2]1([H:10])[C:3]([H:11])([H:12])[C@@:4]2([H:13])[C:5]([H:14])([H:15])[C@@:6]12[H:16])([H:7])([H:8])[H:9]>>[C:1]([C:2]([C@@:6]1([H:16])[C@:4]([C:3][H:11])([H:13])[C:5]1([H:14])[H:15])([H:10])[H:12])([H:7])([H:8])[H:9]"
C       -1.13611027      -0.87056852       1.41426015
C       -0.44927314       0.28732474       0.71658665
C        1.56825502       0.94864239       0.24208034
C        0.97566940       0.73366630      -1.11573509
C        0.62271741      -0.69799365      -1.39055204
C       -0.40472707       0.21614607      -0.79656522
H       -1.10932798      -0.76282830       2.49966406
H       -2.18593775      -0.91913411       1.11050315
H       -0.66912546      -1.82106750       1.15016278
H       -0.86786144       1.23818407       1.04669442
H        1.45737337       2.01079684       0.51211016
H        0.76174106       0.18984017       1.11203879
H        1.16991303       1.42638860      -1.92555900
H        1.09008522      -1.45738059      -0.77378594
H        0.46507037      -0.97694841      -2.42426637
H       -1.28846175       0.45493189      -1.37763683
16
Frame=5 idx=002893 GeodesicLength=0.28388902947122696 rxn_smarts="[C:1]([C@@:2]1([H:10])[C:3]([H:11])([H:12])[C@@:4]2([H:13])[C:5]([H:14])([H:15])[C@@:6]12[H:16])([H:7])([H:8])[H:9]>>[C:1]([C:2]([C@@:6]1([H:16])[C@:4]([C:3][H:11])([H:13])[C:5]1([H:14])[H:15])([H:10])[H:12])([H:7])([H:8])[H:9]"
C       -1.14010747      -0.87138362       1.41185133
C       -0.44521199       0.28604845       0.71955687
C        1.55910258       0.95518780       0.24032922
C        0.97338791       0.73803189      -1.11657729
C        0.62200822      -0.69765201      -1.38701370
C       -0.40620882       0.21290357      -0.79451892
H       -1.11389216      -0.76659296       2.49764273
H       -2.19010892      -0.91627351       1.10850946
H       -0.67581737      -1.82296329       1.14654982
H       -0.87352239       1.23426962       1.04629554
H        1.47747801       2.02185906       0.50019101
H        0.77676777       0.17607125       1.12674052
H        1.16168418       1.42646529      -1.93147299
H        1.09313363      -1.45437047      -0.77001303
H        0.46958569      -0.97630866      -2.42157074
H       -1.28827888       0.45470759      -1.37649983
16
Frame=6 idx=002893 GeodesicLength=0.340627483991307 rxn_smarts="[C:1]([C@@:2]1([H:10])[C:3]([H:11])([H:12])[C@@:4]2([H:13])[C:5]([H:14])([H:15])[C@@:6]12[H:16])([H:7])([H:8])[H:9]>>[C:1]([C:2]([C@@:6]1([H:16])[C@:4]([C:3][H:11])([H:13])[C:5]1([H:14])[H:15])([H:10])[H:12])([H:7])([H:8])[H:9]"
C       -1.14403776      -0.87222807       1.40950246
C       -0.44156694       0.28494934       0.72243748
C        1.54953205       0.96176717       0.23889601
C        0.97101704       0.74250760      -1.11730072
C        0.62124396      -0.69723996      -1.38347221
C       -0.40787748       0.20974977      -0.79257398
H       -1.11841402      -0.77020576       2.49566375
H       -2.19422011      -0.91394154       1.10657687
H       -0.68202204      -1.82476489       1.14310760
H       -0.87977925       1.23043021       1.04569449
H        1.49884140       2.03223803       0.48801078
H        0.79170617       0.16252144       1.14126799
H        1.15358156       1.42662029      -1.93717255
H        1.09605288      -1.45130006      -0.76620730
H        0.47420511      -0.97557158      -2.41889147
H       -1.28826255       0.45446799      -1.37553919
16
Frame=7 idx=002893 GeodesicLength=0.39726980684195157 rxn_smarts="[C:1]([C@@:2]1([H:10])[C:3]([H:11])([H:12])[C@@:4]2([H:13])[C:5]([H:14])([H:15])[C@@:6]12[H:16])([H:7])([H:8])[H:9]>>[C:1]([C:2]([C@@:6]1([H:16])[C@:4]([C:3][H:11])([H:13])[C:5]1([H:14])[H:15])([H:10])[H:12])([H:7])([H:8])[H:9]"
C       -1.14781941      -0.87305147       1.40715221
C       -0.43833268       0.28395668       0.72520190
C        1.53948265       0.96825259       0.23782763
C        0.96848334       0.74703303      -1.11783234
C        0.62037936      -0.69670114      -1.37986378
C       -0.40971319       0.20667912      -0.79073056
H       -1.12282064      -0.77364001       2.49366252
H       -2.19807703      -0.91206550       1.10456894
H       -0.68770041      -1.82632244       1.13982536
H       -0.88657409       1.22652711       1.04483202
H        1.52135745       2.04188709       0.47544510
H        0.80650602       0.14915454       1.15570949
H        1.14552271       1.42677616      -1.94256799
H        1.09876960      -1.44809723      -0.76228689
H        0.47886911      -0.97462264      -2.41614454
H       -1.28833278       0.45423412      -1.37479908
16
Frame=8 idx=002893 GeodesicLength=0.45387576308996436 rxn_smarts="[C:1]([C@@:2]1([H:10])[C:3]([H:11])([H:12])[C@@:4]2([H:13])[C:5]([H:14])([H:15])[C@@:6]12[H:16])([H:7])([H:8])[H:9]>>[C:1]([C:2]([C@@:6]1([H:16])[C@:4]([C:3][H:11])([H:13])[C:5]1([H:14])[H:15])([H:10])[H:12])([H:7])([H:8])[H:9]"
C       -1.15151194      -0.87389750       1.40484947
C       -0.43555751       0.28313975       0.72783514
C        1.52891811       0.97482660       0.23704231
C        0.96577729       0.75169298      -1.11824723
C        0.61944996      -0.69603715      -1.37620787
C       -0.41174436       0.20368334      -0.78900305
H       -1.12718305      -0.77690652       2.49167962
H       -2.20180586      -0.91075288       1.10258262
H       -0.69284852      -1.82773287       1.13675899
H       -0.89399854       1.22264384       1.04369406
H        1.54539490       2.05056374       0.46267662
H        0.82117163       0.13606993       1.16997562
H        1.13747505       1.42702751      -1.94776160
H        1.10135348      -1.44472981      -0.75825698
H        0.48365227      -0.97352298      -2.41334580
H       -1.28854293       0.45393201      -1.37427191
16
Frame=9 idx=002893 GeodesicLength=0.5105304437361519 rxn_smarts="[C:1]([C@@:2]1([H:10])[C:3]([H:11])([H:12])[C@@:4]2([H:13])[C:5]([H:14])([H:15])[C@@:6]12[H:16])([H:7])([H:8])[H:9]>>[C:1]([C:2]([C@@:6]1([H:16])[C@:4]([C:3][H:11])([H:13])[C:5]1([H:14])[H:15])([H:10])[H:12])([H:7])([H:8])[H:9]"
C       -1.15512925      -0.87477249       1.40258310
C       -0.43326647       0.28251999       0.73035872
C        1.51788284       0.98153947       0.23655216
C        0.96289996       0.75650584      -1.11852663
C        0.61847238      -0.69526489      -1.37251142
C       -0.41399932       0.20075931      -0.78738637
H       -1.13148876      -0.78000480       2.48971826
H       -2.20545713      -0.91000931       1.10059922
H       -0.69746711      -1.82902274       1.13386489
H       -0.90209882       1.21881196       1.04231792
H        1.57100739       2.05821053       0.44965859
H        0.83576058       0.12330905       1.18410583
H        1.12942742       1.42739302      -1.95273658
H        1.10385791      -1.44121213      -0.75412373
H        0.48855882      -0.97231073      -2.41051074
H       -1.28896045       0.45354794      -1.37396321
16
Frame=10 idx=002893 GeodesicLength=0.5670648187383568 rxn_smarts="[C:1]([C@@:2]1([H:10])[C:3]([H:11])([H:12])[C@@:4]2([H:13])[C:5]([H:14])([H:15])[C@@:6]12[H:16])([H:7])([H:8])[H:9]>>[C:1]([C:2]([C@@:6]1([H:16])[C@:4]([C:3][H:11])([H:13])[C:5]1([H:14])[H:15])([H:10])[H:12])([H:7])([H:8])[H:9]"
C       -1.15862576      -0.87564527       1.40034651
C       -0.43142550       0.28212701       0.73276767
C        1.50632684       0.98838127       0.23634643
C        0.95984426       0.76147239      -1.11865884
C        0.61744943      -0.69432079      -1.36872878
C       -0.41642821       0.19793530      -0.78587684
H       -1.13565239      -0.78294911       2.48776187
H       -2.20897349      -0.90974931       1.09863927
H       -0.70156508      -1.83015298       1.13111880
H       -0.91082728       1.21500632       1.04067019
H        1.59782984       2.06444013       0.43630026
H        0.85028568       0.11085571       1.19809282
H        1.12138254       1.42784029      -1.95749746
H        1.10625403      -1.43744729      -0.74981550
H        0.49361324      -0.97090949      -2.40758189
H       -1.28948813       0.45311582      -1.37388450
16
Frame=11 idx=002893 GeodesicLength=0.6235840832591352 rxn_smarts="[C:1]([C@@:2]1([H:10])[C:3]([H:11])([H:12])[C@@:4]2([H:13])[C:5]([H:14])([H:15])[C@@:6]12[H:16])([H:7])([H:8])[H:9]>>[C:1]([C:2]([C@@:6]1([H:16])[C@:4]([C:3][H:11])([H:13])[C:5]1([H:14])[H:15])([H:10])[H:12])([H:7])([H:8])[H:9]"
C       -1.16203258      -0.87654971       1.39814181
C       -0.43015032       0.28192398       0.73502494
C        1.49415698       0.99546938       0.23639404
C        0.95649746       0.76664615      -1.11866980
C        0.61637651      -0.69320207      -1.36486396
C       -0.41911207       0.19516120      -0.78449775
H       -1.13979677      -0.78570540       2.48581558
H       -2.21232873      -0.91014907       1.09663383
H       -0.70505920      -1.83109605       1.12861494
H       -0.92032595       1.21118684       1.03870150
H        1.62676152       2.06923342       0.42275210
H        0.86464238       0.09885233       1.21196365
H        1.11317543       1.42845787      -1.96206746
H        1.10859627      -1.43340156      -0.74532226
H        0.49882804      -0.96933181      -2.40455155
H       -1.29022899       0.45250451      -1.37406961
16
Frame=12 idx=002893 GeodesicLength=0.6802559747527156 rxn_smarts="[C:1]([C@@:2]1([H:10])[C:3]([H:11])([H:12])[C@@:4]2([H:13])[C:5]([H:14])([H:15])[C@@:6]12[H:16])([H:7])([H:8])[H:9]>>[C:1]([C:2]([C@@:6]1([H:16])[C@:4]([C:3][H:11])([H:13])[C:5]1([H:14])[H:15])([H:10])[H:12])([H:7])([H:8])[H:9]"
C       -1.16540567      -0.87751810       1.39598554
C       -0.42946286       0.28198928       0.73716114
C        1.48146941       1.00294957       0.23667757
C        0.95291098       0.77209561      -1.11856607
C        0.61530508      -0.69195317      -1.36094207
C       -0.42208966       0.19244439      -0.78323793
H       -1.14391452      -0.78829500       2.48390652
H       -2.21569716      -0.91123144       1.09465022
H       -0.70798897      -1.83197426       1.12629657
H       -0.93067805       1.20747519       1.03647144
H        1.65778126       2.07242953       0.40898491
H        0.87897646       0.08736344       1.22570313
H        1.10484759       1.42932521      -1.96645773
H        1.11099634      -1.42912980      -0.74068104
H        0.50424816      -0.96768130      -2.40145720
H       -1.29129841       0.45171085      -1.37449500
16
Frame=13 idx=002893 GeodesicLength=0.7365727366429353 rxn_smarts="[C:1]([C@@:2]1([H:10])[C:3]([H:11])([H:12])[C@@:4]2([H:13])[C:5]([H:14])([H:15])[C@@:6]12[H:16])([H:7])([H:8])[H:9]>>[C:1]([C:2]([C@@:6]1([H:16])[C@:4]([C:3][H:11])([H:13])[C:5]1([H:14])[H:15])([H:10])[H:12])([H:7])([H:8])[H:9]"
C       -1.16858614      -0.87844329       1.39385662
C       -0.42930645       0.28228611       0.73912537
C        1.46798738       1.01069482       0.23717715
C        0.94897309       0.77775679      -1.11833753
C        0.61419427      -0.69037711      -1.35685624
C       -0.42522769       0.18981330      -0.78211638
H       -1.14784974      -0.79069743       2.48199054
H       -2.21873630      -0.91282206       1.09266405
H       -0.71030884      -1.83252621       1.12419097
H       -0.94174303       1.20364382       1.03383883
H        1.69035245       2.07325984       0.39494259
H        0.89311830       0.07635396       1.23930866
H        1.09630852       1.43029755      -1.97068467
H        1.11329090      -1.42432199      -0.73571346
H        0.50990515      -0.96567270      -2.39815543
H       -1.29237186       0.45075461      -1.37523108
16
Frame=14 idx=002893 GeodesicLength=0.7931267026748127 rxn_smarts="[C:1]([C@@:2]1([H:10])[C:3]([H:11])([H:12])[C@@:4]2([H:13])[C:5]([H:14])([H:15])[C@@:6]12[H:16])([H:7])([H:8])[H:9]>>[C:1]([C:2]([C@@:6]1([H:16])[C@:4]([C:3][H:11])([H:13])[C:5]1([H:14])[H:15])([H:10])[H:12])([H:7])([H:8])[H:9]"
C       -1.17177407      -0.87946025       1.39179681
C       -0.42981720       0.28291067       0.74096044
C        1.45398091       1.01908749       0.23784881
C        0.94476635       0.78379451      -1.11803186
C        0.61313966      -0.68868279      -1.35272176
C       -0.42871811       0.18722340      -0.78112559
H       -1.15174718      -0.79294458       2.48014075
H       -2.22189457      -0.91514941       1.09077955
H       -0.71208140      -1.83307856       1.12224456
H       -0.95382173       1.19997974       1.03093372
H        1.72532488       2.07202904       0.38080601
H        0.90732615       0.06603776       1.25274781
H        1.08758457       1.43163893      -1.97478004
H        1.11578340      -1.41925835      -0.73058885
H        0.51584340      -0.96366390      -2.39479167
H       -1.29389504       0.44953630      -1.37621871
16
Frame=15 idx=002893 GeodesicLength=0.8494274008397839 rxn_smarts="[C:1]([C@@:2]1([H:10])[C:3]([H:11])([H:12])[C@@:4]2([H:13])[C:5]([H:14])([H:15])[C@@:6]12[H:16])([H:7])([H:8])[H:9]>>[C:1]([C:2]([C@@:6]1([H:16])[C@:4]([C:3][H:11])([H:13])[C:5]1([H:14])[H:15])([H:10])[H:12])([H:7])([H:8])[H:9]"
C       -1.17474885      -0.88044451       1.38974634
C       -0.43103675       0.28381297       0.74257645
C        1.43888953       1.02802043       0.23874469
C        0.93996275       0.79020834      -1.11759112
C        0.61206359      -0.68653794      -1.34836372
C       -0.43248709       0.18468292      -0.78030330
H       -1.15557496      -0.79490390       2.47826007
H       -2.22463051      -0.91827049       1.08873162
H       -0.71297766      -1.83321030       1.12066378
H       -0.96689668       1.19616067       1.02750598
H        1.76307881       2.06741814       0.36637013
H        0.92121201       0.05649528       1.26613142
H        1.07830748       1.43326078      -1.97870297
H        1.11829504      -1.41341607      -0.72501542
H        0.52211067      -0.96120610      -2.39114652
H       -1.29556739       0.44792978      -1.37760744
16
Frame=16 idx=002893 GeodesicLength=0.905793292037759 rxn_smarts="[C:1]([C@@:2]1([H:10])[C:3]([H:11])([H:12])[C@@:4]2([H:13])[C:5]([H:14])([H:15])[C@@:6]12[H:16])([H:7])([H:8])[H:9]>>[C:1]([C:2]([C@@:6]1([H:16])[C@:4]([C:3][H:11])([H:13])[C:5]1([H:14])[H:15])([H:10])[H:12])([H:7])([H:8])[H:9]"
C       -1.17765822      -0.88148439       1.38777371
C       -0.43304356       0.28510306       0.74401472
C        1.42293547       1.03783945       0.23976574
C        0.93468378       0.79713685      -1.11708863
C        0.61107487      -0.68407943      -1.34388193
C       -0.43662888       0.18218438      -0.77963845
H       -1.15938449      -0.79661645       2.47644042
H       -2.22730429      -0.92228176       1.08672617
H       -0.71310632      -1.83317527       1.11937761
H       -0.98117411       1.19241036       1.02367358
H        1.80376373       2.05929745       0.35179749
H        0.93502980       0.04791696       1.27936449
H        1.06859859       1.43536028      -1.98252708
H        1.12107273      -1.40696430      -0.71913619
H        0.52879573      -0.95855099      -2.38733654
H       -1.29765485       0.44590382      -1.37932512
