15
Frame=0 idx=009907 GeodesicLength=0.0 rxn_smarts="[C:1]([C@@:2]1([H:11])[C@:3]([C:4]#[N:5])([H:12])[N:6]1[C:7]([H:13])([H:14])[H:15])([H:8])([H:9])[H:10]>>[C:1]([C:2](/[N:6]=[C:3](/[C:4]#[N:5])[H:12])([C:7]([H:13])([H:14])[H:15])[H:11])([H:8])([H:9])[H:10]"
C       -1.41629620       0.03691756       0.31301530
C       -0.09131465      -0.27660596      -0.32245767
C        0.75134456       0.84711012      -0.84652528
C        0.12114267       2.16530141      -0.79488080
N       -0.34820046       3.21253576      -0.78836554
N        1.34986593       0.39379336       0.33409607
C        0.88662443      -1.36111760       0.75754388
H       -1.29566150       0.78552521       1.09476852
H       -2.11021253       0.42574389      -0.43383961
H       -1.85538450      -0.86110140       0.75076627
H       -0.10198875      -1.06472769      -1.07287916
H        1.24351142       0.69008161      -1.81438935
H        1.61793491      -1.91309864       0.17833579
H       -0.00825559      -1.97638701       0.90417068
H        1.25689023      -1.10397061       1.74064089
15
Frame=1 idx=009907 GeodesicLength=0.10503227952296369 rxn_smarts="[C:1]([C@@:2]1([H:11])[C@:3]([C:4]#[N:5])([H:12])[N:6]1[C:7]([H:13])([H:14])[H:15])([H:8])([H:9])[H:10]>>[C:1]([C:2](/[N:6]=[C:3](/[C:4]#[N:5])[H:12])([C:7]([H:13])([H:14])[H:15])[H:11])([H:8])([H:9])[H:10]"
C       -1.43023938       0.03134063       0.31863535
C       -0.10070442      -0.27671724      -0.31014194
C        0.75252398       0.86002286      -0.83993421
C        0.13742954       2.18484406      -0.80792749
N       -0.30694085       3.24292448      -0.81378980
N        1.31022334       0.39853157       0.35286503
C        0.89522227      -1.36987062       0.75253760
H       -1.33112177       0.81002055       1.07358429
H       -2.13420682       0.37935290      -0.43901651
H       -1.85249937      -0.85657457       0.79187335
H       -0.11255538      -1.05152420      -1.07481388
H        1.25590972       0.68421903      -1.79818219
H        1.62722311      -1.90126502       0.15405848
H        0.01362152      -2.00276051       0.90300453
H        1.27611451      -1.13254392       1.73724740
15
Frame=2 idx=009907 GeodesicLength=0.20919607136485685 rxn_smarts="[C:1]([C@@:2]1([H:11])[C@:3]([C:4]#[N:5])([H:12])[N:6]1[C:7]([H:13])([H:14])[H:15])([H:8])([H:9])[H:10]>>[C:1]([C:2](/[N:6]=[C:3](/[C:4]#[N:5])[H:12])([C:7]([H:13])([H:14])[H:15])[H:11])([H:8])([H:9])[H:10]"
C       -1.44502340       0.02521786       0.32380893
C       -0.11103919      -0.27739332      -0.29837594
C        0.75351629       0.87260928      -0.83330469
C        0.15565279       2.20450908      -0.81955710
N       -0.26280365       3.27299364      -0.83651901
N        1.27017973       0.40258686       0.37018488
C        0.90372578      -1.37753552       0.74746242
H       -1.36801768       0.83360396       1.04956203
H       -2.15870031       0.32989910      -0.44348792
H       -1.84947352      -0.85051929       0.83369046
H       -0.12346572      -1.03879738      -1.07687256
H        1.26724604       0.67831042      -1.78188913
H        1.63589729      -1.88851149       0.13051195
H        0.03635440      -2.02845827       0.90212896
H        1.29595115      -1.15851494       1.73265674
15
Frame=3 idx=009907 GeodesicLength=0.3125518474391599 rxn_smarts="[C:1]([C@@:2]1([H:11])[C@:3]([C:4]#[N:5])([H:12])[N:6]1[C:7]([H:13])([H:14])[H:15])([H:8])([H:9])[H:10]>>[C:1]([C:2](/[N:6]=[C:3](/[C:4]#[N:5])[H:12])([C:7]([H:13])([H:14])[H:15])[H:11])([H:8])([H:9])[H:10]"
C       -1.46063154       0.01852730       0.32852403
C       -0.12230864      -0.27865031      -0.28719493
C        0.75430336       0.88488390      -0.82667349
C        0.17589218       2.22431958      -0.82967600
N       -0.21580793       3.30271410      -0.85644452
N        1.22975947       0.40598537       0.38600907
C        0.91210822      -1.38411511       0.74233460
H       -1.40633299       0.85616770       1.02247653
H       -2.18362847       0.27719772      -0.44699796
H       -1.84629793      -0.84266949       0.87618258
H       -0.13472708      -1.02654326      -1.07912495
H        1.27744279       0.67237129      -1.76562219
H        1.64390860      -1.87492859       0.10766843
H        0.05995678      -2.05342380       0.90159858
H        1.31636319      -1.18183642       1.72694021
15
Frame=4 idx=009907 GeodesicLength=0.41516380235778544 rxn_smarts="[C:1]([C@@:2]1([H:11])[C@:3]([C:4]#[N:5])([H:12])[N:6]1[C:7]([H:13])([H:14])[H:15])([H:8])([H:9])[H:10]>>[C:1]([C:2](/[N:6]=[C:3](/[C:4]#[N:5])[H:12])([C:7]([H:13])([H:14])[H:15])[H:11])([H:8])([H:9])[H:10]"
C       -1.47704434       0.01124781       0.33277088
C       -0.13449855      -0.28050683      -0.27663734
C        0.75487244       0.89686795      -0.82008075
C        0.19823950       2.24429686      -0.83817943
N       -0.16600279       3.33204574      -0.87345915
N        1.18899023       0.40875576       0.40029377
C        0.92033979      -1.38961735       0.73717215
H       -1.44604608       0.87757842       0.99209276
H       -2.20890399       0.22107809      -0.44924957
H       -1.84297638      -0.83273609       0.91928857
H       -0.14635035      -1.01475820      -1.08164736
H        1.28642818       0.66642951      -1.74950570
H        1.65120523      -1.86061339       0.08549653
H        0.08443506      -2.07760247       0.90147750
H        1.33731205      -1.20246581       1.72016716
15
Frame=5 idx=009907 GeodesicLength=0.517078378068838 rxn_smarts="[C:1]([C@@:2]1([H:11])[C@:3]([C:4]#[N:5])([H:12])[N:6]1[C:7]([H:13])([H:14])[H:15])([H:8])([H:9])[H:10]>>[C:1]([C:2](/[N:6]=[C:3](/[C:4]#[N:5])[H:12])([C:7]([H:13])([H:14])[H:15])[H:11])([H:8])([H:9])[H:10]"
C       -1.49424659       0.00334717       0.33652705
C       -0.14760286      -0.28298625      -0.26674209
C        0.75517252       0.90857674      -0.81357139
C        0.22272386       2.26442447      -0.84496194
N       -0.11330006       3.36098137      -0.88739519
N        1.14787831       0.41092366       0.41297582
C        0.92839303      -1.39403977       0.73198626
H       -1.48717706       0.89767049       0.95811770
H       -2.23441682       0.16131870      -0.44992362
H       -1.83947768      -0.82037190       0.96297453
H       -0.15835240      -1.00343925      -1.08450171
H        1.29409683       0.66051534      -1.73365999
H        1.65775337      -1.84564060       0.06397782
H        0.10981698      -2.10093240       0.90180599
H        1.35873855      -1.22034777       1.71239076
15
Frame=6 idx=009907 GeodesicLength=0.6183493798166402 rxn_smarts="[C:1]([C@@:2]1([H:11])[C@:3]([C:4]#[N:5])([H:12])[N:6]1[C:7]([H:13])([H:14])[H:15])([H:8])([H:9])[H:10]>>[C:1]([C:2](/[N:6]=[C:3](/[C:4]#[N:5])[H:12])([C:7]([H:13])([H:14])[H:15])[H:11])([H:8])([H:9])[H:10]"
C       -1.51221786      -0.00519969       0.33978147
C       -0.16160155      -0.28611657      -0.25755203
C        0.75518663       0.92003849      -0.80719555
C        0.24943742       2.28469764      -0.84988971
N       -0.05775032       3.38945427      -0.89810269
N        1.10645571       0.41252044       0.42400204
C        0.93623666      -1.39738775       0.72679964
H       -1.52969772       0.91622583       0.92027372
H       -2.26002102       0.09778488      -0.44862671
H       -1.83584811      -0.80523028       1.00709114
H       -0.17075153      -0.99258794      -1.08776681
H        1.30035999       0.65467964      -1.71824046
H        1.66349321      -1.83011173       0.04307573
H        0.13609999      -2.12333934       0.90268665
H        1.38061850      -1.23542789       1.70366356
15
Frame=7 idx=009907 GeodesicLength=0.7190012324104516 rxn_smarts="[C:1]([C@@:2]1([H:11])[C@:3]([C:4]#[N:5])([H:12])[N:6]1[C:7]([H:13])([H:14])[H:15])([H:8])([H:9])[H:10]>>[C:1]([C:2](/[N:6]=[C:3](/[C:4]#[N:5])[H:12])([C:7]([H:13])([H:14])[H:15])[H:11])([H:8])([H:9])[H:10]"
C       -1.53093517      -0.01441422       0.34251647
C       -0.17647612      -0.28992708      -0.24910500
C        0.75487260       0.93127397      -0.80099373
C        0.27842789       2.30506910      -0.85281112
N        0.00065014       3.41739260      -0.90541477
N        1.06473918       0.41356660       0.43331254
C        0.94384372      -1.39966234       0.72162514
H       -1.57359808       0.93297558       0.87823798
H       -2.28553417       0.03035799      -0.44491409
H       -1.83212062      -0.78690526       1.05146243
H       -0.18357109      -0.98219618      -1.09150458
H        1.30510668       0.64897436      -1.70338305
H        1.66837555      -1.81411701       0.02275675
H        0.16329928      -2.14473602       0.90420447
H        1.40292023      -1.24765210       1.69401056
15
Frame=8 idx=009907 GeodesicLength=0.8190736151290341 rxn_smarts="[C:1]([C@@:2]1([H:11])[C@:3]([C:4]#[N:5])([H:12])[N:6]1[C:7]([H:13])([H:14])[H:15])([H:8])([H:9])[H:10]>>[C:1]([C:2](/[N:6]=[C:3](/[C:4]#[N:5])[H:12])([C:7]([H:13])([H:14])[H:15])[H:11])([H:8])([H:9])[H:10]"
C       -1.55038083      -0.02431855       0.34472465
C       -0.19220570      -0.29445223      -0.24143618
C        0.75419560       0.94231503      -0.79500721
C        0.30974403       2.32547916      -0.85355844
N        0.06189214       3.44470796      -0.90919261
N        1.02275210       0.41408862       0.44085350
C        0.95118767      -1.40086633       0.71647578
H       -1.61885989       0.94757738       0.83171996
H       -2.31073654      -0.04101131      -0.43828270
H       -1.82837298      -0.76498110       1.09584685
H       -0.19684415      -0.97225905      -1.09578415
H        1.30823589       0.64346983      -1.68924023
H        1.67235587      -1.79774546       0.00297808
H        0.19142414      -2.16503859       0.90644832
H        1.42561264      -1.25696539       1.68345438
15
Frame=9 idx=009907 GeodesicLength=0.9186179786687331 rxn_smarts="[C:1]([C@@:2]1([H:11])[C@:3]([C:4]#[N:5])([H:12])[N:6]1[C:7]([H:13])([H:14])[H:15])([H:8])([H:9])[H:10]>>[C:1]([C:2](/[N:6]=[C:3](/[C:4]#[N:5])[H:12])([C:7]([H:13])([H:14])[H:15])[H:11])([H:8])([H:9])[H:10]"
C       -1.57052192      -0.03496110       0.34637442
C       -0.20878048      -0.29973875      -0.23457846
C        0.75304519       0.95320542      -0.78930431
C        0.34331644       2.34584144      -0.85200284
N        0.12618491       3.47135839      -0.90919344
N        0.98048046       0.41411644       0.44653845
C        0.95823627      -1.40099465       0.71137820
H       -1.66546744       0.95959047       0.78039840
H       -2.33531865      -0.11637713      -0.42822530
H       -1.82465055      -0.73899471       1.13999208
H       -0.21062015      -0.96278325      -1.10064959
H        1.30955585       0.63826657      -1.67598877
H        1.67537936      -1.78105956      -0.01626905
H        0.22051337      -2.18416811       0.90951458
H        1.44864734      -1.26330147       1.67201562
15
Frame=10 idx=009907 GeodesicLength=1.0176474576088985 rxn_smarts="[C:1]([C@@:2]1([H:11])[C@:3]([C:4]#[N:5])([H:12])[N:6]1[C:7]([H:13])([H:14])[H:15])([H:8])([H:9])[H:10]>>[C:1]([C:2](/[N:6]=[C:3](/[C:4]#[N:5])[H:12])([C:7]([H:13])([H:14])[H:15])[H:11])([H:8])([H:9])[H:10]"
C       -1.59133717      -0.04632390       0.34746874
C       -0.22615868      -0.30583293      -0.22855707
C        0.75141281       0.96397393      -0.78393021
C        0.37921291       2.36603909      -0.84796445
N        0.19333979       3.49712464      -0.90524813
N        0.93798563       0.41366893       0.45031547
C        0.96498353      -1.40005063       0.70635332
H       -1.71331286       0.96852799       0.72407814
H       -2.35899165      -0.19547531      -0.41413186
H       -1.82117476      -0.70854350       1.18339126
H       -0.22494667      -0.95377718      -1.10616343
H        1.30896976       0.63344098      -1.66381551
H        1.67741309      -1.76417262      -0.03503363
H        0.25057650      -2.20201001       0.91353775
H        1.47202776      -1.26658949       1.65969961
15
Frame=11 idx=009907 GeodesicLength=1.1161688229744913 rxn_smarts="[C:1]([C@@:2]1([H:11])[C@:3]([C:4]#[N:5])([H:12])[N:6]1[C:7]([H:13])([H:14])[H:15])([H:8])([H:9])[H:10]>>[C:1]([C:2](/[N:6]=[C:3](/[C:4]#[N:5])[H:12])([C:7]([H:13])([H:14])[H:15])[H:11])([H:8])([H:9])[H:10]"
C       -1.61277795      -0.05838403       0.34799236
C       -0.24430174      -0.31278515      -0.22337986
C        0.74922291       0.97464504      -0.77892087
C        0.41738406       2.38589923      -0.84128123
N        0.26329335       3.52179830      -0.89718661
N        0.89528164       0.41275470       0.45212267
C        0.97142807      -1.39803491       0.70142152
H       -1.76226641       0.97381073       0.66261332
H       -2.38138695      -0.27790250      -0.39539948
H       -1.81813984      -0.67324157       1.22545589
H       -0.23987900      -0.94524365      -1.11234231
H        1.30630566       0.62907609      -1.65287462
H        1.67842563      -1.74717495      -0.05333614
H        0.28167345      -2.21844847       0.91863001
H        1.49573712      -1.26676886       1.64648535
15
Frame=12 idx=009907 GeodesicLength=1.2142140855612744 rxn_smarts="[C:1]([C@@:2]1([H:11])[C@:3]([C:4]#[N:5])([H:12])[N:6]1[C:7]([H:13])([H:14])[H:15])([H:8])([H:9])[H:10]>>[C:1]([C:2](/[N:6]=[C:3](/[C:4]#[N:5])[H:12])([C:7]([H:13])([H:14])[H:15])[H:11])([H:8])([H:9])[H:10]"
C       -1.63482322      -0.07112464       0.34794849
C       -0.26317239      -0.32065670      -0.21902755
C        0.74641968       0.98524913      -0.77430868
C        0.45779038       2.40520880      -0.83180990
N        0.33594742       3.54512122      -0.88497959
N        0.85239732       0.41139604       0.45191832
C        0.97758358      -1.39492792       0.69661388
H       -1.81209414       0.97473815       0.59619951
H       -2.40214106      -0.36291954      -0.37152475
H       -1.81590707      -0.63292671       1.26543045
H       -0.25548736      -0.93719778      -1.11918691
H        1.30141807       0.62526879      -1.64333214
H        1.67840686      -1.73011833      -0.07120349
H        0.31387395      -2.23335826       0.92491328
H        1.51978797      -1.26375225       1.63234909
15
Frame=13 idx=009907 GeodesicLength=1.3118940860187018 rxn_smarts="[C:1]([C@@:2]1([H:11])[C@:3]([C:4]#[N:5])([H:12])[N:6]1[C:7]([H:13])([H:14])[H:15])([H:8])([H:9])[H:10]>>[C:1]([C:2](/[N:6]=[C:3](/[C:4]#[N:5])[H:12])([C:7]([H:13])([H:14])[H:15])[H:11])([H:8])([H:9])[H:10]"
C       -1.65746043      -0.08460211       0.34732728
C       -0.28276068      -0.32953887      -0.21547294
C        0.74282995       0.99584384      -0.77020241
C        0.50024752       2.42375450      -0.81954985
N        0.41168058       3.56690429      -0.86839746
N        0.80929657       0.40964983       0.44962194
C        0.98346789      -1.39067119       0.69199042
H       -1.86258879       0.97054949       0.52514578
H       -2.42087665      -0.44979545      -0.34214080
H       -1.81482913      -0.58755488       1.30259144
H       -0.27185964      -0.92971893      -1.12666948
H        1.29401898       0.62215526      -1.63544024
H        1.67735203      -1.71298329      -0.08862674
H        0.34730726      -2.24661383       0.93253470
H        1.54417453      -1.25737865       1.61728836
15
Frame=14 idx=009907 GeodesicLength=1.4091833291966216 rxn_smarts="[C:1]([C@@:2]1([H:11])[C@:3]([C:4]#[N:5])([H:12])[N:6]1[C:7]([H:13])([H:14])[H:15])([H:8])([H:9])[H:10]>>[C:1]([C:2](/[N:6]=[C:3](/[C:4]#[N:5])[H:12])([C:7]([H:13])([H:14])[H:15])[H:11])([H:8])([H:9])[H:10]"
C       -1.68065210      -0.09868151       0.34614090
C       -0.30300356      -0.33949177      -0.21264588
C        0.73843657       1.00640734      -0.76658147
C        0.54479554       2.44120690      -0.80441306
N        0.48997608       3.58666699      -0.84759990
N        0.76601262       0.40751562       0.44524760
C        0.98917654      -1.38524113       0.68757820
H       -1.91331596       0.96068496       0.45023200
H       -2.43740440      -0.53701459      -0.30707101
H       -1.81540237      -0.53751202       1.33586482
H       -0.28906228      -0.92283983      -1.13471956
H        1.28400257       0.61974286      -1.62926785
H        1.67534234      -1.69583776      -0.10560692
H        0.38215713      -2.25804940       0.94158483
H        1.56894130      -1.24755665       1.60125730
15
Frame=15 idx=009907 GeodesicLength=1.5062407122344048 rxn_smarts="[C:1]([C@@:2]1([H:11])[C@:3]([C:4]#[N:5])([H:12])[N:6]1[C:7]([H:13])([H:14])[H:15])([H:8])([H:9])[H:10]>>[C:1]([C:2](/[N:6]=[C:3](/[C:4]#[N:5])[H:12])([C:7]([H:13])([H:14])[H:15])[H:11])([H:8])([H:9])[H:10]"
C       -1.70442740      -0.11342562       0.34439724
C       -0.32390475      -0.35062952      -0.21048606
C        0.73304931       1.01699187      -0.76358168
C        0.59137160       2.45729438      -0.78650662
N        0.57126972       3.60411454      -0.82227850
N        0.72248591       0.40506779       0.43872587
C        0.99478190      -1.37853012       0.68343268
H       -1.96407274       0.94454777       0.37209042
H       -2.45158780      -0.62362268      -0.26629509
H       -1.81802435      -0.48309851       1.36458778
H       -0.30718669      -0.91671480      -1.14326811
H        1.27105435       0.61814605      -1.62508790
H        1.67246024      -1.67859156      -0.12213100
H        0.41863996      -2.26749928       0.95215721
H        1.59409072      -1.23405028       1.58424376
15
Frame=16 idx=009907 GeodesicLength=1.6030304526675085 rxn_smarts="[C:1]([C@@:2]1([H:11])[C@:3]([C:4]#[N:5])([H:12])[N:6]1[C:7]([H:13])([H:14])[H:15])([H:8])([H:9])[H:10]>>[C:1]([C:2](/[N:6]=[C:3](/[C:4]#[N:5])[H:12])([C:7]([H:13])([H:14])[H:15])[H:11])([H:8])([H:9])[H:10]"
C       -1.72876146      -0.12873861       0.34209826
C       -0.34542396      -0.36300187      -0.20885701
C        0.72660765       1.02757117      -0.76111820
C        0.64021644       2.47155313      -0.76575211
N        0.65505351       3.61864681      -0.79303407
N        0.67864993       0.40230687       0.43013905
C        1.00040013      -1.37042672       0.67957885
H       -2.01426865       0.92186974       0.29230687
H       -2.46352436      -0.70770920      -0.22037722
H       -1.82322414      -0.42555880       1.38773272
H       -0.32627452      -0.91134108      -1.15215953
H        1.25504671       0.61737916      -1.62282669
H        1.66878002      -1.66116913      -0.13818778
H        0.45703917      -2.27469113       0.96432443
H        1.61968354      -1.21669034       1.56613243
