17
Frame=0 idx=002641 GeodesicLength=0.0 rxn_smarts="[C:1]([C:2]([C@@:3]1([H:12])[C:4]([H:13])([H:14])[N:5]1[C:6]([H:15])([H:16])[H:17])([H:10])[H:11])([H:7])([H:8])[H:9]>>[C:1]([C:2]([N+:5]1([C:6]([H:15])([H:16])[H:17])[C-:3]([H:12])[C:4]1([H:13])[H:14])([H:10])[H:11])([H:7])([H:8])[H:9]"
C        1.88511527      -0.95267170      -0.23379643
C        0.97881472       0.18842084      -0.66566043
C        0.24977919       0.49992140       1.12941393
C       -0.80983256       1.48354779       0.88106871
N       -0.69901992       0.59034790      -0.23989537
C       -1.69679129      -0.44158278      -0.39929831
H        2.50758436      -0.67116517       0.61306893
H        1.29903756      -1.82991474       0.05116243
H        2.50542266      -1.24916884      -1.08804556
H        1.49030778       1.14010642      -0.74210098
H        0.61912486      -0.08845101      -1.67031558
H       -0.13735905      -0.38714478       1.64477927
H       -0.57173457       2.52694034       0.68456168
H       -1.75082594       1.34283243       1.40534602
H       -1.26299772      -1.28337772      -0.94558825
H       -2.53398241      -0.05449367      -0.98571184
H       -2.07264294      -0.81414665       0.56101173
17
Frame=1 idx=002641 GeodesicLength=0.05158289136488584 rxn_smarts="[C:1]([C:2]([C@@:3]1([H:12])[C:4]([H:13])([H:14])[N:5]1[C:6]([H:15])([H:16])[H:17])([H:10])[H:11])([H:7])([H:8])[H:9]>>[C:1]([C:2]([N+:5]1([C:6]([H:15])([H:16])[H:17])[C-:3]([H:12])[C:4]1([H:13])[H:14])([H:10])[H:11])([H:7])([H:8])[H:9]"
C        1.89854639      -0.94948085      -0.23918808
C        0.97969102       0.18486091      -0.66239453
C        0.23820142       0.48389334       1.12536573
C       -0.80686785       1.48403524       0.87825763
N       -0.70292846       0.57747204      -0.23323084
C       -1.71163765      -0.44334032      -0.39295502
H        2.51087548      -0.67065988       0.61617524
H        1.32444967      -1.84024876       0.02736842
H        2.53477322      -1.22330326      -1.08889703
H        1.48389938       1.14125980      -0.73355089
H        0.62765036      -0.08638335      -1.67113649
H       -0.15234215      -0.39575115       1.64975444
H       -0.55016679       2.52073506       0.67061363
H       -1.75077793       1.36078350       1.40193260
H       -1.28468093      -1.29715014      -0.92540726
H       -2.53710267      -0.04948641      -0.99135271
H       -2.10158251      -0.79723578       0.56864517
17
Frame=2 idx=002641 GeodesicLength=0.10297285585624724 rxn_smarts="[C:1]([C:2]([C@@:3]1([H:12])[C:4]([H:13])([H:14])[N:5]1[C:6]([H:15])([H:16])[H:17])([H:10])[H:11])([H:7])([H:8])[H:9]>>[C:1]([C:2]([N+:5]1([C:6]([H:15])([H:16])[H:17])[C-:3]([H:12])[C:4]1([H:13])[H:14])([H:10])[H:11])([H:7])([H:8])[H:9]"
C        1.91187862      -0.94621874      -0.24458197
C        0.98057088       0.18123127      -0.65910863
C        0.22665883       0.46789267       1.12122541
C       -0.80370487       1.48427063       0.87522271
N       -0.70693121       0.56449797      -0.22672129
C       -1.72655525      -0.44506493      -0.38652272
H        2.51383499      -0.67063205       0.61940526
H        1.35002002      -1.85009894       0.00298494
H        2.56372498      -1.19694994      -1.08917409
H        1.47760006       1.14219354      -0.72490470
H        0.63640493      -0.08393961      -1.67202853
H       -0.16729323      -0.40405172       1.65484019
H       -0.52882705       2.51393626       0.65664965
H       -1.75020340       1.37854671       1.39830575
H       -1.30687930      -1.31088857      -0.90476434
H       -2.54007996      -0.04489093      -0.99694403
H       -2.13021904      -0.77983361       0.57611639
17
Frame=3 idx=002641 GeodesicLength=0.1541344465722313 rxn_smarts="[C:1]([C:2]([C@@:3]1([H:12])[C:4]([H:13])([H:14])[N:5]1[C:6]([H:15])([H:16])[H:17])([H:10])[H:11])([H:7])([H:8])[H:9]>>[C:1]([C:2]([N+:5]1([C:6]([H:15])([H:16])[H:17])[C-:3]([H:12])[C:4]1([H:13])[H:14])([H:10])[H:11])([H:7])([H:8])[H:9]"
C        1.92508626      -0.94290533      -0.24997554
C        0.98146722       0.17754428      -0.65580284
C        0.21516520       0.45196086       1.11698772
C       -0.80037447       1.48425706       0.87196402
N       -0.71101693       0.55144702      -0.22037406
C       -1.74150924      -0.44675730      -0.38000945
H        2.51647443      -0.67111455       0.62272163
H        1.37570411      -1.85942879      -0.02193397
H        2.59218484      -1.17022387      -1.08886795
H        1.47144219       1.14291394      -0.71615070
H        0.64540554      -0.08107857      -1.67298605
H       -0.18217366      -0.41199938       1.66003691
H       -0.50779355       2.50658308       0.64267578
H       -1.74912344       1.39607699       1.39447256
H       -1.32956333      -1.32453635      -0.88372063
H       -2.54292379      -0.04073018      -1.00244915
H       -2.15845140      -0.76200893       0.58341171
17
Frame=4 idx=002641 GeodesicLength=0.20503469687951964 rxn_smarts="[C:1]([C:2]([C@@:3]1([H:12])[C:4]([H:13])([H:14])[N:5]1[C:6]([H:15])([H:16])[H:17])([H:10])[H:11])([H:7])([H:8])[H:9]>>[C:1]([C:2]([N+:5]1([C:6]([H:15])([H:16])[H:17])[C-:3]([H:12])[C:4]1([H:13])[H:14])([H:10])[H:11])([H:7])([H:8])[H:9]"
C        1.93814779      -0.93955999      -0.25536601
C        0.98239478       0.17381268      -0.65247713
C        0.20373403       0.43613819       1.11265180
C       -0.79690726       1.48400028       0.86848440
N       -0.71517365       0.53834057      -0.21419690
C       -1.75646945      -0.44841995      -0.37342632
H        2.51881591      -0.67213018       0.62608407
H        1.40146317      -1.86820176      -0.04732357
H        2.62006156      -1.14324961      -1.08797803
H        1.46545950       1.14342914      -0.70727478
H        0.65466864      -0.07776120      -1.67400116
H       -0.19694736      -0.41955002       1.66534829
H       -0.48713808       2.49871871       0.62869371
H       -1.74756453       1.41333237       1.39044614
H       -1.35270875      -1.33803812      -0.86235156
H       -2.54565064      -0.03702257      -1.00783612
H       -2.18618565      -0.74383855       0.59052318
17
Frame=5 idx=002641 GeodesicLength=0.25563328571930893 rxn_smarts="[C:1]([C:2]([C@@:3]1([H:12])[C:4]([H:13])([H:14])[N:5]1[C:6]([H:15])([H:16])[H:17])([H:10])[H:11])([H:7])([H:8])[H:9]>>[C:1]([C:2]([N+:5]1([C:6]([H:15])([H:16])[H:17])[C-:3]([H:12])[C:4]1([H:13])[H:14])([H:10])[H:11])([H:7])([H:8])[H:9]"
C        1.95104364      -0.93620135      -0.26073830
C        0.98335829       0.17004607      -0.64913121
C        0.19237407       0.42045552       1.10820833
C       -0.79333971       1.48350967       0.86478568
N       -0.71939899       0.52519679      -0.20819292
C       -1.77140245      -0.45005233      -0.36678867
H        2.52088354      -0.67365771       0.62944630
H        1.42722795      -1.87641478      -0.07305836
H        2.64729896      -1.11614867      -1.08655070
H        1.45966599       1.14374241      -0.69827397
H        0.66420979      -0.07396899      -1.67506333
H       -0.21157961      -0.42667625       1.67075065
H       -0.46689664       2.49038995       0.61473446
H       -1.74557050       1.43028292       1.38621544
H       -1.37623560      -1.35132414      -0.84073457
H       -2.54829525      -0.03375285      -1.01303402
H       -2.21334347      -0.72542626       0.59742519
17
Frame=6 idx=002641 GeodesicLength=0.3059930379371031 rxn_smarts="[C:1]([C:2]([C@@:3]1([H:12])[C:4]([H:13])([H:14])[N:5]1[C:6]([H:15])([H:16])[H:17])([H:10])[H:11])([H:7])([H:8])[H:9]>>[C:1]([C:2]([N+:5]1([C:6]([H:15])([H:16])[H:17])[C-:3]([H:12])[C:4]1([H:13])[H:14])([H:10])[H:11])([H:7])([H:8])[H:9]"
C        1.96379376      -0.93282884      -0.26611496
C        0.98435916       0.16623360      -0.64577225
C        0.18108245       0.40489793       1.10366294
C       -0.78966912       1.48277649       0.86086957
N       -0.72369031       0.51201069      -0.20236697
C       -1.78632537      -0.45165040      -0.36008089
H        2.52267700      -0.67576436       0.63282708
H        1.45306956      -1.88403911      -0.09926695
H        2.67394118      -1.08887783      -1.08450291
H        1.45406585       1.14385566      -0.68914402
H        0.67400737      -0.06969828      -1.67616618
H       -0.22606973      -0.43337846       1.67625318
H       -0.44708968       2.48160741       0.60076180
H       -1.74312881       1.44693211       1.38180736
H       -1.40022543      -1.36442166      -0.81880251
H       -2.55083528      -0.03095766      -1.01811306
H       -2.23996262      -0.70669731       0.60414877
17
Frame=7 idx=002641 GeodesicLength=0.3560561423149471 rxn_smarts="[C:1]([C:2]([C@@:3]1([H:12])[C:4]([H:13])([H:14])[N:5]1[C:6]([H:15])([H:16])[H:17])([H:10])[H:11])([H:7])([H:8])[H:9]>>[C:1]([C:2]([N+:5]1([C:6]([H:15])([H:16])[H:17])[C-:3]([H:12])[C:4]1([H:13])[H:14])([H:10])[H:11])([H:7])([H:8])[H:9]"
C        1.97639413      -0.92944872      -0.27147848
C        0.98541277       0.16239193      -0.64240544
C        0.16987496       0.38948420       1.09903663
C       -0.78591810       1.48181251       0.85674135
N       -0.72804225       0.49880878      -0.19671678
C       -1.80123564      -0.45321844      -0.35332511
H        2.52423124      -0.67840256       0.63616502
H        1.47892254      -1.89107375      -0.12577014
H        2.69995552      -1.06155289      -1.08192992
H        1.44869555       1.14377674      -0.67988906
H        0.68408980      -0.06493067      -1.67729200
H       -0.24039388      -0.43965887       1.68186455
H       -0.42772005       2.47241663       0.58678196
H       -1.74029333       1.46324074       1.37721107
H       -1.42461574      -1.37726767      -0.79664750
H       -2.55334367      -0.02860651      -1.02303296
H       -2.26601386      -0.68777146       0.61068680
17
Frame=8 idx=002641 GeodesicLength=0.40592296629612906 rxn_smarts="[C:1]([C:2]([C@@:3]1([H:12])[C:4]([H:13])([H:14])[N:5]1[C:6]([H:15])([H:16])[H:17])([H:10])[H:11])([H:7])([H:8])[H:9]>>[C:1]([C:2]([N+:5]1([C:6]([H:15])([H:16])[H:17])[C-:3]([H:12])[C:4]1([H:13])[H:14])([H:10])[H:11])([H:7])([H:8])[H:9]"
C        1.98882992      -0.92607149      -0.27684792
C        0.98647499       0.15848226      -0.63902165
C        0.15872304       0.37420808       1.09426122
C       -0.78211014       1.48060831       0.85239736
N       -0.73246294       0.48557180      -0.19123761
C       -1.81607843      -0.45473494      -0.34649224
H        2.52548972      -0.68163295       0.63945720
H        1.50484370      -1.89750003      -0.15274246
H        2.72538440      -1.03412251      -1.07869246
H        1.44346893       1.14346945      -0.67050588
H        0.69440869      -0.05971313      -1.67839384
H       -0.25454500      -0.44549080       1.68747316
H       -0.40882345       2.46281387       0.57284606
H       -1.73704143       1.47924440       1.37241995
H       -1.44937739      -1.38986418      -0.77415769
H       -2.55571833      -0.02672852      -1.02776989
H       -2.29146628      -0.66853963       0.61700669
17
Frame=9 idx=002641 GeodesicLength=0.45555908579820764 rxn_smarts="[C:1]([C:2]([C@@:3]1([H:12])[C:4]([H:13])([H:14])[N:5]1[C:6]([H:15])([H:16])[H:17])([H:10])[H:11])([H:7])([H:8])[H:9]>>[C:1]([C:2]([N+:5]1([C:6]([H:15])([H:16])[H:17])[C-:3]([H:12])[C:4]1([H:13])[H:14])([H:10])[H:11])([H:7])([H:8])[H:9]"
C        2.00115951      -0.92269288      -0.28221274
C        0.98759235       0.15452148      -0.63564939
C        0.14765569       0.35906003       1.08940316
C       -0.77824024       1.47917235       0.84785232
N       -0.73695895       0.47231554      -0.18594481
C       -1.83094292      -0.45621170      -0.33960444
H        2.52655633      -0.68544074       0.64272010
H        1.53084645      -1.90331781      -0.18008565
H        2.75028138      -1.00662035      -1.07486054
H        1.43848282       1.14296407      -0.66102125
H        0.70498947      -0.05402065      -1.67951931
H       -0.26851705      -0.45091219       1.69317318
H       -0.39036364       2.45285151       0.55890034
H       -1.73342282       1.49491471       1.36746894
H       -1.47460040      -1.40219297      -0.75139046
H       -2.55810299      -0.02531482      -1.03238019
H       -2.31641499      -0.64907559       0.62315074
17
Frame=10 idx=002641 GeodesicLength=0.504960812482918 rxn_smarts="[C:1]([C:2]([C@@:3]1([H:12])[C:4]([H:13])([H:14])[N:5]1[C:6]([H:15])([H:16])[H:17])([H:10])[H:11])([H:7])([H:8])[H:9]>>[C:1]([C:2]([N+:5]1([C:6]([H:15])([H:16])[H:17])[C-:3]([H:12])[C:4]1([H:13])[H:14])([H:10])[H:11])([H:7])([H:8])[H:9]"
C        2.01332398      -0.91931802      -0.28757385
C        0.98872895       0.15049498      -0.63225987
C        0.13665763       0.34404256       1.08443027
C       -0.77432404       1.47750942       0.84309875
N       -0.74149558       0.45904422      -0.18082965
C       -1.84573641      -0.45763964      -0.33266483
H        2.52735325      -0.68980410       0.64587947
H        1.55693350      -1.90851512      -0.20775494
H        2.77450766      -0.97910105      -1.07043803
H        1.43366185       1.14224009      -0.65137608
H        0.71581268      -0.04787731      -1.68057767
H       -0.28228279      -0.45591884       1.69888576
H       -0.37239378       2.44255488       0.54493677
H       -1.72942692       1.51024801       1.36235123
H       -1.50018470      -1.41421717      -0.72838236
H       -2.56039927      -0.02435236      -1.03681972
H       -2.34073602      -0.62939056       0.62909476
17
Frame=11 idx=002641 GeodesicLength=0.554195917518551 rxn_smarts="[C:1]([C:2]([C@@:3]1([H:12])[C:4]([H:13])([H:14])[N:5]1[C:6]([H:15])([H:16])[H:17])([H:10])[H:11])([H:7])([H:8])[H:9]>>[C:1]([C:2]([N+:5]1([C:6]([H:15])([H:16])[H:17])[C-:3]([H:12])[C:4]1([H:13])[H:14])([H:10])[H:11])([H:7])([H:8])[H:9]"
C        2.02539456      -0.91593820      -0.29293906
C        0.98990277       0.14639508      -0.62888470
C        0.12573286       0.32913504       1.07934976
C       -0.77036532       1.47559840       0.83813989
N       -0.74611401       0.44574780      -0.17589196
C       -1.86054158      -0.45900753      -0.32565767
H        2.52795033      -0.69476553       0.64896340
H        1.58314650      -1.91305673      -0.23583046
H        2.79825065      -0.95151841      -1.06535061
H        1.42905013       1.14129112      -0.64162424
H        0.72687402      -0.04128504      -1.68160141
H       -0.29585278      -0.46051861       1.70461500
H       -0.35486580       2.43189862       0.53096182
H       -1.72507842       1.52524246       1.35705229
H       -1.52622203      -1.42592375      -0.70504452
H       -2.56271100      -0.02385037      -1.04110693
H       -2.36455088      -0.60944436       0.63484940
17
Frame=12 idx=002641 GeodesicLength=0.6033033081755531 rxn_smarts="[C:1]([C:2]([C@@:3]1([H:12])[C:4]([H:13])([H:14])[N:5]1[C:6]([H:15])([H:16])[H:17])([H:10])[H:11])([H:7])([H:8])[H:9]>>[C:1]([C:2]([N+:5]1([C:6]([H:15])([H:16])[H:17])[C-:3]([H:12])[C:4]1([H:13])[H:14])([H:10])[H:11])([H:7])([H:8])[H:9]"
C        2.03737154      -0.91255437      -0.29831926
C        0.99109735       0.14219899      -0.62552387
C        0.11486988       0.31431582       1.07415794
C       -0.76636226       1.47345227       0.83297236
N       -0.75080654       0.43241531      -0.17113588
C       -1.87534886      -0.46031993      -0.31856904
H        2.52828094      -0.70038603       0.65198648
H        1.60954740      -1.91695995      -0.26442189
H        2.82154200      -0.92377122      -1.05955733
H        1.42461643       1.14010716      -0.63175461
H        0.73815833      -0.03427248      -1.68256683
H       -0.30922512      -0.46473949       1.71034892
H       -0.33777039       2.42092168       0.51694691
H       -1.72037242       1.53993570       1.35158309
H       -1.55271457      -1.43733764      -0.68130005
H       -2.56499675      -0.02383296      -1.04526852
H       -2.38788697      -0.58917288       0.64042159
17
Frame=13 idx=002641 GeodesicLength=0.6522437994556025 rxn_smarts="[C:1]([C:2]([C@@:3]1([H:12])[C:4]([H:13])([H:14])[N:5]1[C:6]([H:15])([H:16])[H:17])([H:10])[H:11])([H:7])([H:8])[H:9]>>[C:1]([C:2]([N+:5]1([C:6]([H:15])([H:16])[H:17])[C-:3]([H:12])[C:4]1([H:13])[H:14])([H:10])[H:11])([H:7])([H:8])[H:9]"
C        2.04924223      -0.90917358      -0.30370329
C        0.99231830       0.13791923      -0.62218010
C        0.10407850       0.29960833       1.06885178
C       -0.76233874       1.47107762       0.82760661
N       -0.75556977       0.41906765      -0.16656065
C       -1.89013682      -0.46157423      -0.31141823
H        2.52840202      -0.70661189       0.65488510
H        1.63608962      -1.92018563      -0.29337851
H        2.84430365      -0.89601322      -1.05309516
H        1.42037147       1.13869570      -0.62176591
H        0.74966430      -0.02683328      -1.68345095
H       -0.32237403      -0.46856896       1.71606301
H       -0.32113044       2.40965315       0.50291851
H       -1.71533949       1.55429330       1.34595116
H       -1.57961248      -1.44839309      -0.65724654
H       -2.56728722      -0.02428545      -1.04927076
H       -2.41068109      -0.56867565       0.64579394
17
Frame=14 idx=002641 GeodesicLength=0.70106658728331 rxn_smarts="[C:1]([C:2]([C@@:3]1([H:12])[C:4]([H:13])([H:14])[N:5]1[C:6]([H:15])([H:16])[H:17])([H:10])[H:11])([H:7])([H:8])[H:9]>>[C:1]([C:2]([N+:5]1([C:6]([H:15])([H:16])[H:17])[C-:3]([H:12])[C:4]1([H:13])[H:14])([H:10])[H:11])([H:7])([H:8])[H:9]"
C        2.06102731      -0.90578975      -0.30910203
C        0.99356051       0.13353760      -0.61886231
C        0.09335169       0.28499344       1.06342853
C       -0.75829316       1.46846933       0.82203469
N       -0.76041068       0.40569273      -0.16216783
C       -1.90492379      -0.46276550      -0.30418793
H        2.52827042      -0.71352062       0.65767866
H        1.66283923      -1.92271385      -0.32282990
H        2.86661303      -0.86815321      -1.04588381
H        1.41630743       1.13704303      -0.61166202
H        0.76137919      -0.01898957      -1.68424040
H       -0.33529296      -0.47201921       1.72174887
H       -0.30493625       2.39809419       0.48883917
H       -1.70997507       1.56832914       1.34015736
H       -1.60695306      -1.45909267      -0.63279506
H       -2.56958742      -0.02523030      -1.05313293
H       -2.43297644      -0.54788476       0.65097694
17
Frame=15 idx=002641 GeodesicLength=0.7497303514518993 rxn_smarts="[C:1]([C:2]([C@@:3]1([H:12])[C:4]([H:13])([H:14])[N:5]1[C:6]([H:15])([H:16])[H:17])([H:10])[H:11])([H:7])([H:8])[H:9]>>[C:1]([C:2]([N+:5]1([C:6]([H:15])([H:16])[H:17])[C-:3]([H:12])[C:4]1([H:13])[H:14])([H:10])[H:11])([H:7])([H:8])[H:9]"
C        2.07271726      -0.90240848      -0.31450140
C        0.99482399       0.12905731      -0.61557647
C        0.08269478       0.27048082       1.05788667
C       -0.75424565       1.46563590       0.81627299
N       -0.76532454       0.39231110      -0.15795853
C       -1.91969072      -0.46388856      -0.29690331
H        2.52794791      -0.72102551       0.66030367
H        1.68976838      -1.92452296      -0.35258979
H        2.88838600      -0.84033184      -1.03797779
H        1.41242162       1.13515355      -0.60145361
H        0.77329597      -0.01075747      -1.68491730
H       -0.34795680      -0.47510335       1.72738014
H       -0.28920201       2.38628115       0.47474169
H       -1.70430641       1.58201753       1.33422147
H       -1.63468564      -1.46937418      -0.60805432
H       -2.57192496      -0.02663033      -1.05682709
H       -2.45471919      -0.52689469       0.65595299
17
Frame=16 idx=002641 GeodesicLength=0.798283884317925 rxn_smarts="[C:1]([C:2]([C@@:3]1([H:12])[C:4]([H:13])([H:14])[N:5]1[C:6]([H:15])([H:16])[H:17])([H:10])[H:11])([H:7])([H:8])[H:9]>>[C:1]([C:2]([N+:5]1([C:6]([H:15])([H:16])[H:17])[C-:3]([H:12])[C:4]1([H:13])[H:14])([H:10])[H:11])([H:7])([H:8])[H:9]"
C        2.08432840      -0.89902500      -0.31991220
C        0.99610549       0.12446541      -0.61232748
C        0.07210387       0.25605792       1.05221879
C       -0.75019654       1.46257372       0.81031106
N       -0.77031796       0.37891091      -0.15393143
C       -1.93444912      -0.46494093      -0.28954402
H        2.52739767      -0.72920869       0.66276805
H        1.71692495      -1.92558113      -0.38278098
H        2.90968846      -0.81247567      -1.02929895
H        1.40870949       1.13301365      -0.59113624
H        0.78540256      -0.00215004      -1.68546024
H       -0.36036016      -0.47782613       1.73294159
H       -0.27391978       2.37421225       0.46059078
H       -1.69833449       1.59537218       1.32813390
H       -1.66283176      -1.47923431      -0.58293907
H       -2.57430308      -0.02851494      -1.06036002
H       -2.47594800      -0.50564922       0.66072646
