19
Frame=0 idx=011011 GeodesicLength=0.0 rxn_smarts="[C:1]([C@@:2]1([H:11])[C:3]([H:12])([H:13])[O:4][C@:5]([C:6]([H:15])([H:16])[H:17])([H:14])[C:7]1([H:18])[H:19])([H:8])([H:9])[H:10]>>[C:1]([C:2]([C:3](=[O:4])[H:13])([H:11])[H:12])([H:8])([H:9])[H:10].[C:5]([C:6]([H:15])([H:16])[H:17])(=[C:7]([H:18])[H:19])[H:14]"
C       -2.37435766       0.42067149      -0.00039337
C       -1.21791055      -0.50354922       0.21689114
C       -0.43715290      -1.07262917      -0.86462212
O        0.62652231      -1.72334955      -0.60742128
C        1.56573236      -0.00486949       0.65115154
C        2.40700907       0.45184031      -0.49667223
C        0.48836272       0.68908734       1.10432660
H       -3.33340211      -0.09182602       0.09585790
H       -2.32249168       0.89806160      -0.97968791
H       -2.35622532       1.20082102       0.76146367
H       -1.21114574      -1.09865072       1.12396585
H       -1.45581639      -1.72012497      -0.81376905
H       -0.53466522      -0.51299005      -1.81599360
H        1.95833462      -0.81766646       1.24856668
H        2.82998640      -0.39261800      -1.03583210
H        3.22839280       1.07522183      -0.12845046
H        1.82255894       1.05629905      -1.19349572
H        0.21083965       1.62559970       0.63052291
H        0.10542865       0.52067135       2.10359157
19
Frame=1 idx=011011 GeodesicLength=0.06565201564493629 rxn_smarts="[C:1]([C@@:2]1([H:11])[C:3]([H:12])([H:13])[O:4][C@:5]([C:6]([H:15])([H:16])[H:17])([H:14])[C:7]1([H:18])[H:19])([H:8])([H:9])[H:10]>>[C:1]([C:2]([C:3](=[O:4])[H:13])([H:11])[H:12])([H:8])([H:9])[H:10].[C:5]([C:6]([H:15])([H:16])[H:17])(=[C:7]([H:18])[H:19])[H:14]"
C       -2.37516999       0.41951388      -0.00491773
C       -1.22134706      -0.50885661       0.21527206
C       -0.44873506      -1.08321019      -0.87336048
O        0.63059362      -1.71201231      -0.61853335
C        1.55925107      -0.01471179       0.63827424
C        2.41689752       0.46202681      -0.48944059
C        0.48540673       0.68571007       1.10064345
H       -3.33539665      -0.08692514       0.10954906
H       -2.33510638       0.88352889      -0.99129327
H       -2.34725213       1.21383015       0.74177788
H       -1.21229217      -1.09801952       1.12632996
H       -1.47423728      -1.73748648      -0.78433298
H       -0.56126087      -0.53719424      -1.83053512
H        1.95337595      -0.82516285       1.23885469
H        2.83558188      -0.37336399      -1.04631353
H        3.24257558       1.06563826      -0.09905354
H        1.84561069       1.08839898      -1.17776193
H        0.22150827       1.63134981       0.63663595
H        0.11999627       0.52694627       2.10820524
19
Frame=2 idx=011011 GeodesicLength=0.13120452700664073 rxn_smarts="[C:1]([C@@:2]1([H:11])[C:3]([H:12])([H:13])[O:4][C@:5]([C:6]([H:15])([H:16])[H:17])([H:14])[C:7]1([H:18])[H:19])([H:8])([H:9])[H:10]>>[C:1]([C:2]([C:3](=[O:4])[H:13])([H:11])[H:12])([H:8])([H:9])[H:10].[C:5]([C:6]([H:15])([H:16])[H:17])(=[C:7]([H:18])[H:19])[H:14]"
C       -2.37628968       0.41791758      -0.00918710
C       -1.22485124      -0.51433623       0.21368643
C       -0.46067093      -1.09385996      -0.88222534
O        0.63434033      -1.69995824      -0.63084253
C        1.55263775      -0.02399763       0.62484710
C        2.42732333       0.47202173      -0.48163893
C        0.48230093       0.68288675       1.09626671
H       -3.33732712      -0.08233739       0.12387217
H       -2.34865831       0.86838656      -1.00237152
H       -2.33850291       1.22619360       0.72185500
H       -1.21297780      -1.09736194       1.12878718
H       -1.49222486      -1.75436319      -0.75464651
H       -0.58853427      -0.56148070      -1.84472193
H        1.94732987      -0.83260498       1.22857467
H        2.84145463      -0.35380370      -1.05640753
H        3.25721453       1.05438416      -0.06901217
H        1.87019159       1.12093212      -1.16060276
H        0.23216335       1.63719812       0.64179260
H        0.13508081       0.53418334       2.11197447
19
Frame=3 idx=011011 GeodesicLength=0.1965171398964597 rxn_smarts="[C:1]([C@@:2]1([H:11])[C:3]([H:12])([H:13])[O:4][C@:5]([C:6]([H:15])([H:16])[H:17])([H:14])[C:7]1([H:18])[H:19])([H:8])([H:9])[H:10]>>[C:1]([C:2]([C:3](=[O:4])[H:13])([H:11])[H:12])([H:8])([H:9])[H:10].[C:5]([C:6]([H:15])([H:16])[H:17])(=[C:7]([H:18])[H:19])[H:14]"
C       -2.37763527       0.41594495      -0.01326581
C       -1.22839580      -0.51998060       0.21214134
C       -0.47287956      -1.10460541      -0.89114365
O        0.63776196      -1.68722420      -0.64420536
C        1.54591600      -0.03269698       0.61090805
C        2.43813018       0.48181426      -0.47333555
C        0.47905275       0.68057382       1.09131417
H       -3.33913434      -0.07797395       0.13855542
H       -2.36287892       0.85280389      -1.01291101
H       -2.33000233       1.23787795       0.70172193
H       -1.21325438      -1.09666680       1.13133664
H       -1.50973300      -1.77074391      -0.72473441
H       -0.61634264      -0.58590750      -1.85849531
H        1.94031547      -0.83994702       1.21772702
H        2.84753242      -0.33390157      -1.06613924
H        3.27205121       1.04157500      -0.03859637
H        1.89600809       1.15368556      -1.14201145
H        0.24279653       1.64314472       0.64618055
H        0.15069163       0.54222779       2.11495303
19
Frame=4 idx=011011 GeodesicLength=0.2614519160713602 rxn_smarts="[C:1]([C@@:2]1([H:11])[C:3]([H:12])([H:13])[O:4][C@:5]([C:6]([H:15])([H:16])[H:17])([H:14])[C:7]1([H:18])[H:19])([H:8])([H:9])[H:10]>>[C:1]([C:2]([C:3](=[O:4])[H:13])([H:11])[H:12])([H:8])([H:9])[H:10].[C:5]([C:6]([H:15])([H:16])[H:17])(=[C:7]([H:18])[H:19])[H:14]"
C       -2.37911959       0.41365818      -0.01721420
C       -1.23195483      -0.52578758       0.21064661
C       -0.48527484      -1.11547221      -0.90004129
O        0.64084935      -1.67385005      -0.65846132
C        1.53910330      -0.04078519       0.59650999
C        2.44916111       0.49138957      -0.46461567
C        0.47566598       0.67872060       1.08591767
H       -3.34076550      -0.07375710       0.15330462
H       -2.37746966       0.83697026      -1.02290085
H       -2.32177604       1.24884339       0.68144044
H       -1.21317827      -1.09593143       1.13397807
H       -1.52673575      -1.78660102      -0.69463944
H       -0.64451031      -0.61050860      -1.87178661
H        1.93245635      -0.84714285       1.20632844
H        2.85375614      -0.31363976      -1.07552925
H        3.28682437       1.02737173      -0.00810574
H        1.92275145       1.18640912      -1.12203522
H        0.25339475       1.64918605       0.64999720
H        0.16682198       0.55092689       2.11720657
19
Frame=5 idx=011011 GeodesicLength=0.32587118884757416 rxn_smarts="[C:1]([C@@:2]1([H:11])[C:3]([H:12])([H:13])[O:4][C@:5]([C:6]([H:15])([H:16])[H:17])([H:14])[C:7]1([H:18])[H:19])([H:8])([H:9])[H:10]>>[C:1]([C:2]([C:3](=[O:4])[H:13])([H:11])[H:12])([H:8])([H:9])[H:10].[C:5]([C:6]([H:15])([H:16])[H:17])(=[C:7]([H:18])[H:19])[H:14]"
C       -2.38064801       0.41114756      -0.02111850
C       -1.23550366      -0.53174430       0.20921429
C       -0.49774677      -1.12649768      -0.90883329
O        0.64363776      -1.65994100      -0.67343714
C        1.53223809      -0.04825229       0.58170557
C        2.46019958       0.50074789      -0.45557712
C        0.47215381       0.67726508       1.08022912
H       -3.34218273      -0.06957280       0.16783858
H       -2.39213692       0.82108920      -1.03240169
H       -2.31380710       1.25910847       0.66102830
H       -1.21282669      -1.09514342       1.13672800
H       -1.54320571      -1.80191613      -0.66440494
H       -0.67280202      -0.63529200      -1.88452566
H        1.92393934      -0.85414364       1.19440145
H        2.86003466      -0.29301010      -1.08455882
H        3.30124817       1.01198258       0.02213553
H        1.94994720       1.21884023      -1.10076019
H        0.26396590       1.65528998       0.65349481
H        0.18349509       0.56004238       2.11884168
19
Frame=6 idx=011011 GeodesicLength=0.38966317686713636 rxn_smarts="[C:1]([C@@:2]1([H:11])[C:3]([H:12])([H:13])[O:4][C@:5]([C:6]([H:15])([H:16])[H:17])([H:14])[C:7]1([H:18])[H:19])([H:8])([H:9])[H:10]>>[C:1]([C:2]([C:3](=[O:4])[H:13])([H:11])[H:12])([H:8])([H:9])[H:10].[C:5]([C:6]([H:15])([H:16])[H:17])(=[C:7]([H:18])[H:19])[H:14]"
C       -2.38210494       0.40847052      -0.02502989
C       -1.23902302      -0.53787101       0.20786044
C       -0.51020578      -1.13770993      -0.91743626
O        0.64607357      -1.64553689      -0.68890948
C        1.52530861      -0.05507957       0.56658942
C        2.47109556       0.50987614      -0.44635533
C        0.46850336       0.67612825       1.07442601
H       -3.34334264      -0.06537415       0.18175088
H       -2.40644625       0.80542709      -1.04137980
H       -2.30612974       1.26858900       0.64066197
H       -1.21227818      -1.09432846       1.13958152
H       -1.55919481      -1.81662434      -0.63409894
H       -0.70097034      -0.66025505      -1.89662063
H        1.91489560      -0.86090002       1.18199602
H        2.86634156      -0.27203595      -1.09324465
H        3.31507024       0.99570444       0.05173614
H        1.97727176       1.25064485      -1.07839204
H        0.27448153       1.66144938       0.65691330
H        0.20065391       0.56942570       2.11995131
19
Frame=7 idx=011011 GeodesicLength=0.45256388452209967 rxn_smarts="[C:1]([C@@:2]1([H:11])[C:3]([H:12])([H:13])[O:4][C@:5]([C:6]([H:15])([H:16])[H:17])([H:14])[C:7]1([H:18])[H:19])([H:8])([H:9])[H:10]>>[C:1]([C:2]([C:3](=[O:4])[H:13])([H:11])[H:12])([H:8])([H:9])[H:10].[C:5]([C:6]([H:15])([H:16])[H:17])(=[C:7]([H:18])[H:19])[H:14]"
C       -2.38323648       0.40588054      -0.02915265
C       -1.24241757      -0.54410154       0.20659315
C       -0.52238348      -1.14918912      -0.92571350
O        0.64828165      -1.63111282      -0.70426239
C        1.51846535      -0.06142228       0.55136131
C        2.48128821       0.51878703      -0.43722839
C        0.46481934       0.67510838       1.06881572
H       -3.34414962      -0.06085690       0.19448942
H       -2.41972247       0.79042620      -1.05004561
H       -2.29856450       1.27744782       0.62036925
H       -1.21172404      -1.09344910       1.14253901
H       -1.57465694      -1.83073803      -0.60390158
H       -0.72850531      -0.68540674      -1.90803269
H        1.90579353      -0.86728267       1.16929220
H        2.87215221      -0.25085662      -1.10175192
H        3.32764816       0.97926873       0.08026388
H        2.00359464       1.28151143      -1.05550425
H        0.28505521       1.66752559       0.66092950
H        0.21826210       0.57846009       2.12093955
19
Frame=8 idx=011011 GeodesicLength=0.5148146232608909 rxn_smarts="[C:1]([C@@:2]1([H:11])[C:3]([H:12])([H:13])[O:4][C@:5]([C:6]([H:15])([H:16])[H:17])([H:14])[C:7]1([H:18])[H:19])([H:8])([H:9])[H:10]>>[C:1]([C:2]([C:3](=[O:4])[H:13])([H:11])[H:12])([H:8])([H:9])[H:10].[C:5]([C:6]([H:15])([H:16])[H:17])(=[C:7]([H:18])[H:19])[H:14]"
C       -2.38430766       0.40306627      -0.03327277
C       -1.24579082      -0.55050118       0.20543151
C       -0.53454260      -1.16081047      -0.93373823
O        0.65004565      -1.61604702      -0.72015785
C        1.51148568      -0.06704589       0.53584833
C        2.49139967       0.52746971      -0.42791906
C        0.46096665       0.67441622       1.06316640
H       -3.34474090      -0.05644304       0.20657556
H       -2.43263579       0.77559014      -1.05823264
H       -2.29130711       1.28546897       0.60018497
H       -1.21096349      -1.09252831       1.14560448
H       -1.58975247      -1.84415870      -0.57366964
H       -0.75585311      -0.71063396      -1.91871097
H        1.89617249      -0.87344405       1.15610452
H        2.87813510      -0.22929962      -1.10980336
H        3.33972317       0.96194567       0.10798346
H        2.03008321       1.31154812      -1.03151957
H        0.29552504       1.67362274       0.66480888
H        0.23635728       0.58778441       2.12131597
19
Frame=9 idx=011011 GeodesicLength=0.5762657653798313 rxn_smarts="[C:1]([C@@:2]1([H:11])[C:3]([H:12])([H:13])[O:4][C@:5]([C:6]([H:15])([H:16])[H:17])([H:14])[C:7]1([H:18])[H:19])([H:8])([H:9])[H:10]>>[C:1]([C:2]([C:3](=[O:4])[H:13])([H:11])[H:12])([H:8])([H:9])[H:10].[C:5]([C:6]([H:15])([H:16])[H:17])(=[C:7]([H:18])[H:19])[H:14]"
C       -2.38495418       0.40040983      -0.03767149
C       -1.24903639      -0.55702461       0.20435959
C       -0.54632711      -1.17271779      -0.94138365
O        0.65163734      -1.60106013      -0.73570899
C        1.50462197      -0.07225274       0.52036465
C        2.50061505       0.53591935      -0.41885801
C        0.45711229       0.67372301       1.05790721
H       -3.34500185      -0.05168614       0.21718434
H       -2.44417166       0.76167110      -1.06622623
H       -2.28412248       1.29289781       0.58024388
H       -1.21028085      -1.09158093       1.14878067
H       -1.60444013      -1.85694608      -0.54354359
H       -0.78228996      -0.73595382      -1.92866701
H        1.88666699      -0.87917829       1.14268731
H        2.88350118      -0.20765574      -1.11768233
H        3.35041326       0.94484926       0.13437309
H        2.05512516       1.34044545      -1.00734792
H        0.30605955       1.67956418       0.66950654
H        0.25487182       0.59657626       2.12168196
19
Frame=10 idx=011011 GeodesicLength=0.6370205660207569 rxn_smarts="[C:1]([C@@:2]1([H:11])[C:3]([H:12])([H:13])[O:4][C@:5]([C:6]([H:15])([H:16])[H:17])([H:14])[C:7]1([H:18])[H:19])([H:8])([H:9])[H:10]>>[C:1]([C:2]([C:3](=[O:4])[H:13])([H:11])[H:12])([H:8])([H:9])[H:10].[C:5]([C:6]([H:15])([H:16])[H:17])(=[C:7]([H:18])[H:19])[H:14]"
C       -2.38536517       0.39773372      -0.04222137
C       -1.25221295      -0.56365199       0.20341262
C       -0.55787505      -1.18483132      -0.94866594
O        0.65288921      -1.58582953      -0.75134236
C        1.49773454      -0.07687801       0.50472373
C        2.50936144       0.54418756      -0.40986011
C        0.45317041       0.67320234       1.05287035
H       -3.34503300      -0.04680399       0.22682464
H       -2.45488884       0.74819944      -1.07399990
H       -2.27706893       1.29972568       0.56040398
H       -1.20958262      -1.09055175       1.15208185
H       -1.61880669      -1.86907929      -0.51349809
H       -0.80812009      -0.76133114      -1.93790300
H        1.87704250      -0.88463752       1.12893122
H        2.88875861      -0.18574780      -1.12519416
H        3.36020378       0.92749567       0.15961964
H        2.07942976       1.36829721      -0.98260742
H        0.31655781       1.68539407       0.67464108
H        0.27380529       0.60510666       2.12178325
19
Frame=11 idx=011011 GeodesicLength=0.6972350371210365 rxn_smarts="[C:1]([C@@:2]1([H:11])[C:3]([H:12])([H:13])[O:4][C@:5]([C:6]([H:15])([H:16])[H:17])([H:14])[C:7]1([H:18])[H:19])([H:8])([H:9])[H:10]>>[C:1]([C:2]([C:3](=[O:4])[H:13])([H:11])[H:12])([H:8])([H:9])[H:10].[C:5]([C:6]([H:15])([H:16])[H:17])(=[C:7]([H:18])[H:19])[H:14]"
C       -2.38562201       0.39498356      -0.04686771
C       -1.25531891      -0.57039035       0.20257172
C       -0.56920996      -1.19708728      -0.95565763
O        0.65381579      -1.57016422      -0.76719533
C        1.49083093      -0.08095277       0.48897830
C        2.51776084       0.55223328      -0.40083954
C        0.44916471       0.67286687       1.04802181
H       -3.34486594      -0.04190158       0.23572687
H       -2.46503649       0.73504548      -1.08154443
H       -2.27018327       1.30597614       0.54065360
H       -1.20878161      -1.08947991       1.15547954
H       -1.63284647      -1.88058409      -0.48348351
H       -0.83345936      -0.78671626      -1.94648017
H        1.86716192      -0.88985229       1.11481673
H        2.89393460      -0.16363784      -1.13231946
H        3.36924780       0.90978216       0.18393368
H        2.10327335       1.39519406      -0.95727539
H        0.32700836       1.69113113       0.67997681
H        0.29312571       0.61355390       2.12150410
19
Frame=12 idx=011011 GeodesicLength=0.7570378554973227 rxn_smarts="[C:1]([C@@:2]1([H:11])[C:3]([H:12])([H:13])[O:4][C@:5]([C:6]([H:15])([H:16])[H:17])([H:14])[C:7]1([H:18])[H:19])([H:8])([H:9])[H:10]>>[C:1]([C:2]([C:3](=[O:4])[H:13])([H:11])[H:12])([H:8])([H:9])[H:10].[C:5]([C:6]([H:15])([H:16])[H:17])(=[C:7]([H:18])[H:19])[H:14]"
C       -2.38577340       0.39213452      -0.05160424
C       -1.25835106      -0.57720372       0.20183047
C       -0.58033994      -1.20946145      -0.96238987
O        0.65441188      -1.55398609      -0.78338472
C        1.48391787      -0.08447430       0.47307797
C        2.52589685       0.56006981      -0.39175197
C        0.44510811       0.67277199       1.04332230
H       -3.34450943      -0.03699428       0.24414359
H       -2.47485394       0.72199168      -1.08893652
H       -2.26341794       1.31176088       0.52083587
H       -1.20784645      -1.08831397       1.15897437
H       -1.64654839      -1.89150725      -0.45344500
H       -0.85844012      -0.81217742      -1.95446242
H        1.85698385      -0.89487012       1.10030419
H        2.89906958      -0.14127259      -1.13907350
H        3.37768502       0.89155045       0.20745812
H        2.12681261       1.42127157      -0.93121371
H        0.33740320       1.69679363       0.68546515
H        0.31279171       0.62191667       2.12084991
19
Frame=13 idx=011011 GeodesicLength=0.8165584763099338 rxn_smarts="[C:1]([C@@:2]1([H:11])[C:3]([H:12])([H:13])[O:4][C@:5]([C:6]([H:15])([H:16])[H:17])([H:14])[C:7]1([H:18])[H:19])([H:8])([H:9])[H:10]>>[C:1]([C:2]([C:3](=[O:4])[H:13])([H:11])[H:12])([H:8])([H:9])[H:10].[C:5]([C:6]([H:15])([H:16])[H:17])(=[C:7]([H:18])[H:19])[H:14]"
C       -2.38592119       0.38907598      -0.05631994
C       -1.26129321      -0.58408938       0.20117673
C       -0.59132451      -1.22187822      -0.96895190
O        0.65463131      -1.53703749      -0.80017612
C        1.47696875      -0.08740722       0.45694417
C        2.53396690       0.56765627      -0.38242307
C        0.44103082       0.67302734       1.03858221
H       -3.34399203      -0.03223148       0.25240458
H       -2.48467901       0.70880316      -1.09608668
H       -2.25681621       1.31703465       0.50094477
H       -1.20663246      -1.08704171       1.16253311
H       -1.65989200      -1.90188340      -0.42331582
H       -0.88333193      -0.83773482      -1.96192252
H        1.84624636      -0.89973026       1.08527965
H        2.90431210      -0.11864785      -1.14536323
H        3.38565164       0.87252354       0.23055731
H        2.15053069       1.44665079      -0.90416268
H        0.34774329       1.70242447       0.69070964
H        0.33280068       0.63048563       2.11958980
19
Frame=14 idx=011011 GeodesicLength=0.8755525487666598 rxn_smarts="[C:1]([C@@:2]1([H:11])[C:3]([H:12])([H:13])[O:4][C@:5]([C:6]([H:15])([H:16])[H:17])([H:14])[C:7]1([H:18])[H:19])([H:8])([H:9])[H:10]>>[C:1]([C:2]([C:3](=[O:4])[H:13])([H:11])[H:12])([H:8])([H:9])[H:10].[C:5]([C:6]([H:15])([H:16])[H:17])(=[C:7]([H:18])[H:19])[H:14]"
C       -2.38578977       0.38602738      -0.06124732
C       -1.26414203      -0.59102969       0.20063023
C       -0.60198823      -1.23443681      -0.97513465
O        0.65450697      -1.51977045      -0.81696213
C        1.47002405      -0.08984749       0.44078240
C        2.54150486       0.57506953      -0.37320940
C        0.43693918       0.67336255       1.03423801
H       -3.34321296      -0.02731306       0.25985166
H       -2.49375732       0.69591316      -1.10320681
H       -2.25016074       1.32190659       0.48097744
H       -1.20543437      -1.08567059       1.16617153
H       -1.67301264      -1.91162130      -0.39322404
H       -0.90755476      -0.86333181      -1.96870070
H        1.83547888      -0.90433379       1.06993379
H        2.90929743      -0.09582581      -1.15130413
H        3.39277238       0.85347798       0.25250632
H        2.17333713       1.47098444      -0.87677587
H        0.35806424       1.70786055       0.69651928
H        0.35312771       0.63857861       2.11815440
19
Frame=15 idx=011011 GeodesicLength=0.9342735197719517 rxn_smarts="[C:1]([C@@:2]1([H:11])[C:3]([H:12])([H:13])[O:4][C@:5]([C:6]([H:15])([H:16])[H:17])([H:14])[C:7]1([H:18])[H:19])([H:8])([H:9])[H:10]>>[C:1]([C:2]([C:3](=[O:4])[H:13])([H:11])[H:12])([H:8])([H:9])[H:10].[C:5]([C:6]([H:15])([H:16])[H:17])(=[C:7]([H:18])[H:19])[H:14]"
C       -2.38559590       0.38284038      -0.06620842
C       -1.26689381      -0.59803420       0.20018978
C       -0.61239739      -1.24704127      -0.98109494
O        0.65400639      -1.50180104      -0.83418056
C        1.46305925      -0.09173348       0.42448128
C        2.54886432       0.58224194      -0.36388549
C        0.43283137       0.67396774       1.03002545
H       -3.34228221      -0.02246988       0.26695350
H       -2.50261844       0.68304884      -1.11016127
H       -2.24364546       1.32631240       0.46099373
H       -1.20403609      -1.08420718       1.16989059
H       -1.68582160      -1.92079766      -0.36307621
H       -0.93148869      -0.88900034      -1.97494075
H        1.82432429      -0.90876819       1.05415328
H        2.91434946      -0.07282314      -1.15679451
H        3.39934295       0.83392292       0.27380514
H        2.19599732       1.49445972      -0.84871467
H        0.36829680       1.71322185       0.70229512
H        0.37370744       0.64666058       2.11626895
19
Frame=16 idx=011011 GeodesicLength=0.9927861631472705 rxn_smarts="[C:1]([C@@:2]1([H:11])[C:3]([H:12])([H:13])[O:4][C@:5]([C:6]([H:15])([H:16])[H:17])([H:14])[C:7]1([H:18])[H:19])([H:8])([H:9])[H:10]>>[C:1]([C:2]([C:3](=[O:4])[H:13])([H:11])[H:12])([H:8])([H:9])[H:10].[C:5]([C:6]([H:15])([H:16])[H:17])(=[C:7]([H:18])[H:19])[H:14]"
C       -2.38537784       0.37946643      -0.07119499
C       -1.26954108      -0.60507936       0.19983907
C       -0.62256947      -1.25965930      -0.98685293
O        0.65309283      -1.48297143      -0.85196724
C        1.45606164      -0.09303564       0.40799491
C        2.55613516       0.58917208      -0.35437110
C        0.42871433       0.67489533       1.02589111
H       -3.34116753      -0.01772154       0.27396538
H       -2.51151235       0.66995998      -1.11697448
H       -2.23721763       1.33031158       0.44079841
H       -1.20239105      -1.08261330       1.17366683
H       -1.69828890      -1.92944214      -0.33281310
H       -0.95527342      -0.91482071      -1.98065161
H        1.81268072      -0.91305567       1.03786141
H        2.91946575      -0.04955341      -1.16183956
H        3.40549367       0.81362431       0.29457702
H        2.21874046       1.51719830      -0.81974313
H        0.37843916       1.71854470       0.70794145
H        0.39451555       0.65477977       2.11387255
