15
Frame=0 idx=009919 GeodesicLength=0.0 rxn_smarts="[N:1]([C@@:2]([C:3]([C:4]([O:5][H:15])([H:13])[H:14])([H:11])[H:12])([C:6]#[N:7])[H:10])([H:8])[H:9]>>[C:2](=[C:3](/[C:4]([O:5][H:15])([H:13])[H:14])[H:11])(\[C:6]#[N:7])[H:10].[N:1]([H:8])([H:9])[H:12]"
N       -1.21334260      -0.86229461       0.50458788
C       -0.72623207       0.55045853       0.17580245
C        0.25948188       0.20300069      -0.91551410
C        1.62891626      -0.02349122      -0.35799346
O        1.54557968      -1.06677179       0.64445547
C       -1.86467189       1.34510918      -0.27176704
N       -2.76604568       1.96212158      -0.62306924
H       -0.57492489      -1.27076861       1.18669239
H       -2.19217774      -0.99255993       0.75267699
H       -0.32919835       0.98974524       1.09887595
H        0.24916549       0.87870857      -1.76659641
H       -0.77650157      -1.13581961      -0.51485315
H        2.06957381       0.86048724       0.13768278
H        2.30808572      -0.32793772      -1.16068718
H        2.38229191      -1.10998748       1.10970667
15
Frame=1 idx=009919 GeodesicLength=0.11792766998163387 rxn_smarts="[N:1]([C@@:2]([C:3]([C:4]([O:5][H:15])([H:13])[H:14])([H:11])[H:12])([C:6]#[N:7])[H:10])([H:8])[H:9]>>[C:2](=[C:3](/[C:4]([O:5][H:15])([H:13])[H:14])[H:11])(\[C:6]#[N:7])[H:10].[N:1]([H:8])([H:9])[H:12]"
N       -1.23484900      -0.88589043       0.50643640
C       -0.72885196       0.54720930       0.17190755
C        0.25746876       0.19729753      -0.91104235
C        1.63181907      -0.01495550      -0.35911208
O        1.56053070      -1.04506812       0.65468294
C       -1.84969570       1.36686088      -0.27197300
N       -2.73232944       2.00873900      -0.62651508
H       -0.59627151      -1.29900960       1.18500257
H       -2.21100524      -1.00672252       0.76737722
H       -0.33801806       0.95742585       1.11027913
H        0.24266766       0.86067086      -1.77199708
H       -0.77787323      -1.16084303      -0.52360960
H        2.06751515       0.88054839       0.11892066
H        2.30737377      -0.32484156      -1.16299757
H        2.40151904      -1.08142106       1.11264028
15
Frame=2 idx=009919 GeodesicLength=0.23575977862087133 rxn_smarts="[N:1]([C@@:2]([C:3]([C:4]([O:5][H:15])([H:13])[H:14])([H:11])[H:12])([C:6]#[N:7])[H:10])([H:8])[H:9]>>[C:2](=[C:3](/[C:4]([O:5][H:15])([H:13])[H:14])[H:11])(\[C:6]#[N:7])[H:10].[N:1]([H:8])([H:9])[H:12]"
N       -1.25696053      -0.90986488       0.50803682
C       -0.73143121       0.54415673       0.16791998
C        0.25545074       0.19136947      -0.90658439
C        1.63462978      -0.00616110      -0.36024612
O        1.57534933      -1.02265213       0.66495065
C       -1.83376075       1.38910535      -0.27188772
N       -2.69714937       2.05542482      -0.62895744
H       -0.61813175      -1.32750130       1.18301721
H       -2.22999814      -1.02132437       0.78248282
H       -0.34734988       0.92477203       1.12090534
H        0.23608784       0.84198975      -1.77745918
H       -0.77886028      -1.18634892      -0.53252900
H        2.06491951       0.90075180       0.09981242
H        2.30671667      -0.32168366      -1.16506666
H        2.42048805      -1.05203358       1.11560527
15
Frame=3 idx=009919 GeodesicLength=0.3535322608150898 rxn_smarts="[N:1]([C@@:2]([C:3]([C:4]([O:5][H:15])([H:13])[H:14])([H:11])[H:12])([C:6]#[N:7])[H:10])([H:8])[H:9]>>[C:2](=[C:3](/[C:4]([O:5][H:15])([H:13])[H:14])[H:11])(\[C:6]#[N:7])[H:10].[N:1]([H:8])([H:9])[H:12]"
N       -1.27972570      -0.93423799       0.50938381
C       -0.73396307       0.54131047       0.16385784
C        0.25341869       0.18520378      -0.90212793
C        1.63733804       0.00289443      -0.36141132
O        1.59005452      -0.99946455       0.67527631
C       -1.81676910       1.41191091      -0.27146928
N       -2.66047775       2.10214014      -0.63040666
H       -0.64056089      -1.35625454       1.18074386
H       -2.24918294      -1.03639316       0.79794952
H       -0.35722511       0.89176572       1.13073896
H        0.22941774       0.82265917      -1.78292342
H       -0.77943193      -1.21236882      -0.54158333
H        2.06178393       0.92109323       0.08029335
H        2.30609038      -0.31849337      -1.16690973
H        2.43923319      -1.02176543       1.11858801
15
Frame=4 idx=009919 GeodesicLength=0.47127848146933554 rxn_smarts="[N:1]([C@@:2]([C:3]([C:4]([O:5][H:15])([H:13])[H:14])([H:11])[H:12])([C:6]#[N:7])[H:10])([H:8])[H:9]>>[C:2](=[C:3](/[C:4]([O:5][H:15])([H:13])[H:14])[H:11])(\[C:6]#[N:7])[H:10].[N:1]([H:8])([H:9])[H:12]"
N       -1.30319891      -0.95904755       0.51046624
C       -0.73645528       0.53866592       0.15972530
C        0.25135682       0.17877236      -0.89766593
C        1.63992601       0.01221371      -0.36262786
O        1.60465863      -0.97540903       0.68569048
C       -1.79860071       1.43530866      -0.27066048
N       -2.62219448       2.14891663      -0.63082792
H       -0.66361838      -1.38528853       1.17818894
H       -2.26859300      -1.05198800       0.81370882
H       -0.36769076       0.85837883       1.13975386
H        0.22263138       0.80266333      -1.78833075
H       -0.77954974      -1.23895886      -0.55073802
H        2.05808585       0.94157667       0.06026298
H        2.30546939      -0.31530730      -1.16853585
H        2.45777316      -0.99049683       1.12159020
15
Frame=5 idx=009919 GeodesicLength=0.5890344027153124 rxn_smarts="[N:1]([C@@:2]([C:3]([C:4]([O:5][H:15])([H:13])[H:14])([H:11])[H:12])([C:6]#[N:7])[H:10])([H:8])[H:9]>>[C:2](=[C:3](/[C:4]([O:5][H:15])([H:13])[H:14])[H:11])(\[C:6]#[N:7])[H:10].[N:1]([H:8])([H:9])[H:12]"
N       -1.32743035      -0.98430526       0.51127906
C       -0.73889864       0.53624667       0.15554243
C        0.24926009       0.17207414      -0.89317935
C        1.64238475       0.02179471      -0.36391688
O        1.61916656      -0.95040557       0.69622567
C       -1.77911186       1.45939758      -0.26937656
N       -2.58233681       2.19563584      -0.63025382
H       -0.68735801      -1.41461076       1.17535796
H       -2.28826481      -1.06813509       0.82969587
H       -0.37876484       0.82460636       1.14792738
H        0.21573073       0.78202270      -1.79361073
H       -0.77918102      -1.26613725      -0.55996363
H        2.05383935       0.96218698       0.03964334
H        2.30482432      -0.31217699      -1.16996122
H        2.47614054      -0.95819407       1.12459048
15
Frame=6 idx=009919 GeodesicLength=0.7068251098904657 rxn_smarts="[N:1]([C@@:2]([C:3]([C:4]([O:5][H:15])([H:13])[H:14])([H:11])[H:12])([C:6]#[N:7])[H:10])([H:8])[H:9]>>[C:2](=[C:3](/[C:4]([O:5][H:15])([H:13])[H:14])[H:11])(\[C:6]#[N:7])[H:10].[N:1]([H:8])([H:9])[H:12]"
N       -1.35247921      -1.01006205       0.51180507
C       -0.74130922       0.53403924       0.15130511
C        0.24711043       0.16507149      -0.88865901
C        1.64469442       0.03163755      -0.36530084
O        1.63357696      -0.92431214       0.70692136
C       -1.75818148       1.48414817      -0.26756207
N       -2.54069803       2.24238775      -0.62858250
H       -0.71184561      -1.44424077       1.17226168
H       -2.30825121      -1.08492283       0.84580435
H       -0.39050559       0.79042545       1.15521955
H        0.20867648       0.76073578      -1.79870749
H       -0.77826401      -1.29398814      -0.56920611
H        2.04901282       0.98292692       0.01829039
H        2.30412750      -0.30916829      -1.17118246
H        2.49433575      -0.92467815       1.12759298
15
Frame=7 idx=009919 GeodesicLength=0.8246814579654118 rxn_smarts="[N:1]([C@@:2]([C:3]([C:4]([O:5][H:15])([H:13])[H:14])([H:11])[H:12])([C:6]#[N:7])[H:10])([H:8])[H:9]>>[C:2](=[C:3](/[C:4]([O:5][H:15])([H:13])[H:14])[H:11])(\[C:6]#[N:7])[H:10].[N:1]([H:8])([H:9])[H:12]"
N       -1.37840015      -1.03633991       0.51203290
C       -0.74367910       0.53206509       0.14703479
C        0.24490097       0.15775888      -0.88407894
C        1.64684585       0.04173753      -0.36680318
O        1.64788262      -0.89700956       0.71781723
C       -1.73565731       1.50962416      -0.26510130
N       -2.49726810       2.28908081      -0.62583046
H       -0.73714023      -1.47419314       1.16890200
H       -2.32860663      -1.10239442       0.86194512
H       -0.40293857       0.75582743       1.16160298
H        0.20145909       0.73884564      -1.80356239
H       -0.77674739      -1.32254641      -0.57841594
H        2.04362551       1.00377272      -0.00391156
H        2.30334794      -0.30635410      -1.17220711
H        2.51237549      -0.88987471       1.13057587
15
Frame=8 idx=009919 GeodesicLength=0.9425958510814281 rxn_smarts="[N:1]([C@@:2]([C:3]([C:4]([O:5][H:15])([H:13])[H:14])([H:11])[H:12])([C:6]#[N:7])[H:10])([H:8])[H:9]>>[C:2](=[C:3](/[C:4]([O:5][H:15])([H:13])[H:14])[H:11])(\[C:6]#[N:7])[H:10].[N:1]([H:8])([H:9])[H:12]"
N       -1.40524937      -1.06317414       0.51193514
C       -0.74601521       0.53032960       0.14273575
C        0.24261980       0.15011892      -0.87942031
C        1.64882362       0.05209883      -0.36845438
O        1.66206307      -0.86832701       0.72895405
C       -1.71140486       1.53578318      -0.26189072
N       -2.45189088       2.33572726      -0.62191706
H       -0.76330609      -1.50447932       1.16527908
H       -2.34939849      -1.12062684       0.87800434
H       -0.41611544       0.72080613       1.16702683
H        0.19404616       0.71637776      -1.80811417
H       -0.77456585      -1.35187491      -0.58752723
H        2.03768077       1.02469630      -0.02711961
H        2.30245841      -0.30382939      -1.17301388
H        2.53025437      -0.85362638       1.13352217
15
Frame=9 idx=009919 GeodesicLength=1.0604116006827073 rxn_smarts="[N:1]([C@@:2]([C:3]([C:4]([O:5][H:15])([H:13])[H:14])([H:11])[H:12])([C:6]#[N:7])[H:10])([H:8])[H:9]>>[C:2](=[C:3](/[C:4]([O:5][H:15])([H:13])[H:14])[H:11])(\[C:6]#[N:7])[H:10].[N:1]([H:8])([H:9])[H:12]"
N       -1.43307592      -1.09041167       0.51145800
C       -0.74817154       0.52904665       0.13849387
C        0.24032428       0.14228361      -0.87460345
C        1.65069131       0.06267602      -0.37027447
O        1.67609083      -0.83833005       0.74020973
C       -1.68547492       1.56257010      -0.25786587
N       -2.40507203       2.38175242      -0.61709536
H       -0.79044284      -1.53494987       1.16138534
H       -2.37075084      -1.13950830       0.89394016
H       -0.42980040       0.68537332       1.17166324
H        0.18647326       0.69357271      -1.81233358
H       -0.77163923      -1.38183811      -0.59640049
H        2.03141000       1.04553495      -0.05130471
H        2.30147593      -0.30164560      -1.17359042
H        2.54796209      -0.81612620       1.13631800
15
Frame=10 idx=009919 GeodesicLength=1.17831575492204 rxn_smarts="[N:1]([C@@:2]([C:3]([C:4]([O:5][H:15])([H:13])[H:14])([H:11])[H:12])([C:6]#[N:7])[H:10])([H:8])[H:9]>>[C:2](=[C:3](/[C:4]([O:5][H:15])([H:13])[H:14])[H:11])(\[C:6]#[N:7])[H:10].[N:1]([H:8])([H:9])[H:12]"
N       -1.46193705      -1.11826035       0.51059276
C       -0.75027243       0.52804969       0.13426765
C        0.23794466       0.13411850      -0.86965501
C        1.65237135       0.07348847      -0.37230060
O        1.68995765      -0.80660989       0.75178476
C       -1.65750742       1.59005254      -0.25285380
N       -2.35620796       2.42762397      -0.61100406
H       -0.81857277      -1.56578065       1.15720739
H       -2.39268569      -1.15925948       0.90954905
H       -0.44430346       0.64948921       1.17525980
H        0.17865826       0.67028309      -1.81612060
H       -0.76789815      -1.41265622      -0.60503178
H        2.02462238       1.06636170      -0.07683713
H        2.30031840      -0.29999597      -1.17390200
H        2.56551223      -0.77690459       1.13904354
15
Frame=11 idx=009919 GeodesicLength=1.296318648747268 rxn_smarts="[N:1]([C@@:2]([C:3]([C:4]([O:5][H:15])([H:13])[H:14])([H:11])[H:12])([C:6]#[N:7])[H:10])([H:8])[H:9]>>[C:2](=[C:3](/[C:4]([O:5][H:15])([H:13])[H:14])[H:11])(\[C:6]#[N:7])[H:10].[N:1]([H:8])([H:9])[H:12]"
N       -1.49187161      -1.14674414       0.50930832
C       -0.75231353       0.52737546       0.13006333
C        0.23547835       0.12563326      -0.86455597
C        1.65385212       0.08451515      -0.37457512
O        1.70362910      -0.77297122       0.76371805
C       -1.62731604       1.61823850      -0.24671863
N       -2.30528470       2.47324469      -0.60356481
H       -0.84773659      -1.59698106       1.15272825
H       -2.41527170      -1.17994060       0.92471819
H       -0.45965274       0.61315031       1.17777357
H        0.17058633       0.64658150      -1.81943952
H       -0.76327475      -1.44435322      -0.61335642
H        2.01734673       1.08711168      -0.10388830
H        2.29895299      -0.29904241      -1.17390840
H        2.58287602      -0.73581790       1.14169746
15
Frame=12 idx=009919 GeodesicLength=1.4144612842897863 rxn_smarts="[N:1]([C@@:2]([C:3]([C:4]([O:5][H:15])([H:13])[H:14])([H:11])[H:12])([C:6]#[N:7])[H:10])([H:8])[H:9]>>[C:2](=[C:3](/[C:4]([O:5][H:15])([H:13])[H:14])[H:11])(\[C:6]#[N:7])[H:10].[N:1]([H:8])([H:9])[H:12]"
N       -1.52292429      -1.17592728       0.50756772
C       -0.75429908       0.52703692       0.12589138
C        0.23290803       0.11682516      -0.85928336
C        1.65511469       0.09573301      -0.37713046
O        1.71705237      -0.73714716       0.77603861
C       -1.59478488       1.64703487      -0.23932982
N       -2.25206687       2.51868822      -0.59464263
H       -0.87797060      -1.62858941       1.14792511
H       -2.43858570      -1.20165669       0.93931414
H       -0.47590627       0.57633866       1.17915554
H        0.16221342       0.62252015      -1.82224119
H       -0.75767044      -1.47699330      -0.62129055
H        2.00957879       1.10771381      -0.13271014
H        2.29734138      -0.29896107      -1.17354126
H        2.59999945      -0.69261589       1.14427691
15
Frame=13 idx=009919 GeodesicLength=1.5327432554698606 rxn_smarts="[N:1]([C@@:2]([C:3]([C:4]([O:5][H:15])([H:13])[H:14])([H:11])[H:12])([C:6]#[N:7])[H:10])([H:8])[H:9]>>[C:2](=[C:3](/[C:4]([O:5][H:15])([H:13])[H:14])[H:11])(\[C:6]#[N:7])[H:10].[N:1]([H:8])([H:9])[H:12]"
N       -1.55512293      -1.20581734       0.50532483
C       -0.75621398       0.52710366       0.12175018
C        0.23023844       0.10772816      -0.85382136
C        1.65615835       0.10711324      -0.38000605
O        1.73016134      -0.69892050       0.78876803
C       -1.55973100       1.67641660      -0.23052844
N       -2.19662277       2.56378964      -0.58413221
H       -0.90929972      -1.66060126       1.14275909
H       -2.46269244      -1.22443938       0.95324538
H       -0.49307664       0.53907753       1.17933870
H        0.15353781       0.59819600      -1.82449579
H       -0.75100462      -1.51057526      -0.62876393
H        2.00138277       1.12805626      -0.16349398
H        2.29545789      -0.29995028      -1.17272786
H        2.61682751      -0.64717707       1.14678340
15
Frame=14 idx=009919 GeodesicLength=1.6511943949190246 rxn_smarts="[N:1]([C@@:2]([C:3]([C:4]([O:5][H:15])([H:13])[H:14])([H:11])[H:12])([C:6]#[N:7])[H:10])([H:8])[H:9]>>[C:2](=[C:3](/[C:4]([O:5][H:15])([H:13])[H:14])[H:11])(\[C:6]#[N:7])[H:10].[N:1]([H:8])([H:9])[H:12]"
N       -1.58849858      -1.23648514       0.50253095
C       -0.75806226       0.52759800       0.11764722
C        0.22744916       0.09835363      -0.84815262
C        1.65696223       0.11862134      -0.38324188
O        1.74286574      -0.65797163       0.80190380
C       -1.52208993       1.70623352      -0.22018634
N       -2.13865548       2.60864608      -0.57183126
H       -0.94173307      -1.69305503       1.13718725
H       -2.48766430      -1.24840773       0.96639612
H       -0.51122201       0.50136813       1.17824834
H        0.14450874       0.57366506      -1.82616967
H       -0.74316834      -1.54515411      -0.63567805
H        1.99278080       1.14800348      -0.19652234
H        2.29327428      -0.30221700      -1.17133711
H        2.63325301      -0.59919863       1.14920558
15
Frame=15 idx=009919 GeodesicLength=1.7698269196570784 rxn_smarts="[N:1]([C@@:2]([C:3]([C:4]([O:5][H:15])([H:13])[H:14])([H:11])[H:12])([C:6]#[N:7])[H:10])([H:8])[H:9]>>[C:2](=[C:3](/[C:4]([O:5][H:15])([H:13])[H:14])[H:11])(\[C:6]#[N:7])[H:10].[N:1]([H:8])([H:9])[H:12]"
N       -1.62306714      -1.26795954       0.49913136
C       -0.75981443       0.52859002       0.11359667
C        0.22454141       0.08874702      -0.84226001
C        1.65752801       0.13021064      -0.38687293
O        1.75506990      -0.61403109       0.81542771
C       -1.48179473       1.73638176      -0.20817796
N       -2.07813224       2.65319020      -0.55756606
H       -0.97526420      -1.72596069       1.13114857
H       -2.51355065      -1.27361147       0.97870248
H       -0.53036617       0.46325222       1.17578799
H        0.13511380       0.54902444      -1.82724408
H       -0.73406598      -1.58072649      -0.64195130
H        1.98385502       1.16738327      -0.23202482
H        2.29077103      -0.30599144      -1.16923488
H        2.64917635      -0.54849885       1.15153726
15
Frame=16 idx=009919 GeodesicLength=1.8886737389653199 rxn_smarts="[N:1]([C@@:2]([C:3]([C:4]([O:5][H:15])([H:13])[H:14])([H:11])[H:12])([C:6]#[N:7])[H:10])([H:8])[H:9]>>[C:2](=[C:3](/[C:4]([O:5][H:15])([H:13])[H:14])[H:11])(\[C:6]#[N:7])[H:10].[N:1]([H:8])([H:9])[H:12]"
N       -1.65884079      -1.30031377       0.49506953
C       -0.76147347       0.53012085       0.10959038
C        0.22149233       0.07893691      -0.83614110
C        1.65783509       0.14184267      -0.39094246
O        1.76664763      -0.56675812       0.82929460
C       -1.43886107       1.76665552      -0.19441375
N       -2.01472187       2.69753874      -0.54105027
H       -1.00986890      -1.75935487       1.12457829
H       -2.54039974      -1.30017222       0.99010892
H       -0.55057293       0.42476960       1.17183913
H        0.12530711       0.52433605      -1.82771445
H       -0.72358123      -1.61732851      -0.64747904
H        1.97465931       1.18600075      -0.27028727
H        2.28792064      -0.31150435      -1.16624103
H        2.66445790      -0.49476926       1.15378854
