11
Frame=0 idx=001575 GeodesicLength=0.0 rxn_smarts="[C:1]([n:2]1[c:3]([H:10])[n:4][c:5]([H:11])[n:6]1)([H:7])([H:8])[H:9]>>[C:1]([N:2]([N:6]=[C:5]([N+:4]#[C-:3])[H:11])[H:10])([H:7])([H:8])[H:9]"
C       -1.68064431      -0.39366360       0.04938580
N       -0.32297154       0.04874772      -0.22837201
C        1.03311953       1.71237483      -0.14229248
N        1.97221218       0.94018795      -0.05836345
C        1.82392247      -0.41644513      -0.09846099
N        0.58715107      -0.84046186      -0.11538907
H       -1.97909634      -1.14254286      -0.68639230
H       -1.76980922      -0.82522710       1.04892632
H       -2.34502927       0.46484112      -0.03747273
H        0.01379782       1.53633130       0.35560301
H        2.66734762      -1.08414238      -0.08717207
11
Frame=1 idx=001575 GeodesicLength=0.06737327074487574 rxn_smarts="[C:1]([n:2]1[c:3]([H:10])[n:4][c:5]([H:11])[n:6]1)([H:7])([H:8])[H:9]>>[C:1]([N:2]([N:6]=[C:5]([N+:4]#[C-:3])[H:11])[H:10])([H:7])([H:8])[H:9]"
C       -1.67844803      -0.38999004       0.04937306
N       -0.31848252       0.05280976      -0.21514857
C        1.02866196       1.70745587      -0.15910903
N        1.97187185       0.93993495      -0.06192963
C        1.82502304      -0.41771470      -0.08583147
N        0.59015970      -0.84447761      -0.10822302
H       -1.97320747      -1.13420002      -0.69239435
H       -1.77580546      -0.82824340       1.04526447
H       -2.34210609       0.46923708      -0.03551858
H        0.00144004       1.52764135       0.36130085
H        2.67089297      -1.08245325      -0.09778373
11
Frame=2 idx=001575 GeodesicLength=0.1347531510893208 rxn_smarts="[C:1]([n:2]1[c:3]([H:10])[n:4][c:5]([H:11])[n:6]1)([H:7])([H:8])[H:9]>>[C:1]([N:2]([N:6]=[C:5]([N+:4]#[C-:3])[H:11])[H:10])([H:7])([H:8])[H:9]"
C       -1.67621270      -0.38633462       0.04929683
N       -0.31400794       0.05683909      -0.20161071
C        1.02417883       1.70227358      -0.17625490
N        1.97149658       0.93964589      -0.06608593
C        1.82617831      -0.41887056      -0.07368614
N        0.59320756      -0.84839928      -0.10060334
H       -1.96700912      -1.12585157      -0.69849434
H       -1.78198588      -0.83124819       1.04140339
H       -2.33917081       0.47357432      -0.03378860
H       -0.01064288       1.51894088       0.36792751
H        2.67396806      -1.08056954      -0.10810377
11
Frame=3 idx=001575 GeodesicLength=0.20214980302155 rxn_smarts="[C:1]([n:2]1[c:3]([H:10])[n:4][c:5]([H:11])[n:6]1)([H:7])([H:8])[H:9]>>[C:1]([N:2]([N:6]=[C:5]([N+:4]#[C-:3])[H:11])[H:10])([H:7])([H:8])[H:9]"
C       -1.67392887      -0.38268901       0.04919903
N       -0.30959150       0.06089347      -0.18788549
C        1.01960503       1.69687053      -0.19368251
N        1.97105415       0.93934591      -0.07107247
C        1.82736511      -0.41987812      -0.06304897
N        0.59625993      -0.85220068      -0.09302037
H       -1.96063108      -1.11735500      -0.70471849
H       -1.78815232      -0.83440733       1.03731766
H       -2.33623247       0.47787105      -0.03196660
H       -0.02240749       1.51014285       0.37566185
H        2.67665951      -1.07859367      -0.11678365
11
Frame=4 idx=001575 GeodesicLength=0.2695796279882462 rxn_smarts="[C:1]([n:2]1[c:3]([H:10])[n:4][c:5]([H:11])[n:6]1)([H:7])([H:8])[H:9]>>[C:1]([N:2]([N:6]=[C:5]([N+:4]#[C-:3])[H:11])[H:10])([H:7])([H:8])[H:9]"
C       -1.67159498      -0.37903988       0.04907662
N       -0.30523236       0.06497021      -0.17399335
C        1.01490797       1.69124010      -0.21139274
N        1.97051815       0.93904032      -0.07674255
C        1.82857081      -0.42074392      -0.05379208
N        0.59930734      -0.85589374      -0.08547708
H       -1.95407068      -1.10874286      -0.71101816
H       -1.79430141      -0.83764316       1.03302876
H       -2.33329374       0.48213275      -0.03011377
H       -0.03390201       1.50126630       0.38445303
H        2.67909090      -1.07658611      -0.12402868
11
Frame=5 idx=001575 GeodesicLength=0.3370535501078345 rxn_smarts="[C:1]([n:2]1[c:3]([H:10])[n:4][c:5]([H:11])[n:6]1)([H:7])([H:8])[H:9]>>[C:1]([N:2]([N:6]=[C:5]([N+:4]#[C-:3])[H:11])[H:10])([H:7])([H:8])[H:9]"
C       -1.66920247      -0.37537724       0.04892725
N       -0.30092866       0.06907149      -0.15998183
C        1.01006694       1.68536863      -0.22939643
N        1.96986873       0.93873123      -0.08295829
C        1.82978026      -0.42148112      -0.04569086
N        0.60234159      -0.85948940      -0.07803628
H       -1.94733791      -1.10004870      -0.71734528
H       -1.80039846      -0.84089106       1.02856132
H       -2.33035319       0.48636265      -0.02826947
H       -0.04517095       1.49233507       0.39424199
H        2.68133413      -1.07458154      -0.13005212
11
Frame=6 idx=001575 GeodesicLength=0.40427003129403205 rxn_smarts="[C:1]([n:2]1[c:3]([H:10])[n:4][c:5]([H:11])[n:6]1)([H:7])([H:8])[H:9]>>[C:1]([N:2]([N:6]=[C:5]([N+:4]#[C-:3])[H:11])[H:10])([H:7])([H:8])[H:9]"
C       -1.66673895      -0.37168664       0.04876476
N       -0.29668439       0.07321197      -0.14600275
C        1.00508892       1.67926471      -0.24757727
N        1.96906989       0.93842347      -0.08933387
C        1.83096345      -0.42211367      -0.03846090
N        0.60535096      -0.86300603      -0.07088936
H       -1.94049594      -1.09135617      -0.72357140
H       -1.80633323      -0.84401555       1.02400526
H       -2.32741062       0.49056376      -0.02646397
H       -0.05624753       1.48328721       0.40469045
H        2.68343744      -1.07257305      -0.13516094
11
Frame=7 idx=001575 GeodesicLength=0.4716502296669787 rxn_smarts="[C:1]([n:2]1[c:3]([H:10])[n:4][c:5]([H:11])[n:6]1)([H:7])([H:8])[H:9]>>[C:1]([N:2]([N:6]=[C:5]([N+:4]#[C-:3])[H:11])[H:10])([H:7])([H:8])[H:9]"
C       -1.66420944      -0.36797046       0.04853978
N       -0.29246435       0.07733764      -0.13184780
C        0.99993656       1.67284754      -0.26612980
N        1.96814367       0.93811029      -0.09610874
C        1.83215098      -0.42263684      -0.03182922
N        0.60835752      -0.86644582      -0.06354543
H       -1.93339881      -1.08264967      -0.72979780
H       -1.81232453      -0.84701853       1.01926634
H       -2.32443971       0.49473815      -0.02487657
H       -0.06716817       1.47424787       0.41615161
H        2.68541629      -1.07056016      -0.13982239
11
Frame=8 idx=001575 GeodesicLength=0.5389427911216773 rxn_smarts="[C:1]([n:2]1[c:3]([H:10])[n:4][c:5]([H:11])[n:6]1)([H:7])([H:8])[H:9]>>[C:1]([N:2]([N:6]=[C:5]([N+:4]#[C-:3])[H:11])[H:10])([H:7])([H:8])[H:9]"
C       -1.66159769      -0.36421497       0.04829738
N       -0.28828126       0.08150696      -0.11774480
C        0.99464573       1.66616032      -0.28492127
N        1.96706591       0.93779823      -0.10295553
C        1.83330038      -0.42307154      -0.02571479
N        0.61133148      -0.86981409      -0.05648806
H       -1.92620337      -1.07394546      -0.73592192
H       -1.81813880      -0.84987723       1.01444919
H       -2.32144453       0.49890630      -0.02334614
H       -0.07797859       1.46508705       0.42821425
H        2.68730075      -1.06853557      -0.14386830
11
Frame=9 idx=001575 GeodesicLength=0.6062340019555442 rxn_smarts="[C:1]([n:2]1[c:3]([H:10])[n:4][c:5]([H:11])[n:6]1)([H:7])([H:8])[H:9]>>[C:1]([N:2]([N:6]=[C:5]([N+:4]#[C-:3])[H:11])[H:10])([H:7])([H:8])[H:9]"
C       -1.65890817      -0.36042015       0.04798790
N       -0.28412945       0.08566258      -0.10354066
C        0.98913844       1.65912152      -0.30406647
N        1.96581580       0.93748690      -0.11011375
C        1.83443580      -0.42340063      -0.02001864
N        0.61430003      -0.87311653      -0.04928954
H       -1.91876162      -1.06524135      -0.74200691
H       -1.82396562      -0.85255134       1.00946671
H       -2.31840451       0.50306459      -0.02205535
H       -0.08861869       1.45588537       0.44124048
H        2.68909800      -1.06649096      -0.14760377
11
Frame=10 idx=001575 GeodesicLength=0.6735530715168867 rxn_smarts="[C:1]([n:2]1[c:3]([H:10])[n:4][c:5]([H:11])[n:6]1)([H:7])([H:8])[H:9]>>[C:1]([N:2]([N:6]=[C:5]([N+:4]#[C-:3])[H:11])[H:10])([H:7])([H:8])[H:9]"
C       -1.65612616      -0.35657208       0.04765458
N       -0.28000218       0.08987283      -0.08939176
C        0.98346322       1.65177931      -0.32350676
N        1.96439564       0.93718286      -0.11740846
C        1.83552437      -0.42363822      -0.01470005
N        0.61723596      -0.87635470      -0.04237790
H       -1.91122274      -1.05650658      -0.74801288
H       -1.82961159      -0.85508832       1.00439145
H       -2.31532082       0.50724030      -0.02081167
H       -0.09915981       1.44650312       0.45492686
H        2.69082411      -1.06441852      -0.15076341
11
Frame=11 idx=001575 GeodesicLength=0.7408369677319346 rxn_smarts="[C:1]([n:2]1[c:3]([H:10])[n:4][c:5]([H:11])[n:6]1)([H:7])([H:8])[H:9]>>[C:1]([N:2]([N:6]=[C:5]([N+:4]#[C-:3])[H:11])[H:10])([H:7])([H:8])[H:9]"
C       -1.65325600      -0.35267178       0.04727141
N       -0.27590152       0.09409386      -0.07528304
C        0.97757433       1.64407028      -0.34331020
N        1.96278475       0.93688242      -0.12494255
C        1.83657405      -0.42377333      -0.00967290
N        0.62014955      -0.87952435      -0.03556450
H       -1.90354008      -1.04772371      -0.75397098
H       -1.83514353      -0.85747824       0.99917137
H       -2.31218186       0.51143208      -0.01966754
H       -0.10956211       1.43700166       0.46945188
H        2.69250241      -1.06230891      -0.15348295
11
Frame=12 idx=001575 GeodesicLength=0.8081584716958913 rxn_smarts="[C:1]([n:2]1[c:3]([H:10])[n:4][c:5]([H:11])[n:6]1)([H:7])([H:8])[H:9]>>[C:1]([N:2]([N:6]=[C:5]([N+:4]#[C-:3])[H:11])[H:10])([H:7])([H:8])[H:9]"
C       -1.65029398      -0.34871127       0.04682956
N       -0.27181261       0.09834028      -0.06116311
C        0.97144787       1.63596995      -0.36350558
N        1.96097110       0.93659024      -0.13271890
C        1.83759205      -0.42380031      -0.00487827
N        0.62305291      -0.88263722      -0.02869510
H       -1.89567621      -1.03888774      -0.75991658
H       -1.84060736      -0.85971542       0.99380167
H       -2.30896784       0.51566500      -0.01866779
H       -0.11983108       1.42733149       0.48482714
H        2.69412515      -1.06014501      -0.15591304
11
Frame=13 idx=001575 GeodesicLength=0.8754752002915166 rxn_smarts="[C:1]([n:2]1[c:3]([H:10])[n:4][c:5]([H:11])[n:6]1)([H:7])([H:8])[H:9]>>[C:1]([N:2]([N:6]=[C:5]([N+:4]#[C-:3])[H:11])[H:10])([H:7])([H:8])[H:9]"
C       -1.64723442      -0.34468452       0.04631627
N       -0.26773504       0.10260802      -0.04701563
C        0.96505182       1.62743480      -0.38410537
N        1.95893428       0.93630575      -0.14075723
C        1.83858708      -0.42371652      -0.00027131
N        0.62595479      -0.88569220      -0.02161875
H       -1.88758859      -1.02999166      -0.76586627
H       -1.84603587      -0.86178500       0.98825726
H       -2.30566341       0.51994996      -0.01785390
H       -0.12995914       1.41748633       0.50109665
H        2.69568851      -1.05791497      -0.15818174
11
Frame=14 idx=001575 GeodesicLength=0.9428138360804998 rxn_smarts="[C:1]([n:2]1[c:3]([H:10])[n:4][c:5]([H:11])[n:6]1)([H:7])([H:8])[H:9]>>[C:1]([N:2]([N:6]=[C:5]([N+:4]#[C-:3])[H:11])[H:10])([H:7])([H:8])[H:9]"
C       -1.64407557      -0.34058375       0.04574689
N       -0.26367155       0.10692767      -0.03300859
C        0.95842825       1.61848301      -0.40508427
N        1.95667558       0.93603454      -0.14897975
C        1.83953102      -0.42351901       0.00414615
N        0.62883139      -0.88867782      -0.01465635
H       -1.87938987      -1.02104860      -0.77176010
H       -1.85130099      -0.86366772       0.98259566
H       -2.30227941       0.52428966      -0.01713868
H       -0.13997032       1.40737324       0.51820025
H        2.69722146      -1.05561121      -0.16006120
11
Frame=15 idx=001575 GeodesicLength=1.010146151351518 rxn_smarts="[C:1]([n:2]1[c:3]([H:10])[n:4][c:5]([H:11])[n:6]1)([H:7])([H:8])[H:9]>>[C:1]([N:2]([N:6]=[C:5]([N+:4]#[C-:3])[H:11])[H:10])([H:7])([H:8])[H:9]"
C       -1.64081356      -0.33640370       0.04510616
N       -0.25961934       0.11129056      -0.01913388
C        0.95155331       1.60906660      -0.42646615
N        1.95417951       0.93577812      -0.15738148
C        1.84043376      -0.42320205       0.00841335
N        0.63169406      -0.89159445      -0.00763315
H       -1.87103450      -1.01206144      -0.77760683
H       -1.85644545      -0.86533327       0.97679407
H       -2.29880020       0.52869184      -0.01658156
H       -0.14986215       1.39698426       0.53620019
H        2.69871457      -1.05321646      -0.16171071
11
Frame=16 idx=001575 GeodesicLength=1.0775000190082271 rxn_smarts="[C:1]([n:2]1[c:3]([H:10])[n:4][c:5]([H:11])[n:6]1)([H:7])([H:8])[H:9]>>[C:1]([N:2]([N:6]=[C:5]([N+:4]#[C-:3])[H:11])[H:10])([H:7])([H:8])[H:9]"
C       -1.63744905      -0.33213732       0.04439320
N       -0.25557595       0.11571881      -0.00538763
C        0.94441429       1.59915370      -0.44830035
N        1.95143303       0.93553896      -0.16599150
C        1.84129608      -0.42275793       0.01255301
N        0.63454699      -0.89443963      -0.00050142
H       -1.86252188      -1.00298931      -0.78345139
H       -1.86146870      -0.86682484       0.97083630
H       -2.29521975       0.53317809      -0.01614157
H       -0.15963121       1.38628055       0.55510898
H        2.70017614      -1.05072109      -0.16311761
