11
Frame=0 idx=004944 GeodesicLength=0.0 rxn_smarts="[O:1]([C:2]([C@@:3]1([H:9])[C:4]([H:10])([H:11])[O:5]1)([H:7])[H:8])[H:6]>>[C:3]1([H:6])([H:9])[C:4]([H:10])([H:11])[O:5]1.[O:1]=[C:2]([H:7])[H:8]"
O       -1.95654957       0.68406549      -1.10551709
C       -1.27459095       0.50439898       0.00200574
C        0.52838340       0.06909126      -0.47625020
C        1.12286659      -0.62370128       0.66487652
O        0.90035622      -1.29124377      -0.55535327
H       -0.66289716       0.26544674      -1.11491093
H       -1.00501451       1.37627375       0.62243949
H       -1.45451669      -0.40417674       0.60024320
H        1.14376611       0.77479497      -1.03853721
H        0.49593641      -0.93453093       1.49609922
H        2.16226012      -0.42041848       0.90490450
11
Frame=1 idx=004944 GeodesicLength=0.12378055538619229 rxn_smarts="[O:1]([C:2]([C@@:3]1([H:9])[C:4]([H:10])([H:11])[O:5]1)([H:7])[H:8])[H:6]>>[C:3]1([H:6])([H:9])[C:4]([H:10])([H:11])[O:5]1.[O:1]=[C:2]([H:7])[H:8]"
O       -1.93989122       0.74919898      -1.10527786
C       -1.29064468       0.48092128       0.00296284
C        0.52823640       0.05440063      -0.47958271
C        1.14429354      -0.59581160       0.67359021
O        0.85890845      -1.31829548      -0.50133019
H       -0.63673003       0.35971771      -1.13936197
H       -1.06518553       1.30675418       0.69876419
H       -1.51292483      -0.46322571       0.52575938
H        1.17167555       0.69743896      -1.08651247
H        0.54466882      -0.85329395       1.54196955
H        2.19759354      -0.41780501       0.86901902
11
Frame=2 idx=004944 GeodesicLength=0.24702353077999367 rxn_smarts="[O:1]([C:2]([C@@:3]1([H:9])[C:4]([H:10])([H:11])[O:5]1)([H:7])[H:8])[H:6]>>[C:3]1([H:6])([H:9])[C:4]([H:10])([H:11])[O:5]1.[O:1]=[C:2]([H:7])[H:8]"
O       -1.91935715       0.81624528      -1.09943450
C       -1.30724994       0.45559784       0.00276905
C        0.52799699       0.03800271      -0.48444702
C        1.16640853      -0.56584817       0.68052202
O        0.81778712      -1.34308568      -0.44123142
H       -0.60528588       0.46303869      -1.14944557
H       -1.13107726       1.22621239       0.77180365
H       -1.57192961      -0.51887906       0.44204796
H        1.19546802       0.60980733      -1.13758513
H        0.59589888      -0.76463692       1.58291598
H        2.23134030      -0.41645441       0.83208497
11
Frame=3 idx=004944 GeodesicLength=0.3693983195733904 rxn_smarts="[O:1]([C:2]([C@@:3]1([H:9])[C:4]([H:10])([H:11])[O:5]1)([H:7])[H:8])[H:6]>>[C:3]1([H:6])([H:9])[C:4]([H:10])([H:11])[O:5]1.[O:1]=[C:2]([H:7])[H:8]"
O       -1.89297232       0.88779694      -1.08679750
C       -1.32472273       0.42776519       0.00089423
C        0.52689655       0.01766289      -0.49138886
C        1.18958060      -0.53281349       0.68537311
O        0.77723447      -1.36632053      -0.37264346
H       -0.56675784       0.57737880      -1.14028362
H       -1.20282275       1.13130596       0.84107550
H       -1.63253985      -0.57135594       0.34484065
H        1.21171668       0.50878458      -1.19283940
H        0.65064804      -0.66554482       1.61843860
H        2.26373917      -0.41465958       0.79333074
11
Frame=4 idx=004944 GeodesicLength=0.48970069029905916 rxn_smarts="[O:1]([C:2]([C@@:3]1([H:9])[C:4]([H:10])([H:11])[O:5]1)([H:7])[H:8])[H:6]>>[C:3]1([H:6])([H:9])[C:4]([H:10])([H:11])[O:5]1.[O:1]=[C:2]([H:7])[H:8]"
O       -1.85766990       0.96489300      -1.06625184
C       -1.34356772       0.39703926      -0.00367832
C        0.52377988      -0.00885363      -0.50032781
C        1.21432421      -0.49620105       0.68739020
O        0.73783593      -1.38813002      -0.29349901
H       -0.51848015       0.70208855      -1.10408940
H       -1.28128462       1.01958654       0.90397591
H       -1.69521324      -0.61859384       0.23054737
H        1.21538539       0.39279056      -1.25220088
H        0.70976318      -0.55332962       1.64674226
H        2.29512704      -0.41128974       0.75139153
11
Frame=5 idx=004944 GeodesicLength=0.6078501188031344 rxn_smarts="[O:1]([C:2]([C@@:3]1([H:9])[C:4]([H:10])([H:11])[O:5]1)([H:7])[H:8])[H:6]>>[C:3]1([H:6])([H:9])[C:4]([H:10])([H:11])[O:5]1.[O:1]=[C:2]([H:7])[H:8]"
O       -1.80999126       1.04970212      -1.03462612
C       -1.36444486       0.36407256      -0.01210263
C        0.51756874      -0.04249175      -0.50990294
C        1.24103206      -0.45580458       0.68569562
O        0.70022786      -1.40689455      -0.20221416
H       -0.45977323       0.82670187      -1.03534599
H       -1.36648672       0.88986228       0.95666377
H       -1.75868714      -0.65676307       0.09525841
H        1.20102023       0.26340029      -1.31365593
H        0.77375176      -0.42617853       1.66480822
H        2.32578256      -0.40560663       0.70542176
11
Frame=6 idx=004944 GeodesicLength=0.7253231325018652 rxn_smarts="[O:1]([C:2]([C@@:3]1([H:9])[C:4]([H:10])([H:11])[O:5]1)([H:7])[H:8])[H:6]>>[C:3]1([H:6])([H:9])[C:4]([H:10])([H:11])[O:5]1.[O:1]=[C:2]([H:7])[H:8]"
O       -1.75216610       1.13614255      -0.98872003
C       -1.38643846       0.33124048      -0.02417822
C        0.50904651      -0.07915147      -0.51688563
C        1.26910107      -0.41440974       0.67981983
O        0.66503316      -1.41817152      -0.10362280
H       -0.39584881       0.93143243      -0.94268875
H       -1.45547643       0.74938792       0.99317187
H       -1.81856843      -0.67900723      -0.05382325
H        1.17066426       0.13257811      -1.36776984
H        0.83988177      -0.28862424       1.66853036
H        2.35477146      -0.40141729       0.65616647
11
Frame=7 idx=004944 GeodesicLength=0.8448934598687114 rxn_smarts="[O:1]([C:2]([C@@:3]1([H:9])[C:4]([H:10])([H:11])[O:5]1)([H:7])[H:8])[H:6]>>[C:3]1([H:6])([H:9])[C:4]([H:10])([H:11])[O:5]1.[O:1]=[C:2]([H:7])[H:8]"
O       -1.69304511       1.21714108      -0.92673221
C       -1.40900846       0.30060069      -0.03857651
C        0.50026492      -0.11349411      -0.51975526
C        1.29725956      -0.37453612       0.67104883
O        0.63240451      -1.41849464      -0.00361612
H       -0.33493415       1.00799063      -0.84421044
H       -1.54234230       0.60740648       1.01140021
H       -1.86898693      -0.68315314      -0.20668472
H        1.13163041       0.00871413      -1.40961793
H        0.90573429      -0.14944539       1.65771879
H        2.38102326      -0.40272959       0.60902536
11
Frame=8 idx=004944 GeodesicLength=0.9675572952093012 rxn_smarts="[O:1]([C:2]([C@@:3]1([H:9])[C:4]([H:10])([H:11])[O:5]1)([H:7])[H:8])[H:6]>>[C:3]1([H:6])([H:9])[C:4]([H:10])([H:11])[O:5]1.[O:1]=[C:2]([H:7])[H:8]"
O       -1.63762501       1.28605459      -0.85179372
C       -1.43127913       0.27224172      -0.05394324
C        0.49241445      -0.14349633      -0.51908004
C        1.32481354      -0.33766967       0.66010976
O        0.60201508      -1.40776874       0.09398367
H       -0.27918499       1.06277932      -0.74783510
H       -1.62621826       0.46939174       1.01241621
H       -1.90901484      -0.67047880      -0.35434083
H        1.09035141      -0.10677640      -1.43821300
H        0.96967184      -0.01407838       1.63306131
H        2.40405591      -0.41019904       0.56563498
11
Frame=9 idx=004944 GeodesicLength=1.092239116328629 rxn_smarts="[O:1]([C:2]([C@@:3]1([H:9])[C:4]([H:10])([H:11])[O:5]1)([H:7])[H:8])[H:6]>>[C:3]1([H:6])([H:9])[C:4]([H:10])([H:11])[O:5]1.[O:1]=[C:2]([H:7])[H:8]"
O       -1.58873877       1.34116516      -0.76724089
C       -1.45334384       0.24583141      -0.06996620
C        0.48576939      -0.16860229      -0.51566537
C        1.35142780      -0.30368262       0.64776692
O        0.57389941      -1.38672952       0.18780202
H       -0.22937170       1.10306308      -0.65698411
H       -1.70578667       0.33787199       0.99841737
H       -1.93866338      -0.64409857      -0.49348938
H        1.04870113      -0.21548246      -1.45524876
H        1.03237773       0.11390313       1.59720920
H        2.42372889      -0.42323932       0.52739921
11
Frame=10 idx=004944 GeodesicLength=1.2184451409150874 rxn_smarts="[O:1]([C:2]([C@@:3]1([H:9])[C:4]([H:10])([H:11])[O:5]1)([H:7])[H:8])[H:6]>>[C:3]1([H:6])([H:9])[C:4]([H:10])([H:11])[O:5]1.[O:1]=[C:2]([H:7])[H:8]"
O       -1.54644866       1.38270958      -0.67519523
C       -1.47521330       0.22073068      -0.08658562
C        0.48023421      -0.18950241      -0.51030706
C        1.37742548      -0.27207640       0.63419714
O        0.54798891      -1.35628622       0.27812118
H       -0.18443368       1.13423568      -0.57151679
H       -1.78237438       0.21228191       0.97117101
H       -1.95994261      -0.60594252      -0.62350256
H        1.00725064      -0.31973757      -1.46194494
H        1.09495153       0.23400143       1.55176265
H        2.44056186      -0.44041416       0.49380023
11
Frame=11 idx=004944 GeodesicLength=1.3455634043126041 rxn_smarts="[O:1]([C:2]([C@@:3]1([H:9])[C:4]([H:10])([H:11])[O:5]1)([H:7])[H:8])[H:6]>>[C:3]1([H:6])([H:9])[C:4]([H:10])([H:11])[O:5]1.[O:1]=[C:2]([H:7])[H:8]"
O       -1.51040300       1.41155085      -0.57567739
C       -1.49702902       0.19633665      -0.10408328
C        0.47554647      -0.20699981      -0.50340622
C        1.40309033      -0.24208841       0.61943121
O        0.52408593      -1.31663609       0.36601804
H       -0.14356158       1.15954671      -0.49147905
H       -1.85646829       0.09063976       0.93152143
H       -1.97431689      -0.55672751      -0.74555814
H        0.96547926      -0.42178504      -1.45883433
H        1.15877515       0.34706615       1.49765211
H        2.45480163      -0.46090326       0.46441562
11
Frame=12 idx=004944 GeodesicLength=1.4729980058316907 rxn_smarts="[O:1]([C:2]([C@@:3]1([H:9])[C:4]([H:10])([H:11])[O:5]1)([H:7])[H:8])[H:6]>>[C:3]1([H:6])([H:9])[C:4]([H:10])([H:11])[O:5]1.[O:1]=[C:2]([H:7])[H:8]"
O       -1.48009996       1.42770032      -0.46821805
C       -1.51891908       0.17221530      -0.12267426
C        0.47144130      -0.22185214      -0.49531418
C        1.42848812      -0.21314359       0.60335293
O        0.50208600      -1.26760038       0.45219640
H       -0.10612897       1.18118317      -0.41743164
H       -1.92784189      -0.02881922       0.87968133
H       -1.98297759      -0.49632576      -0.86014767
H        0.92296578      -0.52297261      -1.44583242
H        1.22454687       0.45373664       1.43519750
H        2.46643942      -0.48412173       0.43919007
11
Frame=13 idx=004944 GeodesicLength=1.6002035511749957 rxn_smarts="[O:1]([C:2]([C@@:3]1([H:9])[C:4]([H:10])([H:11])[O:5]1)([H:7])[H:8])[H:6]>>[C:3]1([H:6])([H:9])[C:4]([H:10])([H:11])[O:5]1.[O:1]=[C:2]([H:7])[H:8]"
O       -1.45480849       1.43021559      -0.35263376
C       -1.54102110       0.14812267      -0.14257641
C        0.46766467      -0.23470531      -0.48639151
C        1.45337005      -0.18492488       0.58584198
O        0.48187296      -1.20885586       0.53667532
H       -0.07176727       1.20083652      -0.35008321
H       -1.99514547      -0.14729401       0.81567018
H       -1.98697215      -0.42424554      -0.96684447
H        0.87941193      -0.62385194      -1.42257134
H        1.29222394       0.55427973       1.36434803
H        2.47517092      -0.50957697       0.41856518
11
Frame=14 idx=004944 GeodesicLength=1.7269379204255342 rxn_smarts="[O:1]([C:2]([C@@:3]1([H:9])[C:4]([H:10])([H:11])[O:5]1)([H:7])[H:8])[H:6]>>[C:3]1([H:6])([H:9])[C:4]([H:10])([H:11])[O:5]1.[O:1]=[C:2]([H:7])[H:8]"
O       -1.43352475       1.41743957      -0.23080548
C       -1.56344959       0.12411714      -0.16394591
C        0.46404269      -0.24593865      -0.47711135
C        1.47719040      -0.15755321       0.56692409
O        0.46330447      -1.14049273       0.61831305
H       -0.04043707       1.21994135      -0.28912481
H       -2.05611155      -0.26453291       0.74003083
H       -1.98736926      -0.34070359      -1.06383608
H        0.83483436      -0.72380412      -1.38885905
H        1.36098393       0.64821943       1.28511985
H        2.48053638      -0.53669229       0.40329486
11
Frame=15 idx=004944 GeodesicLength=1.8534916896830442 rxn_smarts="[O:1]([C:2]([C@@:3]1([H:9])[C:4]([H:10])([H:11])[O:5]1)([H:7])[H:8])[H:6]>>[C:3]1([H:6])([H:9])[C:4]([H:10])([H:11])[O:5]1.[O:1]=[C:2]([H:7])[H:8]"
O       -1.41537997       1.38846624      -0.10883863
C       -1.58617862       0.10071960      -0.18679188
C        0.46057471      -0.25542501      -0.46817294
C        1.49917137      -0.13168812       0.54697027
O        0.44624852      -1.06389233       0.69441428
H       -0.01239616       1.23964482      -0.23199543
H       -2.10766001      -0.37798845       0.65510026
H       -1.98545620      -0.24850092      -1.14794433
H        0.78966621      -0.82051143      -1.34542397
H        1.42928822       0.73384574       1.19856831
H        2.48212193      -0.56467015       0.39411405
11
Frame=16 idx=004944 GeodesicLength=1.9806339047445984 rxn_smarts="[O:1]([C:2]([C@@:3]1([H:9])[C:4]([H:10])([H:11])[O:5]1)([H:7])[H:8])[H:6]>>[C:3]1([H:6])([H:9])[C:4]([H:10])([H:11])[O:5]1.[O:1]=[C:2]([H:7])[H:8]"
O       -1.39987183       1.34537550       0.00392735
C       -1.60888423       0.07878334      -0.21066485
C        0.45743856      -0.26277992      -0.46049079
C        1.51847299      -0.10828073       0.52679574
O        0.43067272      -0.98244653       0.76140188
H        0.01248345       1.26049866      -0.17467024
H       -2.14706019      -0.48362245       0.56563386
H       -1.98296288      -0.15362461      -1.21608670
H        0.74486829      -0.91035582      -1.29453251
H        1.49497442       0.80870960       1.10742411
H        2.47986870      -0.59225705       0.39126215
