19
Frame=0 idx=008679 GeodesicLength=0.0 rxn_smarts="[C:1]([C:2]1([O:3][H:11])[C:4]([H:12])([H:13])[C:5]([H:14])([H:15])[C:6]([H:16])([H:17])[C:7]1([H:18])[H:19])([H:8])([H:9])[H:10]>>[C:1]([C:4]([C:2](=[O:3])[C:7]([C:6]([C:5]([H:11])([H:14])[H:15])([H:16])[H:17])([H:18])[H:19])([H:12])[H:13])([H:8])([H:9])[H:10]"
C        1.98248324      -0.92168139      -0.58723829
C        0.75940538      -0.26868913       0.14656967
O        0.92641775      -0.15055333       1.45326263
C        0.64898391       1.06381886      -0.47425935
C       -1.29172639       1.21352310       0.57212129
C       -1.68755912      -0.25364540       0.47187578
C       -0.55427354      -1.02129094      -0.22226525
H        2.89415640      -0.36826303      -0.36517261
H        1.85242260      -1.01320047      -1.66697029
H        2.07436071      -1.91606817      -0.15269394
H       -0.26129828       1.12201135       1.10928077
H        1.23573773       1.86533181      -0.03486811
H        0.30988264       1.21477297      -1.49794286
H       -1.81408992       1.79287914       1.34000067
H       -1.44959301       1.76783328      -0.35626964
H       -2.63215752      -0.37638744      -0.06207829
H       -1.81415726      -0.64101245       1.48181524
H       -0.70268762      -1.06676305      -1.30700271
H       -0.47630778      -2.04261562       0.15183526
19
Frame=1 idx=008679 GeodesicLength=0.12874286346363722 rxn_smarts="[C:1]([C:2]1([O:3][H:11])[C:4]([H:12])([H:13])[C:5]([H:14])([H:15])[C:6]([H:16])([H:17])[C:7]1([H:18])[H:19])([H:8])([H:9])[H:10]>>[C:1]([C:4]([C:2](=[O:3])[C:7]([C:6]([C:5]([H:11])([H:14])[H:15])([H:16])[H:17])([H:18])[H:19])([H:12])[H:13])([H:8])([H:9])[H:10]"
C        1.98715210      -0.90562086      -0.60243262
C        0.75216537      -0.27673862       0.16377199
O        0.91460507      -0.14329345       1.46860453
C        0.65972197       1.04759613      -0.48081313
C       -1.29174188       1.21647504       0.57077197
C       -1.69692475      -0.24982957       0.47047506
C       -0.55958609      -1.02669113      -0.20691656
H        2.89950360      -0.36567946      -0.35149607
H        1.87659242      -0.97829238      -1.68565326
H        2.07365342      -1.91380992      -0.19858342
H       -0.24975574       1.12607355       1.14110143
H        1.25532414       1.84900235      -0.05277533
H        0.31814817       1.19265107      -1.50435410
H       -1.82000796       1.79238267       1.33694214
H       -1.46111593       1.77095617      -0.35565757
H       -2.63505648      -0.37088615      -0.07492286
H       -1.83916144      -0.63525377       1.47924314
H       -0.70306306      -1.08376231      -1.29156496
H       -0.48045291      -2.04527937       0.17425962
19
Frame=2 idx=008679 GeodesicLength=0.2573727442786655 rxn_smarts="[C:1]([C:2]1([O:3][H:11])[C:4]([H:12])([H:13])[C:5]([H:14])([H:15])[C:6]([H:16])([H:17])[C:7]1([H:18])[H:19])([H:8])([H:9])[H:10]>>[C:1]([C:4]([C:2](=[O:3])[C:7]([C:6]([C:5]([H:11])([H:14])[H:15])([H:16])[H:17])([H:18])[H:19])([H:12])[H:13])([H:8])([H:9])[H:10]"
C        1.99150001      -0.88975978      -0.61766040
C        0.74532811      -0.28427671       0.18082329
O        0.90293692      -0.13552027       1.48372812
C        0.67051699       1.03139057      -0.48724770
C       -1.29201063       1.21942650       0.56897757
C       -1.70602771      -0.24612376       0.46892864
C       -0.56456549      -1.03181761      -0.19143605
H        2.90462605      -0.36506076      -0.33834092
H        1.90144132      -0.94324905      -1.70381209
H        2.07160295      -1.91086629      -0.24499636
H       -0.23845502       1.13033234       1.17365030
H        1.27455716       1.83258146      -0.07023405
H        0.32640154       1.17081764      -1.51055130
H       -1.82571548       1.79176072       1.33380246
H       -1.47351071       1.77401309      -0.35528104
H       -2.63749778      -0.36604336      -0.08781340
H       -1.86374045      -0.62934749       1.47639996
H       -0.70307949      -1.10067096      -1.27584883
H       -0.48430829      -2.04758628       0.19691182
19
Frame=3 idx=008679 GeodesicLength=0.38591686085817845 rxn_smarts="[C:1]([C:2]1([O:3][H:11])[C:4]([H:12])([H:13])[C:5]([H:14])([H:15])[C:6]([H:16])([H:17])[C:7]1([H:18])[H:19])([H:8])([H:9])[H:10]>>[C:1]([C:4]([C:2](=[O:3])[C:7]([C:6]([C:5]([H:11])([H:14])[H:15])([H:16])[H:17])([H:18])[H:19])([H:12])[H:13])([H:8])([H:9])[H:10]"
C        1.99556427      -0.87413834      -0.63294219
C        0.73886661      -0.29128153       0.19771970
O        0.89142232      -0.12725513       1.49861629
C        0.68137140       1.01522248      -0.49358247
C       -1.29254082       1.22238414       0.56671779
C       -1.71487239      -0.24253139       0.46723072
C       -0.56921803      -1.03665984      -0.17584444
H        2.90949594      -0.36639533      -0.32576168
H        1.92705021      -0.90812774      -1.72139850
H        2.06817608      -1.90722945      -0.29186024
H       -0.22739904       1.13479297       1.20699979
H        1.29344634       1.81610379      -0.08725804
H        0.33464764       1.14927718      -1.51656017
H       -1.83118925       1.79100224       1.33060859
H       -1.48682765       1.77700571      -0.35512670
H       -2.63949674      -0.36186783      -0.10073802
H       -1.88788695      -0.62331276       1.47328128
H       -0.70274656      -1.11746596      -1.25986799
H       -0.48786337      -2.04952322       0.21976627
19
Frame=4 idx=008679 GeodesicLength=0.5143957539714831 rxn_smarts="[C:1]([C:2]1([O:3][H:11])[C:4]([H:12])([H:13])[C:5]([H:14])([H:15])[C:6]([H:16])([H:17])[C:7]1([H:18])[H:19])([H:8])([H:9])[H:10]>>[C:1]([C:4]([C:2](=[O:3])[C:7]([C:6]([C:5]([H:11])([H:14])[H:15])([H:16])[H:17])([H:18])[H:19])([H:12])[H:13])([H:8])([H:9])[H:10]"
C        1.99938472      -0.85879048      -0.64829949
C        0.73275185      -0.29773157       0.21446049
O        0.88007028      -0.11851680       1.51325465
C        0.69228899       0.99910608      -0.49984114
C       -1.29333811       1.22535511       0.56397123
C       -1.72346431      -0.23905421       0.46537707
C       -0.57355109      -1.04120849      -0.16015865
H        2.91408410      -0.36967242      -0.31379758
H        1.95349621      -0.87296850      -1.73835955
H        2.06334675      -1.90289214      -0.33912741
H       -0.21659814       1.13945240       1.24123152
H        1.31200489       1.79959889      -0.10387171
H        0.34289377       1.12802421      -1.52241104
H       -1.83640570       1.79009991       1.32738178
H       -1.50111420       1.77993519      -0.35517928
H       -2.64107000      -0.35836484      -0.11368520
H       -1.91159693      -0.61716636       1.46988482
H       -0.70207478      -1.13412820      -1.24363309
H       -0.49110828      -2.05107779       0.24280259
19
Frame=5 idx=008679 GeodesicLength=0.6428580613455352 rxn_smarts="[C:1]([C:2]1([O:3][H:11])[C:4]([H:12])([H:13])[C:5]([H:14])([H:15])[C:6]([H:16])([H:17])[C:7]1([H:18])[H:19])([H:8])([H:9])[H:10]>>[C:1]([C:4]([C:2](=[O:3])[C:7]([C:6]([C:5]([H:11])([H:14])[H:15])([H:16])[H:17])([H:18])[H:19])([H:12])[H:13])([H:8])([H:9])[H:10]"
C        2.00300262      -0.84373972      -0.66375268
C        0.72695408      -0.30360793       0.23104367
O        0.86888685      -0.10932312       1.52763322
C        0.70327359       0.98305363      -0.50604026
C       -1.29441512       1.22834468       0.56070263
C       -1.73181057      -0.23569629       0.46336475
C       -0.57757375      -1.04545666      -0.14439486
H        2.91835494      -0.37488673      -0.30248453
H        1.98083844      -0.83780136      -1.75463574
H        2.05709535      -1.89783896      -0.38676650
H       -0.20604679       1.14430720       1.27643118
H        1.33024870       1.78309082      -0.12008766
H        0.35115619       1.10705337      -1.52812980
H       -1.84133025       1.78905315       1.32413195
H       -1.51642337       1.78279557      -0.35543760
H       -2.64223749      -0.35554795      -0.12663610
H       -1.93486366      -0.61091889       1.46621359
H       -0.70107583      -1.15064043      -1.22715528
H       -0.49403393      -2.05224037       0.26600002
19
Frame=6 idx=008679 GeodesicLength=0.771328995477482 rxn_smarts="[C:1]([C:2]1([O:3][H:11])[C:4]([H:12])([H:13])[C:5]([H:14])([H:15])[C:6]([H:16])([H:17])[C:7]1([H:18])[H:19])([H:8])([H:9])[H:10]>>[C:1]([C:4]([C:2](=[O:3])[C:7]([C:6]([C:5]([H:11])([H:14])[H:15])([H:16])[H:17])([H:18])[H:19])([H:12])[H:13])([H:8])([H:9])[H:10]"
C        2.00646195      -0.82900616      -0.67931960
C        0.72144439      -0.30888934       0.24746841
O        0.85787872      -0.09968328       1.54174173
C        0.71433221       0.96707171      -0.51220480
C       -1.29577809       1.23135868       0.55687964
C       -1.73991770      -0.23245789       0.46118902
C       -0.58129366      -1.04939661      -0.12856766
H        2.92227778      -0.38202438      -0.29185495
H        2.00911898      -0.80266527      -1.77015252
H        2.04940603      -1.89204878      -0.43476487
H       -0.19575350       1.14933642       1.31269902
H        1.34819171       1.76660356      -0.13592781
H        0.35945281       1.08635104      -1.53374972
H       -1.84592594       1.78786272       1.32086573
H       -1.53280452       1.78558176      -0.35588854
H       -2.64301680      -0.35342351      -0.13957941
H       -1.95768580      -0.60458283       1.46226706
H       -0.69975862      -1.16698846      -1.21044299
H       -0.49662994      -2.05299940       0.28934228
19
Frame=7 idx=008679 GeodesicLength=0.8998207454694087 rxn_smarts="[C:1]([C:2]1([O:3][H:11])[C:4]([H:12])([H:13])[C:5]([H:14])([H:15])[C:6]([H:16])([H:17])[C:7]1([H:18])[H:19])([H:8])([H:9])[H:10]>>[C:1]([C:4]([C:2](=[O:3])[C:7]([C:6]([C:5]([H:11])([H:14])[H:15])([H:16])[H:17])([H:18])[H:19])([H:12])[H:13])([H:8])([H:9])[H:10]"
C        2.00980831      -0.81460548      -0.69501581
C        0.71619256      -0.31355618       0.26373097
O        0.84704918      -0.08959802       1.55557117
C        0.72547163       0.95116444      -0.51835763
C       -1.29743304       1.23440229       0.55246567
C       -1.74779366      -0.22934111       0.45884391
C       -0.58471986      -1.05302121      -0.11269081
H        2.92582476      -0.39107076      -0.28193453
H        2.03836062      -0.76760316      -1.78482631
H        2.04027584      -1.88548888      -0.48312568
H       -0.18572735       1.15451051       1.35013722
H        1.36585020       1.75015468      -0.15141593
H        0.36780417       1.06590098      -1.53930316
H       -1.85015159       1.78653003       1.31758783
H       -1.55030554       1.78828521      -0.35651972
H       -2.64342425      -0.35199574      -0.15250248
H       -1.98006157      -0.59816536       1.45804560
H       -0.69813281      -1.18315892      -1.19350505
H       -0.49888759      -2.05334331       0.31281474
19
Frame=8 idx=008679 GeodesicLength=1.0283595468953104 rxn_smarts="[C:1]([C:2]1([O:3][H:11])[C:4]([H:12])([H:13])[C:5]([H:14])([H:15])[C:6]([H:16])([H:17])[C:7]1([H:18])[H:19])([H:8])([H:9])[H:10]>>[C:1]([C:4]([C:2](=[O:3])[C:7]([C:6]([C:5]([H:11])([H:14])[H:15])([H:16])[H:17])([H:18])[H:19])([H:12])[H:13])([H:8])([H:9])[H:10]"
C        2.01309324      -0.80054276      -0.71085653
C        0.71116612      -0.31758402       0.27983183
O        0.83639786      -0.07906044       1.56911825
C        0.73670142       0.93533476      -0.52451965
C       -1.29938609       1.23747859       0.54741253
C       -1.75544505      -0.22634587       0.45632225
C       -0.58786162      -1.05632102      -0.09677619
H        2.92896660      -0.40202839      -0.27275417
H        2.06855885      -0.73266321      -1.79857338
H        2.02971476      -1.87811479      -0.53186494
H       -0.17598634       1.15979257       1.38886900
H        1.38324172       1.73376027      -0.16657384
H        0.37623662       1.04568646      -1.54482110
H       -1.85395499       1.78506164       1.31430227
H       -1.56897708       1.79088766      -0.35732807
H       -2.64347397      -0.35127592      -0.16539744
H       -2.00199174      -0.59167026       1.45354983
H       -0.69620380      -1.19913829      -1.17634729
H       -0.50079650      -2.05325697       0.33640664
19
Frame=9 idx=008679 GeodesicLength=1.1569238655133753 rxn_smarts="[C:1]([C:2]1([O:3][H:11])[C:4]([H:12])([H:13])[C:5]([H:14])([H:15])[C:6]([H:16])([H:17])[C:7]1([H:18])[H:19])([H:8])([H:9])[H:10]>>[C:1]([C:4]([C:2](=[O:3])[C:7]([C:6]([C:5]([H:11])([H:14])[H:15])([H:16])[H:17])([H:18])[H:19])([H:12])[H:13])([H:8])([H:9])[H:10]"
C        2.01634577      -0.78685456      -0.72683349
C        0.70636316      -0.32097861       0.29572641
O        0.82593019      -0.06806014       1.58234630
C        0.74804887       0.91957215      -0.53075374
C       -1.30162150       1.24058852       0.54169132
C       -1.76286824      -0.22345745       0.45360879
C       -0.59072079      -1.05930009      -0.08085315
H        2.93158021      -0.41481760      -0.26419073
H        2.09954103      -0.69793036      -1.81135736
H        2.01785924      -1.86980136      -0.58094090
H       -0.16652686       1.16500903       1.42904085
H        1.40036495       1.71746057      -0.18144437
H        0.38476922       1.02567696      -1.55036544
H       -1.85720464       1.78348582       1.31092045
H       -1.58888806       1.79338300      -0.35820507
H       -2.64316418      -0.35122148      -0.17825326
H       -2.02348115      -0.58508753       1.44875758
H       -0.69398154      -1.21493120      -1.15899047
H       -0.50234569      -2.05273571       0.36009628
19
Frame=10 idx=008679 GeodesicLength=1.285570825553797 rxn_smarts="[C:1]([C:2]1([O:3][H:11])[C:4]([H:12])([H:13])[C:5]([H:14])([H:15])[C:6]([H:16])([H:17])[C:7]1([H:18])[H:19])([H:8])([H:9])[H:10]>>[C:1]([C:4]([C:2](=[O:3])[C:7]([C:6]([C:5]([H:11])([H:14])[H:15])([H:16])[H:17])([H:18])[H:19])([H:12])[H:13])([H:8])([H:9])[H:10]"
C        2.01963388      -0.77350952      -0.74296450
C        0.70173324      -0.32368003       0.31146431
O        0.81563132      -0.05657665       1.59528886
C        0.75951006       0.90389387      -0.53703105
C       -1.30417658       1.24374235       0.53522344
C       -1.77008089      -0.22069210       0.45069744
C       -0.59330094      -1.06193794      -0.06491411
H        2.93371382      -0.42948518      -0.25643433
H        2.13139640      -0.66346407      -1.82306529
H        2.00460348      -1.86056134      -0.63042386
H       -0.15738051       1.17020156       1.47077413
H        1.41726593       1.70125070      -0.19603306
H        0.39344991       1.00586831      -1.55593196
H       -1.85990285       1.78179178       1.30750054
H       -1.61007538       1.79575640      -0.35922510
H       -2.64252754      -0.35189821      -0.19107405
H       -2.04452726      -0.57843221       1.44368506
H       -0.69145041      -1.23051398      -1.14142549
H       -0.50351571      -2.05175376       0.38388902
19
Frame=11 idx=008679 GeodesicLength=1.4142840238091223 rxn_smarts="[C:1]([C:2]1([O:3][H:11])[C:4]([H:12])([H:13])[C:5]([H:14])([H:15])[C:6]([H:16])([H:17])[C:7]1([H:18])[H:19])([H:8])([H:9])[H:10]>>[C:1]([C:4]([C:2](=[O:3])[C:7]([C:6]([C:5]([H:11])([H:14])[H:15])([H:16])[H:17])([H:18])[H:19])([H:12])[H:13])([H:8])([H:9])[H:10]"
C        2.02300130      -0.76051649      -0.75924649
C        0.69725643      -0.32566183       0.32704583
O        0.80548933      -0.04458775       1.60794503
C        0.77110263       0.88829766      -0.54336811
C       -1.30705998       1.24694494       0.52795664
C       -1.77709011      -0.21805320       0.44757167
C       -0.59559921      -1.06422915      -0.04897079
H        2.93532514      -0.44599696      -0.24950049
H        2.16402729      -0.62935449      -1.83364565
H        1.98998631      -1.85032782      -0.68032686
H       -0.14855158       1.17531312       1.51420809
H        1.43397027       1.68514228      -0.21036390
H        0.40231687       0.98624088      -1.56154773
H       -1.86199248       1.77998224       1.30402682
H       -1.63258454       1.79800596      -0.36036336
H       -2.64157777      -0.35331363      -0.20386281
H       -2.06513320      -0.57170493       1.43832298
H       -0.68860029      -1.24588298      -1.12365915
H       -0.50428640      -2.05029786       0.40777828
19
Frame=12 idx=008679 GeodesicLength=1.5430654027099624 rxn_smarts="[C:1]([C:2]1([O:3][H:11])[C:4]([H:12])([H:13])[C:5]([H:14])([H:15])[C:6]([H:16])([H:17])[C:7]1([H:18])[H:19])([H:8])([H:9])[H:10]>>[C:1]([C:4]([C:2](=[O:3])[C:7]([C:6]([C:5]([H:11])([H:14])[H:15])([H:16])[H:17])([H:18])[H:19])([H:12])[H:13])([H:8])([H:9])[H:10]"
C        2.02649607      -0.74787486      -0.77567621
C        0.69291143      -0.32688890       0.34247532
O        0.79549014      -0.03206102       1.62031839
C        0.78284734       0.87278625      -0.54977502
C       -1.31028425       1.25019889       0.51981943
C       -1.78390015      -0.21554025       0.44421377
C       -0.59761138      -1.06616292      -0.03303387
H        2.93636836      -0.46431912      -0.24342185
H        2.19731622      -0.59571179      -1.84306794
H        1.97404686      -1.83903055      -0.73064769
H       -0.14005780       1.18024870       1.55951408
H        1.45051064       1.66914764      -0.22445452
H        0.41141223       0.96678446      -1.56723336
H       -1.86339149       1.77807050       1.30047067
H       -1.65647624       1.80011613      -0.36160412
H       -2.64032562      -0.35548355      -0.21662400
H       -2.08530176      -0.56490353       1.43266183
H       -0.68541353      -1.26102879      -1.10569482
H       -0.50463708      -2.04834730       0.43175989
19
Frame=13 idx=008679 GeodesicLength=1.6718807382700904 rxn_smarts="[C:1]([C:2]1([O:3][H:11])[C:4]([H:12])([H:13])[C:5]([H:14])([H:15])[C:6]([H:16])([H:17])[C:7]1([H:18])[H:19])([H:8])([H:9])[H:10]>>[C:1]([C:4]([C:2](=[O:3])[C:7]([C:6]([C:5]([H:11])([H:14])[H:15])([H:16])[H:17])([H:18])[H:19])([H:12])[H:13])([H:8])([H:9])[H:10]"
C        2.03016178      -0.73558667      -0.79224932
C        0.68867767      -0.32732549       0.35775666
O        0.78561554      -0.01895456       1.63241310
C        0.79476579       0.85735900      -0.55626159
C       -1.31385877       1.25350804       0.51074193
C       -1.79051538      -0.21315245       0.44060418
C       -0.59933389      -1.06772813      -0.01711109
H        2.93679815      -0.48441670      -0.23823984
H        2.23113477      -0.56265592      -1.85131144
H        1.95684388      -1.82658511      -0.78138288
H       -0.13193016       1.18489746       1.60687246
H        1.46692238       1.65327506      -0.23832208
H        0.42077559       0.94748997      -1.57300731
H       -1.86401621       1.77607174       1.29678893
H       -1.68180464       1.80207098      -0.36291980
H       -2.63877814      -0.35842033      -0.22936570
H       -2.10503699      -0.55802144       1.42669048
H       -0.68187233      -1.27594581      -1.08753409
H       -0.50454902      -2.04587965       0.45583741
19
Frame=14 idx=008679 GeodesicLength=1.8007015806116966 rxn_smarts="[C:1]([C:2]1([O:3][H:11])[C:4]([H:12])([H:13])[C:5]([H:14])([H:15])[C:6]([H:16])([H:17])[C:7]1([H:18])[H:19])([H:8])([H:9])[H:10]>>[C:1]([C:4]([C:2](=[O:3])[C:7]([C:6]([C:5]([H:11])([H:14])[H:15])([H:16])[H:17])([H:18])[H:19])([H:12])[H:13])([H:8])([H:9])[H:10]"
C        2.03403056      -0.72367116      -0.80895968
C        0.68452989      -0.32692992       0.37289380
O        0.77584089      -0.00520303       1.64423016
C        0.80688110       0.84201240      -0.56283898
C       -1.31779356       1.25687658       0.50064811
C       -1.79694236      -0.21088507       0.43671415
C       -0.60076343      -1.06890900      -0.00120844
H        2.93658028      -0.50622861      -0.23400664
H        2.26533477      -0.53031459      -1.85839356
H        1.93846811      -1.81290850      -0.83249126
H       -0.12420862       1.18910367       1.65649348
H        1.48324693       1.63752343      -0.25199616
H        0.43044197       0.92834606      -1.57888728
H       -1.86376851       1.77400025       1.29295145
H       -1.70862528       1.80385914      -0.36427248
H       -2.63693805      -0.36213078      -0.24211207
H       -2.12435377      -0.55104612       1.42038642
H       -0.67795266      -1.29063205      -1.06917329
H       -0.50400825      -2.04286269       0.48002226
19
Frame=15 idx=008679 GeodesicLength=1.9294797868030087 rxn_smarts="[C:1]([C:2]1([O:3][H:11])[C:4]([H:12])([H:13])[C:5]([H:14])([H:15])[C:6]([H:16])([H:17])[C:7]1([H:18])[H:19])([H:8])([H:9])[H:10]>>[C:1]([C:4]([C:2](=[O:3])[C:7]([C:6]([C:5]([H:11])([H:14])[H:15])([H:16])[H:17])([H:18])[H:19])([H:12])[H:13])([H:8])([H:9])[H:10]"
C        2.03813106      -0.71213964      -0.82580695
C        0.68044669      -0.32565507       0.38788930
O        0.76613888       0.00926775       1.65576741
C        0.81921664       0.82674547      -0.56951660
C       -1.32210029       1.26031008       0.48945143
C       -1.80318510      -0.20873194       0.43251665
C       -0.60189520      -1.06968853       0.01467069
H        2.93566154      -0.52970761      -0.23078160
H        2.29977606      -0.49883254      -1.86433377
H        1.91901620      -1.79790187      -0.88393193
H       -0.11694486       1.19268337       1.70860351
H        1.49952886       1.62189519      -0.26550306
H        0.44044420       0.90934864      -1.58488799
H       -1.86253783       1.77187681       1.28891045
H       -1.73700077       1.80546575      -0.36562288
H       -2.63480789      -0.36662587      -0.25488307
H       -2.14326151      -0.54396187       1.41372982
H       -0.67362833      -1.30508729      -1.05060435
H       -0.50299835      -2.03926082       0.50433292
19
Frame=16 idx=008679 GeodesicLength=2.0581730453604448 rxn_smarts="[C:1]([C:2]1([O:3][H:11])[C:4]([H:12])([H:13])[C:5]([H:14])([H:15])[C:6]([H:16])([H:17])[C:7]1([H:18])[H:19])([H:8])([H:9])[H:10]>>[C:1]([C:4]([C:2](=[O:3])[C:7]([C:6]([C:5]([H:11])([H:14])[H:15])([H:16])[H:17])([H:18])[H:19])([H:12])[H:13])([H:8])([H:9])[H:10]"
C        2.04247985      -0.70101533      -0.84278883
C        0.67640572      -0.32344833       0.40274866
O        0.75647626       0.02455131       1.66701861
C        0.83179466       0.81155438      -0.57630348
C       -1.32679586       1.26381824       0.47705248
C       -1.80924997      -0.20668437       0.42798024
C       -0.60272480      -1.07004739       0.03053001
H        2.93399275      -0.55479868      -0.22864067
H        2.33433398      -0.46833366      -1.86917458
H        1.89859132      -1.78147078      -0.93565127
H       -0.11019565       1.19539850       1.76345728
H        1.51581433       1.60638812      -0.27887524
H        0.45081024       0.89049068      -1.59102296
H       -1.86019654       1.76973008       1.28460391
H       -1.76699831       1.80687629      -0.36692510
H       -2.63238758      -0.37191835      -0.26770459
H       -2.16177495      -0.53674202       1.40669826
H       -0.66886936      -1.31931883      -1.03180847
H       -0.50150608      -2.03502986       0.52880575
