16
Frame=0 idx=003559 GeodesicLength=0.0 rxn_smarts="[C:1]([C:2]([C:3]([C@@:4]1([H:14])[C:5]([H:15])([H:16])[O:6]1)([H:12])[H:13])([H:10])[H:11])([H:7])([H:8])[H:9]>>[C:1]([C:2]([C:3]([C:4](=[O+:6][C-:5]([H:15])[H:16])[H:14])([H:12])[H:13])([H:10])[H:11])([H:7])([H:8])[H:9]"
C       -1.93583646       0.92295207       0.16645712
C       -1.50636597      -0.52297009       0.38675462
C       -0.01441119      -0.68171632       0.67478011
C        0.86117915      -0.35292276      -0.47149055
C        2.89251680       0.15265692      -0.82431765
O        2.08564620      -0.86668460      -0.47537931
H       -1.44987896       1.36533219      -0.70554341
H       -1.68682431       1.54194053       1.03203016
H       -3.01339892       0.99228810       0.00818027
H       -1.76936774      -1.12693553      -0.48666787
H       -2.06558511      -0.93945941       1.22862461
H        0.22203098      -1.71265595       0.96637667
H        0.25311357      -0.06818354       1.54994581
H        0.61187064       0.30833217      -1.28850167
H        3.71384961      -0.08727855      -1.48200237
H        2.80146168       1.07530476      -0.27924654
16
Frame=1 idx=003559 GeodesicLength=0.048604055297181405 rxn_smarts="[C:1]([C:2]([C:3]([C@@:4]1([H:14])[C:5]([H:15])([H:16])[O:6]1)([H:12])[H:13])([H:10])[H:11])([H:7])([H:8])[H:9]>>[C:1]([C:2]([C:3]([C:4](=[O+:6][C-:5]([H:15])[H:16])[H:14])([H:12])[H:13])([H:10])[H:11])([H:7])([H:8])[H:9]"
C       -1.91138127       0.93569388       0.17183249
C       -1.50607950      -0.51780581       0.38711809
C       -0.01563730      -0.70267270       0.66741545
C        0.86628481      -0.38297888      -0.47750425
C        2.86423463       0.18287860      -0.80850968
O        2.10400476      -0.86624540      -0.44408481
H       -1.41961890       1.37052970      -0.70068565
H       -1.64875683       1.54839748       1.03787006
H       -2.98811116       1.02412421       0.01735735
H       -1.78417529      -1.11588783      -0.48571837
H       -2.06860466      -0.92646609       1.23073807
H        0.20006910      -1.73914925       0.95535212
H        0.26505127      -0.09740666       1.54376241
H        0.59792572       0.20122866      -1.34607616
H        3.70978153      -0.04046073      -1.44124668
H        2.73501310       1.12622081      -0.30762044
16
Frame=2 idx=003559 GeodesicLength=0.09793887043167178 rxn_smarts="[C:1]([C:2]([C:3]([C@@:4]1([H:14])[C:5]([H:15])([H:16])[O:6]1)([H:12])[H:13])([H:10])[H:11])([H:7])([H:8])[H:9]>>[C:1]([C:2]([C:3]([C:4](=[O+:6][C-:5]([H:15])[H:16])[H:14])([H:12])[H:13])([H:10])[H:11])([H:7])([H:8])[H:9]"
C       -1.88602173       0.94805903       0.17618360
C       -1.50526469      -0.51269446       0.38694235
C       -0.01713795      -0.72370934       0.66127840
C        0.87157672      -0.41111767      -0.48142480
C        2.83376166       0.21270809      -0.79490147
O        2.12098323      -0.86295239      -0.41246476
H       -1.38806637       1.37498680      -0.69675089
H       -1.61039977       1.55436249       1.04278961
H       -2.96145208       1.05563238       0.02483653
H       -1.79719201      -1.10447583      -0.48580920
H       -2.07192823      -0.91363558       1.23163730
H        0.17804201      -1.76568376       0.94403565
H        0.27520684      -0.12786123       1.53989073
H        0.58833213       0.09551336      -1.39360292
H        3.70165743       0.00716999      -1.40348744
H        2.66790282       1.17369811      -0.33915268
16
Frame=3 idx=003559 GeodesicLength=0.14741053540919347 rxn_smarts="[C:1]([C:2]([C:3]([C@@:4]1([H:14])[C:5]([H:15])([H:16])[O:6]1)([H:12])[H:13])([H:10])[H:11])([H:7])([H:8])[H:9]>>[C:1]([C:2]([C:3]([C:4](=[O+:6][C-:5]([H:15])[H:16])[H:14])([H:12])[H:13])([H:10])[H:11])([H:7])([H:8])[H:9]"
C       -1.86061967       0.95978527       0.17991464
C       -1.50401336      -0.50767662       0.38613301
C       -0.01884594      -0.74408459       0.65616708
C        0.87710590      -0.43671530      -0.48356195
C        2.80204643       0.24125326      -0.78354821
O        2.13647644      -0.85692425      -0.38091330
H       -1.35615176       1.37909959      -0.69305491
H       -1.57310884       1.55939837       1.04742504
H       -2.93435405       1.08593386       0.03092289
H       -1.80821513      -1.09265320      -0.48716366
H       -2.07550562      -0.90154943       1.23109536
H        0.15624903      -1.79131055       0.93268370
H        0.28357575      -0.15840136       1.53782886
H        0.58314139      -0.00701507      -1.43161015
H        3.69023598       0.05422392      -1.36880843
H        2.60198345       1.21663608      -0.37350997
16
Frame=4 idx=003559 GeodesicLength=0.19746707344939396 rxn_smarts="[C:1]([C:2]([C:3]([C@@:4]1([H:14])[C:5]([H:15])([H:16])[O:6]1)([H:12])[H:13])([H:10])[H:11])([H:7])([H:8])[H:9]>>[C:1]([C:2]([C:3]([C:4](=[O+:6][C-:5]([H:15])[H:16])[H:14])([H:12])[H:13])([H:10])[H:11])([H:7])([H:8])[H:9]"
C       -1.83510252       0.97086839       0.18331573
C       -1.50234831      -0.50255709       0.38471595
C       -0.02064140      -0.76388133       0.65157836
C        0.88271427      -0.46066229      -0.48445359
C        2.76902858       0.26860400      -0.77399507
O        2.15068061      -0.84847465      -0.34937317
H       -1.32412528       1.38268474      -0.68927158
H       -1.53631828       1.56332402       1.05176307
H       -2.90684461       1.11526896       0.03636364
H       -1.81771177      -1.08005667      -0.48947300
H       -2.07912523      -0.88978248       1.22910764
H        0.13472118      -1.81583941       0.92099020
H        0.29075948      -0.18907266       1.53658698
H        0.58162524      -0.10687543      -1.46157577
H        3.67637174       0.10096916      -1.33561158
H        2.53631632       1.25548274      -0.41066782
16
Frame=5 idx=003559 GeodesicLength=0.24857522302198234 rxn_smarts="[C:1]([C:2]([C:3]([C@@:4]1([H:14])[C:5]([H:15])([H:16])[O:6]1)([H:12])[H:13])([H:10])[H:11])([H:7])([H:8])[H:9]>>[C:1]([C:2]([C:3]([C:4](=[O+:6][C-:5]([H:15])[H:16])[H:14])([H:12])[H:13])([H:10])[H:11])([H:7])([H:8])[H:9]"
C       -1.80900675       0.98173769       0.18635745
C       -1.50018909      -0.49746487       0.38272139
C       -0.02260996      -0.78356202       0.64765585
C        0.88844835      -0.48373573      -0.48443929
C        2.73467070       0.29523136      -0.76528523
O        2.16370292      -0.83798456      -0.31778523
H       -1.29146842       1.38616768      -0.68581768
H       -1.49944210       1.56680021       1.05607840
H       -2.87836076       1.14432773       0.04114743
H       -1.82564877      -1.06704433      -0.49305179
H       -2.08283846      -0.87840855       1.22604205
H        0.11312201      -1.84010145       0.90932190
H        0.29672999      -0.21999027       1.53658553
H        0.58383545      -0.20533809      -1.48514607
H        3.65916423       0.14853099      -1.30486801
H        2.46989065       1.29083422      -0.44951669
16
Frame=6 idx=003559 GeodesicLength=0.3008596755978606 rxn_smarts="[C:1]([C:2]([C:3]([C@@:4]1([H:14])[C:5]([H:15])([H:16])[O:6]1)([H:12])[H:13])([H:10])[H:11])([H:7])([H:8])[H:9]>>[C:1]([C:2]([C:3]([C:4](=[O+:6][C-:5]([H:15])[H:16])[H:14])([H:12])[H:13])([H:10])[H:11])([H:7])([H:8])[H:9]"
C       -1.78243987       0.99239830       0.18936178
C       -1.49764337      -0.49226669       0.38014396
C       -0.02473072      -0.80319661       0.64412289
C        0.89432622      -0.50626987      -0.48368544
C        2.69886653       0.32115613      -0.75791323
O        2.17574575      -0.82514243      -0.28592812
H       -1.25838000       1.38957921      -0.68226503
H       -1.46239752       1.56956282       1.06056900
H       -2.84910406       1.17328672       0.04584480
H       -1.83224662      -1.05321715      -0.49780328
H       -2.08673423      -0.86728102       1.22175781
H        0.09146265      -1.86402801       0.89736711
H        0.30163360      -0.25140150       1.53735272
H        0.58947264      -0.30271649      -1.50276352
H        3.63990061       0.19684257      -1.27471516
H        2.40226838       1.32269402      -0.49144629
16
Frame=7 idx=003559 GeodesicLength=0.3545583614739177 rxn_smarts="[C:1]([C:2]([C:3]([C@@:4]1([H:14])[C:5]([H:15])([H:16])[O:6]1)([H:12])[H:13])([H:10])[H:11])([H:7])([H:8])[H:9]>>[C:1]([C:2]([C:3]([C:4](=[O+:6][C-:5]([H:15])[H:16])[H:14])([H:12])[H:13])([H:10])[H:11])([H:7])([H:8])[H:9]"
C       -1.75510531       1.00275528       0.19239732
C       -1.49472450      -0.48699804       0.37686298
C       -0.02710975      -0.82276225       0.64097151
C        0.90031701      -0.52826670      -0.48200978
C        2.66153025       0.34651792      -0.75172219
O        2.18663231      -0.80956119      -0.25328852
H       -1.22452332       1.39294521      -0.67840015
H       -1.42475519       1.57139258       1.06531645
H       -2.81871031       1.20201616       0.05049594
H       -1.83758115      -1.03849360      -0.50390295
H       -2.09091961      -0.85652781       1.21596778
H        0.06938179      -1.88751171       0.88514041
H        0.30549623      -0.28333240       1.53886719
H        0.59857945      -0.39922254      -1.51463707
H        3.61782858       0.24597506      -1.24568026
H        2.33366353       1.35107405      -0.53637865
16
Frame=8 idx=003559 GeodesicLength=0.4095007392520132 rxn_smarts="[C:1]([C:2]([C:3]([C@@:4]1([H:14])[C:5]([H:15])([H:16])[O:6]1)([H:12])[H:13])([H:10])[H:11])([H:7])([H:8])[H:9]>>[C:1]([C:2]([C:3]([C:4](=[O+:6][C-:5]([H:15])[H:16])[H:14])([H:12])[H:13])([H:10])[H:11])([H:7])([H:8])[H:9]"
C       -1.72746880       1.01295458       0.19566665
C       -1.49131291      -0.48167574       0.37291985
C       -0.02961392      -0.84208630       0.63814736
C        0.90644019      -0.54972411      -0.47971117
C        2.62294934       0.37087823      -0.74679202
O        2.19613902      -0.79189606      -0.22059464
H       -1.19038922       1.39663495      -0.67405452
H       -1.38741325       1.57254293       1.07076505
H       -2.78764764       1.23047356       0.05522450
H       -1.84121720      -1.02306008      -0.51145255
H       -2.09515268      -0.84629549       1.20880185
H        0.04732055      -1.91048173       0.87281397
H        0.30827485      -0.31524342       1.54101698
H        0.61090741      -0.49421755      -1.52135066
H        3.59373147       0.29562325      -1.21707615
H        2.26445279       1.37557298      -0.58432449
16
Frame=9 idx=003559 GeodesicLength=0.46582984245454856 rxn_smarts="[C:1]([C:2]([C:3]([C@@:4]1([H:14])[C:5]([H:15])([H:16])[O:6]1)([H:12])[H:13])([H:10])[H:11])([H:7])([H:8])[H:9]>>[C:1]([C:2]([C:3]([C:4](=[O+:6][C-:5]([H:15])[H:16])[H:14])([H:12])[H:13])([H:10])[H:11])([H:7])([H:8])[H:9]"
C       -1.69948274       1.02281728       0.19907483
C       -1.48746822      -0.47617654       0.36819750
C       -0.03220327      -0.86104381       0.63563620
C        0.91289069      -0.57059870      -0.47656232
C        2.58333683       0.39429955      -0.74222693
O        2.20451913      -0.77187795      -0.18772672
H       -1.15586503       1.40041605      -0.66914626
H       -1.35022527       1.57265136       1.07665140
H       -2.75594399       1.25850330       0.05991984
H       -1.84322906      -1.00662927      -0.52045021
H       -2.09961778      -0.83639265       1.19994765
H        0.02521161      -1.93259954       0.86046281
H        0.31013914      -0.34709753       1.54363995
H        0.62682477      -0.58750777      -1.52265798
H        3.56619842       0.34571591      -1.19109138
H        2.19491478       1.39552030      -0.63366838
16
Frame=10 idx=003559 GeodesicLength=0.5235044250776015 rxn_smarts="[C:1]([C:2]([C:3]([C@@:4]1([H:14])[C:5]([H:15])([H:16])[O:6]1)([H:12])[H:13])([H:10])[H:11])([H:7])([H:8])[H:9]>>[C:1]([C:2]([C:3]([C:4](=[O+:6][C-:5]([H:15])[H:16])[H:14])([H:12])[H:13])([H:10])[H:11])([H:7])([H:8])[H:9]"
C       -1.67125259       1.03252164       0.20287348
C       -1.48321463      -0.47061332       0.36277346
C       -0.03493962      -0.87975616       0.63339578
C        0.91957227      -0.59103324      -0.47279485
C        2.54263033       0.41675481      -0.73882320
O        2.21148452      -0.74968644      -0.15471470
H       -1.12106456       1.40465654      -0.66355812
H       -1.31336477       1.57197329       1.08343160
H       -2.72368333       1.28625245       0.06489839
H       -1.84357150      -0.98940428      -0.53098495
H       -2.10430638      -0.82705986       1.18959950
H        0.00300637      -1.95415442       0.84809559
H        0.31101729      -0.37890049       1.54679155
H        0.64598579      -0.67915552      -1.51932108
H        3.53646840       0.39620904      -1.16594592
H        2.12523242       1.41139596      -0.68571653
16
Frame=11 idx=003559 GeodesicLength=0.5824000882664284 rxn_smarts="[C:1]([C:2]([C:3]([C@@:4]1([H:14])[C:5]([H:15])([H:16])[O:6]1)([H:12])[H:13])([H:10])[H:11])([H:7])([H:8])[H:9]>>[C:1]([C:2]([C:3]([C:4](=[O+:6][C-:5]([H:15])[H:16])[H:14])([H:12])[H:13])([H:10])[H:11])([H:7])([H:8])[H:9]"
C       -1.64303669       1.04209227       0.20729169
C       -1.47861768      -0.46495502       0.35657754
C       -0.03782983      -0.89814495       0.63140327
C        0.92661940      -0.61076651      -0.46829658
C        2.50112582       0.43810000      -0.73667327
O        2.21703933      -0.72499052      -0.12136805
H       -1.08610734       1.40960741      -0.65689356
H       -1.27733066       1.57035221       1.09148867
H       -2.69116928       1.31369833       0.07030897
H       -1.84208756      -0.97120012      -0.54324568
H       -2.10937813      -0.81844944       1.17752697
H       -0.01922974      -1.97508686       0.83557243
H        0.31076423      -0.41068830       1.55053864
H        0.66860660      -0.76903132      -1.51117524
H        3.50467888       0.44679906      -1.14184853
H        2.05595263       1.42266376      -0.74120727
16
Frame=12 idx=003559 GeodesicLength=0.6429611642968948 rxn_smarts="[C:1]([C:2]([C:3]([C@@:4]1([H:14])[C:5]([H:15])([H:16])[O:6]1)([H:12])[H:13])([H:10])[H:11])([H:7])([H:8])[H:9]>>[C:1]([C:2]([C:3]([C:4](=[O+:6][C-:5]([H:15])[H:16])[H:14])([H:12])[H:13])([H:10])[H:11])([H:7])([H:8])[H:9]"
C       -1.61440070       1.05120923       0.21235056
C       -1.47360690      -0.45912529       0.34955616
C       -0.04094653      -0.91606219       0.62943058
C        0.93378475      -0.62987965      -0.46299169
C        2.45840345       0.45831957      -0.73592591
O        2.22072822      -0.69735213      -0.08762820
H       -1.05065891       1.41478609      -0.64891691
H       -1.24138654       1.56738260       1.10053897
H       -2.65787143       1.34048075       0.07629333
H       -1.83893961      -0.95187260      -0.55697562
H       -2.11466759      -0.81028312       1.16345093
H       -0.04179007      -1.99494184       0.82265955
H        0.30959335      -0.44238021       1.55434756
H        0.69425468      -0.85714802      -1.49806768
H        3.47040475       0.49781072      -1.11835890
H        1.98709906       1.42905608      -0.79976274
16
Frame=13 idx=003559 GeodesicLength=0.7047919094400716 rxn_smarts="[C:1]([C:2]([C:3]([C@@:4]1([H:14])[C:5]([H:15])([H:16])[O:6]1)([H:12])[H:13])([H:10])[H:11])([H:7])([H:8])[H:9]>>[C:1]([C:2]([C:3]([C:4](=[O+:6][C-:5]([H:15])[H:16])[H:14])([H:12])[H:13])([H:10])[H:11])([H:7])([H:8])[H:9]"
C       -1.58589227       1.06022676       0.21816218
C       -1.46823245      -0.45315090       0.34176358
C       -0.04420234      -0.93363683       0.62761361
C        0.94138276      -0.64836342      -0.45701139
C        2.41502063       0.47736748      -0.73622186
O        2.22274108      -0.66732312      -0.05380549
H       -1.01506319       1.42077207      -0.63966131
H       -1.20654176       1.56349089       1.11103148
H       -2.62445387       1.36696319       0.08283660
H       -1.83378856      -0.93153880      -0.57239237
H       -2.12033832      -0.80275213       1.14758346
H       -0.06433186      -2.01415335       0.80955028
H        0.30733190      -0.47395995       1.55859103
H        0.72342134      -0.94320105      -1.48040917
H        3.43376131       0.54885151      -1.09646858
H        1.91918562       1.43040765      -0.86116204
16
Frame=14 idx=003559 GeodesicLength=0.7677912963513219 rxn_smarts="[C:1]([C:2]([C:3]([C@@:4]1([H:14])[C:5]([H:15])([H:16])[O:6]1)([H:12])[H:13])([H:10])[H:11])([H:7])([H:8])[H:9]>>[C:1]([C:2]([C:3]([C:4](=[O+:6][C-:5]([H:15])[H:16])[H:14])([H:12])[H:13])([H:10])[H:11])([H:7])([H:8])[H:9]"
C       -1.55759163       1.06899447       0.22476970
C       -1.46249217      -0.44703561       0.33319555
C       -0.04758165      -0.95067587       0.62584942
C        0.94931786      -0.66603989      -0.45035519
C        2.37108378       0.49513095      -0.73754411
O        2.22283714      -0.63486825      -0.02005229
H       -0.97930674       1.42750041      -0.62886268
H       -1.17300695       1.55852316       1.12300827
H       -2.59099933       1.39280814       0.08984303
H       -1.82667890      -0.91024677      -0.58936345
H       -2.12627505      -0.79586759       1.12983372
H       -0.08682807      -2.03243224       0.79618583
H        0.30414696      -0.50515299       1.56302176
H        0.75578911      -1.02661212      -1.45818793
H        3.39465084       0.59947940      -1.07652381
H        1.85293478       1.42649477      -0.92481782
16
Frame=15 idx=003559 GeodesicLength=0.8318368144324009 rxn_smarts="[C:1]([C:2]([C:3]([C@@:4]1([H:14])[C:5]([H:15])([H:16])[O:6]1)([H:12])[H:13])([H:10])[H:11])([H:7])([H:8])[H:9]>>[C:1]([C:2]([C:3]([C:4](=[O+:6][C-:5]([H:15])[H:16])[H:14])([H:12])[H:13])([H:10])[H:11])([H:7])([H:8])[H:9]"
C       -1.52961524       1.07750329       0.23225070
C       -1.45641496      -0.44075844       0.32391386
C       -0.05107326      -0.96714700       0.62405272
C        0.95757877      -0.68290854      -0.44311254
C        2.32668599       0.51150815      -0.74005771
O        2.22087480      -0.60004303       0.01340314
H       -0.94335234       1.43499348      -0.61630763
H       -1.14106460       1.55246590       1.13657093
H       -2.55765015       1.41795938       0.09729604
H       -1.81764947      -0.88800555      -0.60772078
H       -2.13244861      -0.78957256       1.11026367
H       -0.10923296      -2.04974004       0.78249087
H        0.30012800      -0.53589421       1.56748288
H        0.79119163      -1.10713603      -1.43153491
H        3.35326810       0.64964973      -1.05837601
H        1.78877429       1.41712546      -0.99061524
16
Frame=16 idx=003559 GeodesicLength=0.8969217311150189 rxn_smarts="[C:1]([C:2]([C:3]([C@@:4]1([H:14])[C:5]([H:15])([H:16])[O:6]1)([H:12])[H:13])([H:10])[H:11])([H:7])([H:8])[H:9]>>[C:1]([C:2]([C:3]([C:4](=[O+:6][C-:5]([H:15])[H:16])[H:14])([H:12])[H:13])([H:10])[H:11])([H:7])([H:8])[H:9]"
C       -1.50198676       1.08575175       0.24063493
C       -1.44999686      -0.43429715       0.31395717
C       -0.05466784      -0.98306140       0.62216664
C        0.96616844      -0.69901779      -0.43532412
C        2.28182818       0.52646695      -0.74381233
O        2.21671102      -0.56287482       0.04638146
H       -0.90701974       1.44324832      -0.60179633
H       -1.11093519       1.54531051       1.15180018
H       -2.52442789       1.44240801       0.10506518
H       -1.80671106      -0.86482148      -0.62733151
H       -2.13880947      -0.78378237       1.08890848
H       -0.13152576      -2.06609065       0.76839978
H        0.29535880      -0.56616813       1.57187199
H        0.82950138      -1.18457645      -1.40054431
H        3.30953537       0.69929069      -1.04222801
H        1.72697738       1.40221401      -1.05814919
