14
Frame=0 idx=002371 GeodesicLength=0.0 rxn_smarts="[C:1]([O:2][C:3]([C@@:4]1([H:12])[C:5]([H:13])([H:14])[O:6]1)([H:10])[H:11])([H:7])([H:8])[H:9]>>[C-:1]([O+:2]=[C:3]([C@@:4]1([H:12])[C:5]([H:13])([H:14])[O:6]1)[H:10])([H:7])[H:8].[H:9][H:11]"
C       -2.38585066      -0.07574420       0.36124574
O       -1.23279353      -0.61188757       0.06335559
C       -0.09464909       0.01673852       0.21036795
C        1.09159988      -0.69094459      -0.27365504
C        2.41644825      -0.08978339      -0.17106087
O        2.04519580      -1.13807724       0.70251766
H       -3.23320340      -0.69295189       0.10407745
H       -2.43441191       0.63092018       1.18121032
H       -1.78076502       1.36270058      -0.72646804
H       -0.01075544       0.73339012       1.02149102
H       -0.97443180       1.40783906      -0.78639087
H        0.90181220      -1.40644781      -1.06915342
H        2.51749400       0.88890887       0.29231090
H        3.17431073      -0.33466070      -0.90984838
14
Frame=1 idx=002371 GeodesicLength=0.09555028914988582 rxn_smarts="[C:1]([O:2][C:3]([C@@:4]1([H:12])[C:5]([H:13])([H:14])[O:6]1)([H:10])[H:11])([H:7])([H:8])[H:9]>>[C-:1]([O+:2]=[C:3]([C@@:4]1([H:12])[C:5]([H:13])([H:14])[O:6]1)[H:10])([H:7])[H:8].[H:9][H:11]"
C       -2.39169083      -0.06249682       0.33218795
O       -1.23578445      -0.61454433       0.06139148
C       -0.09576563       0.01373932       0.22131580
C        1.09108665      -0.69602420      -0.26085094
C        2.41186133      -0.08157518      -0.18992885
O        2.06133555      -1.11401090       0.71106118
H       -3.23511957      -0.68876399       0.08233281
H       -2.45147930       0.62935541       1.16478378
H       -1.77016812       1.37036864      -0.70644650
H       -0.01921304       0.70092863       1.05890462
H       -0.94055382       1.40394341      -0.75627694
H        0.90032312      -1.43102330      -1.03841547
H        2.51240373       0.90689132       0.25229979
H        3.16276437      -0.33678801      -0.93235873
14
Frame=2 idx=002371 GeodesicLength=0.19043849875643032 rxn_smarts="[C:1]([O:2][C:3]([C@@:4]1([H:12])[C:5]([H:13])([H:14])[O:6]1)([H:10])[H:11])([H:7])([H:8])[H:9]>>[C-:1]([O+:2]=[C:3]([C@@:4]1([H:12])[C:5]([H:13])([H:14])[O:6]1)[H:10])([H:7])[H:8].[H:9][H:11]"
C       -2.39644228      -0.04941884       0.30393355
O       -1.23855300      -0.61688228       0.05854205
C       -0.09675959       0.01080753       0.23215494
C        1.09086994      -0.70083359      -0.24805046
C        2.40696431      -0.07374242      -0.20847214
O        2.07715960      -1.08971655       0.71904301
H       -3.23650880      -0.68366191       0.06101076
H       -2.46751077       0.62783426       1.14843157
H       -1.76099769       1.37769388      -0.68682093
H       -0.02810121       0.66801031       1.09477094
H       -0.90741927       1.39996484      -0.72579307
H        0.89963789      -1.45483035      -1.00736798
H        2.50644119       0.92399437       0.21265566
H        3.15121967      -0.33921927      -0.95403791
14
Frame=3 idx=002371 GeodesicLength=0.2849494049493463 rxn_smarts="[C:1]([O:2][C:3]([C@@:4]1([H:12])[C:5]([H:13])([H:14])[O:6]1)([H:10])[H:11])([H:7])([H:8])[H:9]>>[C-:1]([O+:2]=[C:3]([C@@:4]1([H:12])[C:5]([H:13])([H:14])[O:6]1)[H:10])([H:7])[H:8].[H:9][H:11]"
C       -2.40019074      -0.03650941       0.27648841
O       -1.24108111      -0.61886871       0.05472428
C       -0.09764212       0.00794072       0.24289526
C        1.09094176      -0.70537134      -0.23524096
C        2.40179121      -0.06628279      -0.22672862
O        2.09266528      -1.06513538       0.72653347
H       -3.23740764      -0.67771990       0.04005314
H       -2.48252758       0.62632180       1.13222902
H       -1.75332653       1.38470122      -0.66770256
H       -0.03743874       0.63457498       1.12920953
H       -0.87490266       1.39602542      -0.69482896
H        0.89973139      -1.47793028      -0.97595120
H        2.49968723       0.94026709       0.17324859
H        3.13970025      -0.34201341      -0.97492940
14
Frame=4 idx=002371 GeodesicLength=0.3794979742223365 rxn_smarts="[C:1]([O:2][C:3]([C@@:4]1([H:12])[C:5]([H:13])([H:14])[O:6]1)([H:10])[H:11])([H:7])([H:8])[H:9]>>[C-:1]([O+:2]=[C:3]([C@@:4]1([H:12])[C:5]([H:13])([H:14])[O:6]1)[H:10])([H:7])[H:8].[H:9][H:11]"
C       -2.40300473      -0.02375650       0.24990247
O       -1.24334382      -0.62046811       0.04986480
C       -0.09842205       0.00515847       0.25352129
C        1.09129559      -0.70960507      -0.22245150
C        2.39637693      -0.05921786      -0.24468493
O        2.10779554      -1.04028031       0.73352609
H       -3.23782721      -0.67107694       0.01956695
H       -2.49651910       0.62486058       1.11622430
H       -1.74730596       1.39133371      -0.64930629
H       -0.04722634       0.60060703       1.16227214
H       -0.84288130       1.39224003      -0.66330917
H        0.90059278      -1.50026042      -0.94421941
H        2.49222533       0.95568520       0.13410227
H        3.12824435      -0.34521981      -0.99500899
14
Frame=5 idx=002371 GeodesicLength=0.4740139751710898 rxn_smarts="[C:1]([O:2][C:3]([C@@:4]1([H:12])[C:5]([H:13])([H:14])[O:6]1)([H:10])[H:11])([H:7])([H:8])[H:9]>>[C-:1]([O+:2]=[C:3]([C@@:4]1([H:12])[C:5]([H:13])([H:14])[O:6]1)[H:10])([H:7])[H:8].[H:9][H:11]"
C       -2.40497605      -0.01115146       0.22414944
O       -1.24531358      -0.62162657       0.04387862
C       -0.09910763       0.00244754       0.26406654
C        1.09192061      -0.71354373      -0.20966097
C        2.39075983      -0.05253333      -0.26239284
O        2.12258019      -1.01509160       0.74010534
H       -3.23782595      -0.66379950      -0.00047987
H       -2.50951167       0.62343497       1.10047963
H       -1.74295682       1.39763625      -0.63182872
H       -0.05749653       0.56597175       1.19407183
H       -0.81125954       1.38871669      -0.63101390
H        0.90217880      -1.52190117      -0.91209978
H        2.48412541       0.97030254       0.09506488
H        3.11688294      -0.34886237      -1.01434018
14
Frame=6 idx=002371 GeodesicLength=0.5689242439269667 rxn_smarts="[C:1]([O:2][C:3]([C@@:4]1([H:12])[C:5]([H:13])([H:14])[O:6]1)([H:10])[H:11])([H:7])([H:8])[H:9]>>[C-:1]([O+:2]=[C:3]([C@@:4]1([H:12])[C:5]([H:13])([H:14])[O:6]1)[H:10])([H:7])[H:8].[H:9][H:11]"
C       -2.40615263       0.00134638       0.19928081
O       -1.24695574      -0.62229192       0.03670613
C       -0.09970127      -0.00016648       0.27452077
C        1.09281337      -0.71713740      -0.19692293
C        2.38496928      -0.04626186      -0.27980453
O        2.13693808      -0.98963558       0.74620200
H       -3.23737312      -0.65607047      -0.01986030
H       -2.52147931       0.62217576       1.08498423
H       -1.74047629       1.40348867      -0.61557995
H       -0.06823946       0.53062889       1.22462941
H       -0.77992568       1.38555380      -0.59782600
H        0.90448529      -1.54272062      -0.87970570
H        2.47545076       0.98406033       0.05625083
H        3.10564672      -0.35296951      -1.03287477
14
Frame=7 idx=002371 GeodesicLength=0.6642548130761748 rxn_smarts="[C:1]([O:2][C:3]([C@@:4]1([H:12])[C:5]([H:13])([H:14])[O:6]1)([H:10])[H:11])([H:7])([H:8])[H:9]>>[C-:1]([O+:2]=[C:3]([C@@:4]1([H:12])[C:5]([H:13])([H:14])[O:6]1)[H:10])([H:7])[H:8].[H:9][H:11]"
C       -2.40660648       0.01376280       0.17528452
O       -1.24823413      -0.62239167       0.02827398
C       -0.10020807      -0.00269337       0.28491819
C        1.09396049      -0.72038148      -0.18424924
C        2.37903608      -0.04039772      -0.29694121
O        2.15087923      -0.96390452       0.75184413
H       -3.23649205      -0.64799671      -0.03846661
H       -2.53242141       0.62116571       1.06974049
H       -1.73994178       1.40887001      -0.60085934
H       -0.07947769       0.49442846       1.25400678
H       -0.74879342       1.38283302      -0.56349107
H        0.90747063      -1.56272962      -0.84704095
H        2.46625637       0.99697146       0.01762428
H        3.09457222      -0.35753636      -1.05064395
14
Frame=8 idx=002371 GeodesicLength=0.7602368430753039 rxn_smarts="[C:1]([O:2][C:3]([C@@:4]1([H:12])[C:5]([H:13])([H:14])[O:6]1)([H:10])[H:11])([H:7])([H:8])[H:9]>>[C-:1]([O+:2]=[C:3]([C@@:4]1([H:12])[C:5]([H:13])([H:14])[O:6]1)[H:10])([H:7])[H:8].[H:9][H:11]"
C       -2.40638634       0.02614778       0.15218210
O       -1.24910884      -0.62188090       0.01854279
C       -0.10063034      -0.00513355       0.29528387
C        1.09535385      -0.72324680      -0.17168693
C        2.37298212      -0.03494785      -0.31377506
O        2.16435507      -0.93795978       0.75697530
H       -3.23514510      -0.63970239      -0.05604152
H       -2.54229633       0.62057743       1.05469450
H       -1.74151230       1.41366155      -0.58803618
H       -0.09122129       0.45725073       1.28222063
H       -0.71778026       1.38060508      -0.52781265
H        0.91112317      -1.58182389      -0.81422075
H        2.45658246       1.00899655      -0.02070402
H        3.08368412      -0.36254396      -1.06762208
14
Frame=9 idx=002371 GeodesicLength=0.8555889895852665 rxn_smarts="[C:1]([O:2][C:3]([C@@:4]1([H:12])[C:5]([H:13])([H:14])[O:6]1)([H:10])[H:11])([H:7])([H:8])[H:9]>>[C-:1]([O+:2]=[C:3]([C@@:4]1([H:12])[C:5]([H:13])([H:14])[O:6]1)[H:10])([H:7])[H:8].[H:9][H:11]"
C       -2.40546687       0.03860282       0.12963141
O       -1.24952770      -0.62053767       0.00766506
C       -0.10094210      -0.00756146       0.30581728
C        1.09696860      -0.72584139      -0.15908428
C        2.36677840      -0.02987216      -0.33051425
O        2.17758812      -0.91157697       0.76175499
H       -3.23315903      -0.63119040      -0.07318280
H       -2.55136150       0.62029413       1.03974464
H       -1.74486331       1.41815769      -0.57662425
H       -0.10340967       0.41898098       1.30938233
H       -0.68714870       1.37862386      -0.49045630
H        0.91528227      -1.60031151      -0.78085628
H        2.44640065       1.02026151      -0.05920719
H        3.07286084      -0.36802945      -1.08407037
14
Frame=10 idx=002371 GeodesicLength=0.9516502978956554 rxn_smarts="[C:1]([O:2][C:3]([C@@:4]1([H:12])[C:5]([H:13])([H:14])[O:6]1)([H:10])[H:11])([H:7])([H:8])[H:9]>>[C-:1]([O+:2]=[C:3]([C@@:4]1([H:12])[C:5]([H:13])([H:14])[O:6]1)[H:10])([H:7])[H:8].[H:9][H:11]"
C       -2.40397222       0.05108496       0.10796698
O       -1.24945916      -0.61843212      -0.00460289
C       -0.10118433      -0.00995160       0.31637747
C        1.09880737      -0.72805110      -0.14664345
C        2.36048465      -0.02518808      -0.34693253
O        2.19032484      -0.88503315       0.76601067
H       -3.23066641      -0.62267101      -0.08889629
H       -2.55929338       0.62072276       1.02493560
H       -1.75045162       1.42201963      -0.56775678
H       -0.11615357       0.37941499       1.33538994
H       -0.65652711       1.37715159      -0.45130688
H        0.92004553      -1.61782650      -0.74745940
H        2.43577558       1.03064408      -0.09735809
H        3.06226983      -0.37388445      -1.09972435
14
Frame=11 idx=002371 GeodesicLength=1.0481699150997656 rxn_smarts="[C:1]([O:2][C:3]([C@@:4]1([H:12])[C:5]([H:13])([H:14])[O:6]1)([H:10])[H:11])([H:7])([H:8])[H:9]>>[C-:1]([O+:2]=[C:3]([C@@:4]1([H:12])[C:5]([H:13])([H:14])[O:6]1)[H:10])([H:7])[H:8].[H:9][H:11]"
C       -2.40197991       0.06361778       0.08717838
O       -1.24886648      -0.61548650      -0.01832122
C       -0.10137562      -0.01235728       0.32698193
C        1.10084918      -0.72990019      -0.13439186
C        2.35412687      -0.02085707      -0.36301503
O        2.20257338      -0.85835251       0.76977471
H       -3.22771456      -0.61422471      -0.10295254
H       -2.56604168       0.62202934       1.01027427
H       -1.75824943       1.42525061      -0.56177393
H       -0.12948263       0.33835576       1.36021058
H       -0.62588912       1.37613762      -0.41014160
H        0.92536791      -1.63438699      -0.71409785
H        2.42472351       1.04020272      -0.13514778
H        3.05195857      -0.38002858      -1.11457806
14
Frame=12 idx=002371 GeodesicLength=1.1451857532850545 rxn_smarts="[C:1]([O:2][C:3]([C@@:4]1([H:12])[C:5]([H:13])([H:14])[O:6]1)([H:10])[H:11])([H:7])([H:8])[H:9]>>[C-:1]([O+:2]=[C:3]([C@@:4]1([H:12])[C:5]([H:13])([H:14])[O:6]1)[H:10])([H:7])[H:8].[H:9][H:11]"
C       -2.39953015       0.07621502       0.06730067
O       -1.24771048      -0.61162466      -0.03349622
C       -0.10153076      -0.01480456       0.33762542
C        1.10307563      -0.73137861      -0.12240037
C        2.34772343      -0.01686204      -0.37868593
O        2.21425953      -0.83165730       0.77301172
H       -3.22422957      -0.60596876      -0.11496215
H       -2.57152920       0.62445935       0.99569123
H       -1.76838324       1.42775423      -0.55904150
H       -0.14339494       0.29571075       1.38374333
H       -0.59518919       1.37550937      -0.36685323
H        0.93121436      -1.64989529      -0.68098045
H        2.41325986       1.04891469      -0.17237500
H        3.04196472      -0.38637219      -1.12857751
14
Frame=13 idx=002371 GeodesicLength=1.2425918937795972 rxn_smarts="[C:1]([O:2][C:3]([C@@:4]1([H:12])[C:5]([H:13])([H:14])[O:6]1)([H:10])[H:11])([H:7])([H:8])[H:9]>>[C-:1]([O+:2]=[C:3]([C@@:4]1([H:12])[C:5]([H:13])([H:14])[O:6]1)[H:10])([H:7])[H:8].[H:9][H:11]"
C       -2.39668751       0.08891392       0.04841076
O       -1.24596259      -0.60682365      -0.05008536
C       -0.10167171      -0.01735533       0.34829225
C        1.10546361      -0.73248879      -0.11077288
C        2.34131915      -0.01316073      -0.39381570
O        2.22529668      -0.80515976       0.77568023
H       -3.22022259      -0.59792699      -0.12439857
H       -2.57562357       0.62833564       0.98112313
H       -1.78096486       1.42929938      -0.56000551
H       -0.15786195       0.25143243       1.40582827
H       -0.56445309       1.37508422      -0.32146263
H        0.93754446      -1.66420575      -0.64846479
H        2.40143425       1.05678720      -0.20870834
H        3.03238972      -0.39273177      -1.14162086
14
Frame=14 idx=002371 GeodesicLength=1.339836226161709 rxn_smarts="[C:1]([O:2][C:3]([C@@:4]1([H:12])[C:5]([H:13])([H:14])[O:6]1)([H:10])[H:11])([H:7])([H:8])[H:9]>>[C-:1]([O+:2]=[C:3]([C@@:4]1([H:12])[C:5]([H:13])([H:14])[O:6]1)[H:10])([H:7])[H:8].[H:9][H:11]"
C       -2.39355881       0.10165485       0.03044465
O       -1.24359087      -0.60096201      -0.06803049
C       -0.10181724      -0.02006877       0.35901001
C        1.10797098      -0.73329358      -0.09954169
C        2.33494094      -0.00966006      -0.40839551
O        2.23572610      -0.77897007       0.77790411
H       -3.21577977      -0.59034893      -0.13091917
H       -2.57824074       0.63395143       0.96662391
H       -1.79585246       1.43011618      -0.56524429
H       -0.17291936       0.20533123       1.42635179
H       -0.53367647       1.37464693      -0.27368860
H        0.94422985      -1.67744087      -0.61668775
H        2.38930715       1.06395690      -0.24404346
H        3.02326071      -0.39891323      -1.15378352
14
Frame=15 idx=002371 GeodesicLength=1.4367115619293798 rxn_smarts="[C:1]([O:2][C:3]([C@@:4]1([H:12])[C:5]([H:13])([H:14])[O:6]1)([H:10])[H:11])([H:7])([H:8])[H:9]>>[C-:1]([O+:2]=[C:3]([C@@:4]1([H:12])[C:5]([H:13])([H:14])[O:6]1)[H:10])([H:7])[H:8].[H:9][H:11]"
C       -2.39019558       0.11444335       0.01346885
O       -1.24058607      -0.59400363      -0.08721463
C       -0.10198781      -0.02301311       0.36976279
C        1.11056424      -0.73381114      -0.08882640
C        2.32862650      -0.00631075      -0.42225925
O        2.24546020      -0.75337920       0.77964719
H       -3.21084877      -0.58332289      -0.13388566
H       -2.57923955       0.64171901       0.95211048
H       -1.81317412       1.43000393      -0.57526463
H       -0.18852177       0.15743241       1.44509344
H       -0.50290179       1.37393284      -0.22363249
H        0.95121152      -1.68945969      -0.58609174
H        2.37694107       1.07045456      -0.27793675
H        3.01465192      -0.40468570      -1.16497121
14
Frame=16 idx=002371 GeodesicLength=1.532815809886233 rxn_smarts="[C:1]([O:2][C:3]([C@@:4]1([H:12])[C:5]([H:13])([H:14])[O:6]1)([H:10])[H:11])([H:7])([H:8])[H:9]>>[C-:1]([O+:2]=[C:3]([C@@:4]1([H:12])[C:5]([H:13])([H:14])[O:6]1)[H:10])([H:7])[H:8].[H:9][H:11]"
C       -2.38667598       0.12725250      -0.00247096
O       -1.23694825      -0.58592494      -0.10751728
C       -0.10220663      -0.02627244       0.38052462
C        1.11320798      -0.73408573      -0.07873766
C        2.32241871      -0.00302846      -0.43525394
O        2.25444559      -0.72867218       0.78093025
H       -3.20544704      -0.57696788      -0.13263635
H       -2.57843055       0.65210291       0.93754336
H       -1.83300142       1.42883942      -0.59067306
H       -0.20464178       0.10771849       1.46183699
H       -0.47217307       1.37265754      -0.17136319
H        0.95842362      -1.70020363      -0.55710627
H        2.36440178       1.07637162      -0.30995129
H        3.00662705      -0.40978722      -1.17512523
