14
Frame=0 idx=006143 GeodesicLength=0.0 rxn_smarts="[O:1]([C:2]([C:3]1([H:10])[C:4]([H:11])([H:12])[O:5][C:6]1([H:13])[H:14])([H:8])[H:9])[H:7]>>[H:7][H:8].[O:1]=[C:2]([C:3]1([H:10])[C:4]([H:11])([H:12])[O:5][C:6]1([H:13])[H:14])[H:9]"
O        2.04782982       1.16239390      -0.23293620
C        1.25466894       0.11187934      -0.15514456
C       -0.14176719       0.28135257       0.38153869
C       -1.08624700       0.75994446      -0.73580196
O       -1.75779853      -0.50731091      -0.76355870
C       -1.02684855      -0.96889026       0.37874813
H        2.27662871       0.08456054       0.63445019
H        1.80820060      -0.74063654       0.85458122
H        1.31156071      -0.65057147      -0.95452694
H       -0.12633748       0.88694813       1.28434246
H       -1.75496422       1.57255744      -0.44235543
H       -0.61756620       1.00495397      -1.69243918
H       -1.66806459      -1.07687347       1.25774991
H       -0.51929498      -1.92030768       0.18535237
14
Frame=1 idx=006143 GeodesicLength=0.10494040760149231 rxn_smarts="[O:1]([C:2]([C:3]1([H:10])[C:4]([H:11])([H:12])[O:5][C:6]1([H:13])[H:14])([H:8])[H:9])[H:7]>>[H:7][H:8].[O:1]=[C:2]([C:3]1([H:10])[C:4]([H:11])([H:12])[O:5][C:6]1([H:13])[H:14])[H:9]"
O        2.04645066       1.15318610      -0.23769046
C        1.25305930       0.10390100      -0.15603802
C       -0.14394241       0.27875161       0.37619158
C       -1.09136153       0.76133238      -0.73662649
O       -1.76833746      -0.50304431      -0.76266412
C       -1.03200358      -0.96966839       0.37410241
H        2.30528701       0.09696152       0.64800344
H        1.83179021      -0.73315638       0.88182714
H        1.30457100      -0.65113991      -0.96297931
H       -0.12561743       0.88260860       1.28019997
H       -1.75604330       1.57597937      -0.43937324
H       -0.62638758       1.00472084      -1.69548753
H       -1.66869753      -1.07846199       1.25630232
H       -0.52876737      -1.92197043       0.17423229
14
Frame=2 idx=006143 GeodesicLength=0.20965628873579928 rxn_smarts="[O:1]([C:2]([C:3]1([H:10])[C:4]([H:11])([H:12])[O:5][C:6]1([H:13])[H:14])([H:8])[H:9])[H:7]>>[H:7][H:8].[O:1]=[C:2]([C:3]1([H:10])[C:4]([H:11])([H:12])[O:5][C:6]1([H:13])[H:14])[H:9]"
O        2.04524071       1.14309162      -0.24239170
C        1.25134695       0.09519277      -0.15714567
C       -0.14613332       0.27586865       0.37071157
C       -1.09650086       0.76274949      -0.73739616
O       -1.77911082      -0.49860595      -0.76174798
C       -1.03740578      -0.97055880       0.36929662
H        2.33477804       0.11047519       0.66198896
H        1.85587160      -0.72439493       0.90990420
H        1.29709463      -0.65180955      -0.97209203
H       -0.12471768       0.87786475       1.27598934
H       -1.75693919       1.57949869      -0.43617372
H       -0.63531807       1.00457486      -1.69848494
H       -1.66949623      -1.08017326       1.25471707
H       -0.53870998      -1.92377355       0.16282446
14
Frame=3 idx=006143 GeodesicLength=0.31431287385144346 rxn_smarts="[O:1]([C:2]([C:3]1([H:10])[C:4]([H:11])([H:12])[O:5][C:6]1([H:13])[H:14])([H:8])[H:9])[H:7]>>[H:7][H:8].[O:1]=[C:2]([C:3]1([H:10])[C:4]([H:11])([H:12])[O:5][C:6]1([H:13])[H:14])[H:9]"
O        2.04424108       1.13200048      -0.24702010
C        1.24951582       0.08567158      -0.15851516
C       -0.14833115       0.27266406       0.36508251
C       -1.10165951       0.76419978      -0.73810034
O       -1.79014751      -0.49397035      -0.76080160
C       -1.04308190      -0.97157377       0.36431639
H        2.36513414       0.12527587       0.67652215
H        1.88048818      -0.71422081       0.93880350
H        1.28908916      -0.65261228      -0.98191968
H       -0.12360395       0.87266415       1.27169967
H       -1.75761599       1.58312935      -0.43272374
H       -0.64436901       1.00452508      -1.70142609
H       -1.67047392      -1.08201624       1.25298801
H       -0.54918543      -1.92573692       0.15109449
14
Frame=4 idx=006143 GeodesicLength=0.4190252588063017 rxn_smarts="[O:1]([C:2]([C:3]1([H:10])[C:4]([H:11])([H:12])[O:5][C:6]1([H:13])[H:14])([H:8])[H:9])[H:7]>>[H:7][H:8].[O:1]=[C:2]([C:3]1([H:10])[C:4]([H:11])([H:12])[O:5][C:6]1([H:13])[H:14])[H:9]"
O        2.04349181       1.11979337      -0.25155693
C        1.24755078       0.07524559      -0.16018799
C       -0.15052777       0.26909223       0.35929166
C       -1.10682611       0.76568756      -0.73872522
O       -1.80147472      -0.48910741      -0.75981749
C       -1.04906395      -0.97272692       0.35914602
H        2.39638447       0.14156706       0.69169655
H        1.90568291      -0.70249656       0.96851373
H        1.28051264      -0.65358622      -0.99250853
H       -0.12224216       0.86694574       1.26732526
H       -1.75802921       1.58688658      -0.42898686
H       -0.65354282       1.00458271      -1.70430053
H       -1.67165102      -1.08400143       1.25110538
H       -0.56026485      -1.92788229       0.13900494
14
Frame=5 idx=006143 GeodesicLength=0.5237992381019234 rxn_smarts="[O:1]([C:2]([C:3]1([H:10])[C:4]([H:11])([H:12])[O:5][C:6]1([H:13])[H:14])([H:8])[H:9])[H:7]>>[H:7][H:8].[O:1]=[C:2]([C:3]1([H:10])[C:4]([H:11])([H:12])[O:5][C:6]1([H:13])[H:14])[H:9]"
O        2.04302453       1.10635639      -0.25599917
C        1.24544295       0.06384333      -0.16218625
C       -0.15271277       0.26511238       0.35332801
C       -1.11198934       0.76721846      -0.73925719
O       -1.81311248      -0.48399098      -0.75879235
C       -1.05537896      -0.97402934       0.35377121
H        2.42853466       0.15952451       0.70758987
H        1.93149461      -0.68910893       0.99899979
H        1.27133388      -0.65476000      -1.00387205
H       -0.12060208       0.86065254       1.26286069
H       -1.75814041       1.59078460      -0.42492841
H       -0.66283680       1.00476104      -1.70709605
H       -1.67304664      -1.08613712       1.24905772
H       -0.57201115      -1.93022689       0.12652418
14
Frame=6 idx=006143 GeodesicLength=0.628815172083427 rxn_smarts="[O:1]([C:2]([C:3]1([H:10])[C:4]([H:11])([H:12])[O:5][C:6]1([H:13])[H:14])([H:8])[H:9])[H:7]>>[H:7][H:8].[O:1]=[C:2]([C:3]1([H:10])[C:4]([H:11])([H:12])[O:5][C:6]1([H:13])[H:14])[H:9]"
O        2.04291829       1.09149367      -0.26028496
C        1.24316132       0.05132400      -0.16458072
C       -0.15487701       0.26065626       0.34717490
C       -1.11712817       0.76879893      -0.73967551
O       -1.82510398      -0.47857129      -0.75770999
C       -1.06207718      -0.97549984       0.34817158
H        2.46159616       0.17950111       0.72436231
H        1.95800415      -0.67386611       1.03018571
H        1.26149460      -0.65620862      -1.01608121
H       -0.11863174       0.85369133       1.25829988
H       -1.75787442       1.59484713      -0.42049773
H       -0.67225323       1.00507155      -1.70979948
H       -1.67469398      -1.08843774       1.24683540
H       -0.58453480      -1.93280038       0.11359981
14
Frame=7 idx=006143 GeodesicLength=0.7341702817165537 rxn_smarts="[O:1]([C:2]([C:3]1([H:10])[C:4]([H:11])([H:12])[O:5][C:6]1([H:13])[H:14])([H:8])[H:9])[H:7]>>[H:7][H:8].[O:1]=[C:2]([C:3]1([H:10])[C:4]([H:11])([H:12])[O:5][C:6]1([H:13])[H:14])[H:9]"
O        2.04324861       1.07501239      -0.26436301
C        1.24067664       0.03757191      -0.16742544
C       -0.15700814       0.25566231       0.34081721
C       -1.12222356       0.77043794      -0.73996036
O       -1.83748562      -0.47280216      -0.75655730
C       -1.06920481      -0.97715667       0.34232639
H        2.49556311       0.20181584       0.74213446
H        1.98528377      -0.65660035       1.06200047
H        1.25094576      -0.65799557      -1.02917797
H       -0.11628305       0.84597513       1.25363589
H       -1.75716372       1.59909758      -0.41564600
H       -0.68178796       1.00553123      -1.71239272
H       -1.67662522      -1.09091977       1.24442463
H       -0.59793581      -1.93562983       0.10018375
14
Frame=8 idx=006143 GeodesicLength=0.8398134463756278 rxn_smarts="[O:1]([C:2]([C:3]1([H:10])[C:4]([H:11])([H:12])[O:5][C:6]1([H:13])[H:14])([H:8])[H:9])[H:7]>>[H:7][H:8].[O:1]=[C:2]([C:3]1([H:10])[C:4]([H:11])([H:12])[O:5][C:6]1([H:13])[H:14])[H:9]"
O        2.04411363       1.05668073      -0.26816612
C        1.23796938       0.02243109      -0.17076473
C       -0.15909383       0.25004728       0.33424647
C       -1.12723382       0.77214341      -0.74007842
O       -1.85029299      -0.46662374      -0.75531911
C       -1.07682509      -0.97902212       0.33621196
H        2.53036454       0.22688827       0.76098680
H        2.01342195      -0.63709297       1.09434209
H        1.23963781      -0.66020410      -1.04320244
H       -0.11349910       0.83738426       1.24887162
H       -1.75590655       1.60356022      -0.41030905
H       -0.69140751       1.00616024      -1.71484052
H       -1.67890034      -1.09360346       1.24180248
H       -0.61234808      -1.93874914       0.08621897
14
Frame=9 idx=006143 GeodesicLength=0.9445072361435294 rxn_smarts="[O:1]([C:2]([C:3]1([H:10])[C:4]([H:11])([H:12])[O:5][C:6]1([H:13])[H:14])([H:8])[H:9])[H:7]>>[H:7][H:8].[O:1]=[C:2]([C:3]1([H:10])[C:4]([H:11])([H:12])[O:5][C:6]1([H:13])[H:14])[H:9]"
O        2.04541553       1.03609560      -0.27172994
C        1.23507067       0.00555042      -0.17433798
C       -0.16112487       0.24361684       0.32759502
C       -1.13192854       0.77390712      -0.73993295
O       -1.86339044      -0.45991611      -0.75406086
C       -1.08505460      -0.98111636       0.32980812
H        2.56554569       0.25567838       0.78054858
H        2.04250037      -0.61506464       1.12672893
H        1.22751232      -0.66294660      -1.05799060
H       -0.11029692       0.82764198       1.24416845
H       -1.75378340       1.60822844      -0.40438312
H       -0.70072201       1.00699040      -1.71696916
H       -1.68173613      -1.09648949       1.23888067
H       -0.62800767      -1.94217599       0.07167482
14
Frame=10 idx=006143 GeodesicLength=1.049354643762652 rxn_smarts="[O:1]([C:2]([C:3]1([H:10])[C:4]([H:11])([H:12])[O:5][C:6]1([H:13])[H:14])([H:8])[H:9])[H:7]>>[H:7][H:8].[O:1]=[C:2]([C:3]1([H:10])[C:4]([H:11])([H:12])[O:5][C:6]1([H:13])[H:14])[H:9]"
O        2.04739652       1.01312933      -0.27480555
C        1.23188585      -0.01309220      -0.17840464
C       -0.16309567       0.23636618       0.32076758
C       -1.13639948       0.77576505      -0.73953749
O       -1.87693947      -0.45263913      -0.75272267
C       -1.09392622      -0.98346409       0.32307452
H        2.60130883       0.28820880       0.80098124
H        2.07262908      -0.59031527       1.15941907
H        1.21457673      -0.66631871      -1.07365999
H       -0.10658163       0.81672254       1.23944474
H       -1.75084066       1.61316950      -0.39783140
H       -0.70994630       1.00804844      -1.71884374
H       -1.68508876      -1.09963294       1.23566598
H       -0.64497881      -1.94594751       0.05645235
14
Frame=11 idx=006143 GeodesicLength=1.1543517089954556 rxn_smarts="[O:1]([C:2]([C:3]1([H:10])[C:4]([H:11])([H:12])[O:5][C:6]1([H:13])[H:14])([H:8])[H:9])[H:7]>>[H:7][H:8].[O:1]=[C:2]([C:3]1([H:10])[C:4]([H:11])([H:12])[O:5][C:6]1([H:13])[H:14])[H:9]"
O        2.05008873       0.98753019      -0.27729919
C        1.22837306      -0.03367592      -0.18294609
C       -0.16500578       0.22819536       0.31378893
C       -1.14057045       0.77772958      -0.73884905
O       -1.89093901      -0.44470804      -0.75131390
C       -1.10351607      -0.98608149       0.31597729
H        2.63755169       0.32491553       0.82215078
H        2.10391204      -0.56261009       1.19231096
H        1.20081641      -0.67040185      -1.09016969
H       -0.10233213       0.80446608       1.23474695
H       -1.74693474       1.61840478      -0.39058204
H       -0.71898007       1.00936855      -1.72040646
H       -1.68905110      -1.10305908       1.23210902
H       -0.66341257      -1.95007359       0.04048250
14
Frame=12 idx=006143 GeodesicLength=1.259479413407228 rxn_smarts="[O:1]([C:2]([C:3]1([H:10])[C:4]([H:11])([H:12])[O:5][C:6]1([H:13])[H:14])([H:8])[H:9])[H:7]>>[H:7][H:8].[O:1]=[C:2]([C:3]1([H:10])[C:4]([H:11])([H:12])[O:5][C:6]1([H:13])[H:14])[H:9]"
O        2.05354216       0.95898870      -0.27907603
C        1.22449316      -0.05640374      -0.18793589
C       -0.16685426       0.21898620       0.30669262
C       -1.14434206       0.77981988      -0.73781028
O       -1.90537729      -0.43601878      -0.74984690
C       -1.11390851      -0.98898934       0.30847374
H        2.67410544       0.36631464       0.84378862
H        2.13643202      -0.53166163       1.22533465
H        1.18622858      -0.67530049      -1.10746075
H       -0.09752652       0.79067928       1.23014273
H       -1.74189047       1.62396121      -0.38254057
H       -0.72769000       1.01100104      -1.72158153
H       -1.69373347      -1.10680656       1.22814679
H       -0.68347878      -1.95457040       0.02367279
14
Frame=13 idx=006143 GeodesicLength=1.3645578217811556 rxn_smarts="[O:1]([C:2]([C:3]1([H:10])[C:4]([H:11])([H:12])[O:5][C:6]1([H:13])[H:14])([H:8])[H:9])[H:7]>>[H:7][H:8].[O:1]=[C:2]([C:3]1([H:10])[C:4]([H:11])([H:12])[O:5][C:6]1([H:13])[H:14])[H:9]"
O        2.05777076       0.92731835      -0.27996289
C        1.22020950      -0.08133464      -0.19326386
C       -0.16864687       0.20866135       0.29951018
C       -1.14763259       0.78203383      -0.73636786
O       -1.92022149      -0.42650232      -0.74834056
C       -1.12516693      -0.99219052       0.30052321
H        2.71089083       0.41258380       0.86541694
H        2.17015793      -0.49722709       1.25842343
H        1.17088972      -0.68103472      -1.12535283
H       -0.09218414       0.77520736       1.22566708
H       -1.73559858       1.62981307      -0.37364596
H       -0.73593599       1.01297996      -1.72227066
H       -1.69925397      -1.11090389       1.22369497
H       -0.70527818      -1.95940454       0.00596881
14
Frame=14 idx=006143 GeodesicLength=1.4695797365620682 rxn_smarts="[O:1]([C:2]([C:3]1([H:10])[C:4]([H:11])([H:12])[O:5][C:6]1([H:13])[H:14])([H:8])[H:9])[H:7]>>[H:7][H:8].[O:1]=[C:2]([C:3]1([H:10])[C:4]([H:11])([H:12])[O:5][C:6]1([H:13])[H:14])[H:9]"
O        2.06284740       0.89206584      -0.27965299
C        1.21546497      -0.10885909      -0.19883134
C       -0.17039252       0.19702037       0.29234368
C       -1.15025656       0.78440974      -0.73441963
O       -1.93542597      -0.41598691      -0.74685306
C       -1.13743533      -0.99573332       0.29204510
H        2.74762548       0.46444191       0.88629857
H        2.20518636      -0.45868526       1.29159467
H        1.15479369      -0.68775640      -1.14378510
H       -0.08630490       0.75772575       1.22149258
H       -1.72775725       1.63600976      -0.36373804
H       -0.74343736       1.01540315      -1.72232818
H       -1.70582921      -1.11544060       1.21862596
H       -0.72907881      -1.96461494      -0.01279221
14
Frame=15 idx=006143 GeodesicLength=1.57445293051004 rxn_smarts="[O:1]([C:2]([C:3]1([H:10])[C:4]([H:11])([H:12])[O:5][C:6]1([H:13])[H:14])([H:8])[H:9])[H:7]>>[H:7][H:8].[O:1]=[C:2]([C:3]1([H:10])[C:4]([H:11])([H:12])[O:5][C:6]1([H:13])[H:14])[H:9]"
O        2.06877305       0.85294543      -0.27780345
C        1.21021271      -0.13916472      -0.20444921
C       -0.17211407       0.18392728       0.28530112
C       -1.15205808       0.78696801      -0.73186942
O       -1.95090212      -0.40435421      -0.74546174
C       -1.15081041      -0.99964153       0.28295834
H        2.78416920       0.52209141       0.90538420
H        2.24141544      -0.41546303       1.32493678
H        1.13804945      -0.69550774      -1.16253475
H       -0.07995870       0.73797519       1.21777320
H       -1.71817282       1.64254137      -0.35269216
H       -0.74991584       1.01836361      -1.72158803
H       -1.71366205      -1.12050272       1.21278508
H       -0.75502577      -1.97017834      -0.03273997
14
Frame=16 idx=006143 GeodesicLength=1.6790770304966365 rxn_smarts="[O:1]([C:2]([C:3]1([H:10])[C:4]([H:11])([H:12])[O:5][C:6]1([H:13])[H:14])([H:8])[H:9])[H:7]>>[H:7][H:8].[O:1]=[C:2]([C:3]1([H:10])[C:4]([H:11])([H:12])[O:5][C:6]1([H:13])[H:14])[H:9]"
O        2.07551092       0.80968996      -0.27396265
C        1.20440563      -0.17245985      -0.20983232
C       -0.17384971       0.16923453       0.27854833
C       -1.15284311       0.78974283      -0.72859963
O       -1.96651689      -0.39147275      -0.74429390
C       -1.16539401      -1.00395419       0.27315776
H        2.82040123       0.58563109       0.92118120
H        2.27861892      -0.36684229       1.35861494
H        1.12082223      -0.70433258      -1.18128374
H       -0.07327036       0.71566008       1.21474598
H       -1.70662453       1.64940306      -0.34035857
H       -0.75500572       1.02199771      -1.71984298
H       -1.72300148      -1.12622363       1.20596998
H       -0.78325313      -1.97607396      -0.05404439
