11
Frame=0 idx=009525 GeodesicLength=0.0 rxn_smarts="[C:1](#[C:2][C:3]#[C:4][C@@:5]1([H:9])[C:6]([H:10])([H:11])[O:7]1)[H:8]>>[C:1]1([H:8])=[C:5]([H:9])[C:4]([O+:7]=[C:6]([H:10])[H:11])=[C:3]=[C-:2]1"
C        1.43651140      -0.25818362      -0.39810798
C        1.75982124       0.16415317       0.77173617
C        1.27083020       0.66781979       2.02706822
C        0.31525348       0.75351177       1.17877819
C       -0.11798445       0.41148090      -0.15805265
C       -1.38185328      -0.52504188      -0.29912945
O       -2.20654905       0.46968933      -0.09061487
H        1.76790257      -0.63527182      -1.34665020
H       -0.16898014       1.25357928      -0.84544491
H       -1.31017557      -1.31768580       0.46509740
H       -1.36477639      -0.98405113      -1.30467989
11
Frame=1 idx=009525 GeodesicLength=0.17961653626022833 rxn_smarts="[C:1](#[C:2][C:3]#[C:4][C@@:5]1([H:9])[C:6]([H:10])([H:11])[O:7]1)[H:8]>>[C:1]1([H:8])=[C:5]([H:9])[C:4]([O+:7]=[C:6]([H:10])[H:11])=[C:3]=[C-:2]1"
C        1.48105889      -0.25700741      -0.39750506
C        1.76856465       0.16919682       0.78206178
C        1.22426775       0.63951054       2.01831399
C        0.28383652       0.76027787       1.15439637
C       -0.11326907       0.41771208      -0.19240631
C       -1.40149702      -0.53703467      -0.28781646
O       -2.17041015       0.48915140      -0.01793107
H        1.85833347      -0.61958963      -1.33470441
H       -0.17030494       1.24895431      -0.89166553
H       -1.31161328      -1.33546229       0.46698537
H       -1.44896680      -0.97570901      -1.29972868
11
Frame=2 idx=009525 GeodesicLength=0.3583624437087386 rxn_smarts="[C:1](#[C:2][C:3]#[C:4][C@@:5]1([H:9])[C:6]([H:10])([H:11])[O:7]1)[H:8]>>[C:1]1([H:8])=[C:5]([H:9])[C:4]([O+:7]=[C:6]([H:10])[H:11])=[C:3]=[C-:2]1"
C        1.52629653      -0.25520203      -0.39664306
C        1.77826512       0.17205488       0.79219305
C        1.18103960       0.60959082       2.00622427
C        0.25415626       0.76419373       1.13012554
C       -0.10928927       0.42222517      -0.22510978
C       -1.42292269      -0.54845503      -0.27593075
O       -2.13244288       0.50729035       0.04382428
H        1.95072080      -0.59486134      -1.32200161
H       -0.17237034       1.24230097      -0.93586579
H       -1.31887747      -1.35010433       0.47171222
H       -1.53457567      -0.96903318      -1.28852836
11
Frame=3 idx=009525 GeodesicLength=0.5373915843337753 rxn_smarts="[C:1](#[C:2][C:3]#[C:4][C@@:5]1([H:9])[C:6]([H:10])([H:11])[O:7]1)[H:8]>>[C:1]1([H:8])=[C:5]([H:9])[C:4]([O+:7]=[C:6]([H:10])[H:11])=[C:3]=[C-:2]1"
C        1.57280249      -0.25212399      -0.39648401
C        1.78858626       0.17126322       0.80259057
C        1.14080616       0.57839737       1.99183270
C        0.22594572       0.76579941       1.10638268
C       -0.10601525       0.42557779      -0.25654428
C       -1.44607476      -0.55949285      -0.26338824
O       -2.09387450       0.52492710       0.09538887
H        2.04516736      -0.56227991      -1.30916979
H       -0.17504263       1.23472562      -0.97869233
H       -1.33147636      -1.36237051       0.47993236
H       -1.62082450      -0.96442324      -1.27184853
11
Frame=4 idx=009525 GeodesicLength=0.7157524031087501 rxn_smarts="[C:1](#[C:2][C:3]#[C:4][C@@:5]1([H:9])[C:6]([H:10])([H:11])[O:7]1)[H:8]>>[C:1]1([H:8])=[C:5]([H:9])[C:4]([O+:7]=[C:6]([H:10])[H:11])=[C:3]=[C-:2]1"
C        1.62099343      -0.24530873      -0.39749171
C        1.79957159       0.16706533       0.81293793
C        1.10391323       0.54603069       1.97467242
C        0.19909735       0.76453625       1.08297565
C       -0.10350425       0.42828086      -0.28679280
C       -1.47070405      -0.56997726      -0.25050109
O       -2.05547914       0.54156039       0.13734316
H        2.14030041      -0.52546445      -1.29430593
H       -0.17871857       1.22695998      -1.01923586
H       -1.34823781      -1.37236993       0.49040624
H       -1.70723221      -0.96131314      -1.25000802
11
Frame=5 idx=009525 GeodesicLength=0.8939717754016142 rxn_smarts="[C:1](#[C:2][C:3]#[C:4][C@@:5]1([H:9])[C:6]([H:10])([H:11])[O:7]1)[H:8]>>[C:1]1([H:8])=[C:5]([H:9])[C:4]([O+:7]=[C:6]([H:10])[H:11])=[C:3]=[C-:2]1"
C        1.67091535      -0.23715398      -0.39877744
C        1.81123400       0.15922349       0.82339011
C        1.06941508       0.51144033       1.95498774
C        0.17380114       0.76157521       1.05928003
C       -0.10148435       0.42976034      -0.31637439
C       -1.49709622      -0.58008443      -0.23695139
O       -2.01750577       0.55747567       0.17113555
H        2.23690251      -0.48085752      -1.27782543
H       -0.18251852       1.21727256      -1.05962912
H       -1.36948365      -1.37989410       0.50417561
H       -1.79417956      -0.95875758      -1.22341127
11
Frame=6 idx=009525 GeodesicLength=1.072197303996246 rxn_smarts="[C:1](#[C:2][C:3]#[C:4][C@@:5]1([H:9])[C:6]([H:10])([H:11])[O:7]1)[H:8]>>[C:1]1([H:8])=[C:5]([H:9])[C:4]([O+:7]=[C:6]([H:10])[H:11])=[C:3]=[C-:2]1"
C        1.72297228      -0.22688761      -0.40056223
C        1.82356572       0.14747984       0.83392805
C        1.03737595       0.47506895       1.93300962
C        0.14983958       0.75671954       1.03541667
C       -0.09991238       0.43018002      -0.34563229
C       -1.52521366      -0.58980056      -0.22285512
O       -1.98033967       0.57277695       0.19752453
H        2.33490184      -0.42975142      -1.25923562
H       -0.18651714       1.20614499      -1.10004194
H       -1.39471871      -1.38539639       0.52086784
H       -1.88195381      -0.95653433      -1.19241953
11
Frame=7 idx=009525 GeodesicLength=1.2500621401449292 rxn_smarts="[C:1](#[C:2][C:3]#[C:4][C@@:5]1([H:9])[C:6]([H:10])([H:11])[O:7]1)[H:8]>>[C:1]1([H:8])=[C:5]([H:9])[C:4]([O+:7]=[C:6]([H:10])[H:11])=[C:3]=[C-:2]1"
C        1.77745542      -0.21173081      -0.40332664
C        1.83655337       0.13244826       0.84389586
C        1.00765486       0.43623148       1.90815553
C        0.12702587       0.74979845       1.01117526
C       -0.09900045       0.43007764      -0.37472280
C       -1.55505032      -0.59898907      -0.20824088
O       -1.94432557       0.58698283       0.21730375
H        2.43416264      -0.37598749      -1.23699516
H       -0.19137790       1.19443304      -1.13983031
H       -1.42301886      -1.38894143       0.53967813
H       -1.97007905      -0.95432289      -1.15709273
11
Frame=8 idx=009525 GeodesicLength=1.4277196566501837 rxn_smarts="[C:1](#[C:2][C:3]#[C:4][C@@:5]1([H:9])[C:6]([H:10])([H:11])[O:7]1)[H:8]>>[C:1]1([H:8])=[C:5]([H:9])[C:4]([O+:7]=[C:6]([H:10])[H:11])=[C:3]=[C-:2]1"
C        1.83459778      -0.19524268      -0.40556014
C        1.85018745       0.11233616       0.85379547
C        0.98031680       0.39570202       1.88036807
C        0.10570012       0.74084367       0.98592915
C       -0.09814235       0.42791389      -0.40414797
C       -1.58695769      -0.60773450      -0.19292499
O       -1.90899020       0.60041054       0.23081730
H        2.53461534      -0.31255015      -1.21164286
H       -0.19560885       1.17937460      -1.18097086
H       -1.45569695      -1.39009079       0.56156697
H       -2.06002145      -0.95096277      -1.11723013
11
Frame=9 idx=009525 GeodesicLength=1.6051143476034835 rxn_smarts="[C:1](#[C:2][C:3]#[C:4][C@@:5]1([H:9])[C:6]([H:10])([H:11])[O:7]1)[H:8]>>[C:1]1([H:8])=[C:5]([H:9])[C:4]([O+:7]=[C:6]([H:10])[H:11])=[C:3]=[C-:2]1"
C        1.89456124      -0.17366288      -0.40806154
C        1.86450200       0.08838062       0.86252746
C        0.95536706       0.35287759       1.84922658
C        0.08539803       0.72970632       0.95984196
C       -0.09785580       0.42471018      -0.43407086
C       -1.62087498      -0.61597853      -0.17694336
O       -1.87488173       0.61242949       0.23905680
H        2.63649909      -0.24571814      -1.18146463
H       -0.20052594       1.16291658      -1.22250935
H       -1.49137437      -1.38938332       0.58555680
H       -2.15081459      -0.94627791      -1.07315985
11
Frame=10 idx=009525 GeodesicLength=1.7823737585761685 rxn_smarts="[C:1](#[C:2][C:3]#[C:4][C@@:5]1([H:9])[C:6]([H:10])([H:11])[O:7]1)[H:8]>>[C:1]1([H:8])=[C:5]([H:9])[C:4]([O+:7]=[C:6]([H:10])[H:11])=[C:3]=[C-:2]1"
C        1.95761577      -0.14727836      -0.41018512
C        1.87956629       0.05989840       0.86975404
C        0.93284292       0.30749440       1.81439795
C        0.06618722       0.71619599       0.93252469
C       -0.09799887       0.41977404      -0.46494602
C       -1.65710642      -0.62363843      -0.16011151
O       -1.84182354       0.62309500       0.24234126
H        2.74015814      -0.17340918      -1.14588022
H       -0.20581011       1.14396065      -1.26536892
H       -1.53043622      -1.38657004       0.61200821
H       -2.24319519      -0.93952248      -1.02453436
11
Frame=11 idx=009525 GeodesicLength=1.9591866780053295 rxn_smarts="[C:1](#[C:2][C:3]#[C:4][C@@:5]1([H:9])[C:6]([H:10])([H:11])[O:7]1)[H:8]>>[C:1]1([H:8])=[C:5]([H:9])[C:4]([O+:7]=[C:6]([H:10])[H:11])=[C:3]=[C-:2]1"
C        2.02392492      -0.11789132      -0.41068445
C        1.89544871       0.02541269       0.87520782
C        0.91315124       0.25977907       1.77535997
C        0.04848710       0.69986954       0.90331001
C       -0.09808576       0.41187150      -0.49722218
C       -1.69582080      -0.63052918      -0.14236625
O       -1.80916935       0.63232113       0.24048584
H        2.84416899      -0.09080639      -1.10416848
H       -0.21045512       1.12046124      -1.31057481
H       -1.57359637      -1.38092061       0.64131035
H       -2.33805356      -0.92956767      -0.97065783
11
Frame=12 idx=009525 GeodesicLength=2.135709545767409 rxn_smarts="[C:1](#[C:2][C:3]#[C:4][C@@:5]1([H:9])[C:6]([H:10])([H:11])[O:7]1)[H:8]>>[C:1]1([H:8])=[C:5]([H:9])[C:4]([O+:7]=[C:6]([H:10])[H:11])=[C:3]=[C-:2]1"
C        2.09368444      -0.08353953      -0.40936975
C        1.91216917      -0.01551692       0.87764022
C        0.89646220       0.20905912       1.73138153
C        0.03221348       0.68041844       0.87183291
C       -0.09835791       0.40073824      -0.53140265
C       -1.73727917      -0.63649537      -0.12342825
O       -1.77696884       0.63973828       0.23388785
H        2.94896411       0.00118920      -1.05449829
H       -0.21500979       1.09212910      -1.35854139
H       -1.62052697      -1.37223681       0.67356028
H       -2.43535072      -0.91548376      -0.91106246
11
Frame=13 idx=009525 GeodesicLength=2.311976029132732 rxn_smarts="[C:1](#[C:2][C:3]#[C:4][C@@:5]1([H:9])[C:6]([H:10])([H:11])[O:7]1)[H:8]>>[C:1]1([H:8])=[C:5]([H:9])[C:4]([O+:7]=[C:6]([H:10])[H:11])=[C:3]=[C-:2]1"
C        2.16666905      -0.04122920      -0.40592611
C        1.92980727      -0.06233602       0.87516996
C        0.88323306       0.15493793       1.68146320
C        0.01710094       0.65748429       0.83790951
C       -0.09935283       0.38657570      -0.56788681
C       -1.78157576      -0.64152992      -0.10297843
O       -1.74545293       0.64461793       0.22321888
H        3.05485000       0.09906278      -0.99467167
H       -0.22050417       1.05954778      -1.40916068
H       -1.67053189      -1.36068742       0.70861223
H       -2.53424274      -0.89644385      -0.84575008
11
Frame=14 idx=009525 GeodesicLength=2.487907052818239 rxn_smarts="[C:1](#[C:2][C:3]#[C:4][C@@:5]1([H:9])[C:6]([H:10])([H:11])[O:7]1)[H:8]>>[C:1]1([H:8])=[C:5]([H:9])[C:4]([O+:7]=[C:6]([H:10])[H:11])=[C:3]=[C-:2]1"
C        2.24217932       0.00786221      -0.39909728
C        1.94931836      -0.11268154       0.86649323
C        0.87384973       0.09658905       1.62465569
C        0.00305953       0.63041456       0.80141506
C       -0.10112040       0.36934197      -0.60693787
C       -1.82856659      -0.64545794      -0.08087092
O       -1.71454510       0.64640628       0.20865934
H        3.15990533       0.20235361      -0.92362641
H       -0.22689960       1.02287171      -1.46240791
H       -1.72345006      -1.34598605       0.74648842
H       -2.63373053      -0.87171387      -0.77477135
11
Frame=15 idx=009525 GeodesicLength=2.6632808225760707 rxn_smarts="[C:1](#[C:2][C:3]#[C:4][C@@:5]1([H:9])[C:6]([H:10])([H:11])[O:7]1)[H:8]>>[C:1]1([H:8])=[C:5]([H:9])[C:4]([O+:7]=[C:6]([H:10])[H:11])=[C:3]=[C-:2]1"
C        2.31911008       0.06180500      -0.38764796
C        1.97183364      -0.16320724       0.85149072
C        0.86835081       0.03343938       1.56035817
C       -0.01010955       0.59891333       0.76249345
C       -0.10378487       0.34970147      -0.64863636
C       -1.87761051      -0.64822183      -0.05716069
O       -1.68433309       0.64436026       0.19064887
H        3.26147961       0.30904428      -0.84163677
H       -0.23456448       0.98306944      -1.51802928
H       -1.77833639      -1.32803149       0.78691768
H       -2.73203525      -0.84087259      -0.69879784
11
Frame=16 idx=009525 GeodesicLength=2.8384378683974414 rxn_smarts="[C:1](#[C:2][C:3]#[C:4][C@@:5]1([H:9])[C:6]([H:10])([H:11])[O:7]1)[H:8]>>[C:1]1([H:8])=[C:5]([H:9])[C:4]([O+:7]=[C:6]([H:10])[H:11])=[C:3]=[C-:2]1"
C        2.39716316       0.12075398      -0.37051689
C        1.99795638      -0.21253656       0.83004638
C        0.86673103      -0.03486251       1.48740207
C       -0.02237707       0.56239377       0.72039740
C       -0.10737033       0.32728846      -0.69375597
C       -1.92853219      -0.64990082      -0.03197176
O       -1.65462826       0.63769925       0.16900512
H        3.35877237       0.41841795      -0.74750862
H       -0.24365704       0.94023909      -1.57642138
H       -1.83411725      -1.30712420       0.82933095
H       -2.82994080      -0.80236840      -0.61600728
