16
Frame=0 idx=008932 GeodesicLength=0.0 rxn_smarts="[C:1]([C@@:2]1([H:11])[C:3]([H:12])([H:13])[N:4]([C:5]([H:14])([H:15])[H:16])[C:6]1=[O:7])([H:8])([H:9])[H:10]>>[C:1]([C@@:2]([C:3]([N:4]=[C:5]([H:15])[H:16])([H:12])[H:13])([C:6](=[O:7])[H:14])[H:11])([H:8])([H:9])[H:10]"
C        2.16187142      -0.23076005       0.27789366
C        0.83783889       0.35303168      -0.15800499
C       -0.10781670      -0.47853948      -1.05618325
N       -1.20339551      -0.10635625      -0.14281113
C       -2.47995770       0.01647344      -0.29556977
C       -0.32665171       0.35809009       0.83260609
O       -0.74051053       1.30701796       1.74666059
H        2.02501939      -1.23328081       0.68957844
H        2.61019835       0.39199882       1.05379544
H        2.86854036      -0.29137966      -0.55293873
H        0.96929587       1.34986374      -0.59552003
H       -0.27771595      -0.10875675      -2.06568149
H        0.06994659      -1.55352455      -1.06405186
H       -0.42283597       0.11344556       2.01038557
H       -3.02848462       0.51873449       0.48783859
H       -2.95534222      -0.40605830      -1.16799715
16
Frame=1 idx=008932 GeodesicLength=0.14690679166851914 rxn_smarts="[C:1]([C@@:2]1([H:11])[C:3]([H:12])([H:13])[N:4]([C:5]([H:14])([H:15])[H:16])[C:6]1=[O:7])([H:8])([H:9])[H:10]>>[C:1]([C@@:2]([C:3]([N:4]=[C:5]([H:15])[H:16])([H:12])[H:13])([C:6](=[O:7])[H:14])[H:11])([H:8])([H:9])[H:10]"
C        2.16241877      -0.23595547       0.27762474
C        0.84834684       0.36664273      -0.16409901
C       -0.10397780      -0.45846243      -1.06125012
N       -1.20041084      -0.06556776      -0.16314981
C       -2.48857257      -0.03532921      -0.26298052
C       -0.30917567       0.39640794       0.83207941
O       -0.69813681       1.32496389       1.75799592
H        2.00975023      -1.23252988       0.69833492
H        2.62178949       0.38648453       1.04742230
H        2.86645559      -0.31583626      -0.55386128
H        0.99495345       1.36101630      -0.60175267
H       -0.26987414      -0.09455663      -2.07385179
H        0.06797039      -1.53481489      -1.06157026
H       -0.50500284       0.06335733       1.99545402
H       -3.03833359       0.53500593       0.47218296
H       -2.95820050      -0.46082614      -1.13857881
16
Frame=2 idx=008932 GeodesicLength=0.29329055742695836 rxn_smarts="[C:1]([C@@:2]1([H:11])[C:3]([H:12])([H:13])[N:4]([C:5]([H:14])([H:15])[H:16])[C:6]1=[O:7])([H:8])([H:9])[H:10]>>[C:1]([C@@:2]([C:3]([N:4]=[C:5]([H:15])[H:16])([H:12])[H:13])([C:6](=[O:7])[H:14])[H:11])([H:8])([H:9])[H:10]"
C        2.16183547      -0.24241838       0.27691416
C        0.85810561       0.37989423      -0.16856872
C       -0.10122416      -0.43689723      -1.06546464
N       -1.19927730      -0.01967821      -0.18521046
C       -2.49115301      -0.08024819      -0.23159212
C       -0.29204174       0.43145648       0.83373197
O       -0.65392867       1.34126266       1.76999987
H        1.99343391      -1.23336216       0.70485085
H        2.63275646       0.37774908       1.04141291
H        2.86239390      -0.33996993      -0.55556872
H        1.02032481       1.37204864      -0.60487140
H       -0.25978880      -0.07907035      -2.08157540
H        0.06294228      -1.51465208      -1.05804848
H       -0.58700899       0.02341193       1.97329347
H       -3.05051372       0.54170997       0.45376453
H       -2.95685603      -0.52123645      -1.10306781
16
Frame=3 idx=008932 GeodesicLength=0.4400213836744273 rxn_smarts="[C:1]([C@@:2]1([H:11])[C:3]([H:12])([H:13])[N:4]([C:5]([H:14])([H:15])[H:16])[C:6]1=[O:7])([H:8])([H:9])[H:10]>>[C:1]([C@@:2]([C:3]([N:4]=[C:5]([H:15])[H:16])([H:12])[H:13])([C:6](=[O:7])[H:14])[H:11])([H:8])([H:9])[H:10]"
C        2.16074246      -0.24883127       0.27520738
C        0.86627530       0.39229666      -0.17130859
C       -0.09987165      -0.41593154      -1.06814796
N       -1.20005068       0.02570203      -0.20632671
C       -2.48906849      -0.11634938      -0.20309136
C       -0.27552926       0.46180570       0.83848781
O       -0.60849666       1.35366685       1.78459627
H        1.97849988      -1.23470860       0.70909811
H        2.64333665       0.36818692       1.03485435
H        2.85657240      -0.36188352      -0.55927151
H        1.04253792       1.38274519      -0.60512880
H       -0.24914962      -0.06442317      -2.08807796
H        0.05659751      -1.49499984      -1.05343180
H       -0.66729879      -0.00958295       1.94714445
H       -3.06434443       0.54745525       0.42909916
H       -2.95075253      -0.58514832      -1.06370285
16
Frame=4 idx=008932 GeodesicLength=0.5869625523598445 rxn_smarts="[C:1]([C@@:2]1([H:11])[C:3]([H:12])([H:13])[N:4]([C:5]([H:14])([H:15])[H:16])[C:6]1=[O:7])([H:8])([H:9])[H:10]>>[C:1]([C@@:2]([C:3]([N:4]=[C:5]([H:15])[H:16])([H:12])[H:13])([C:6](=[O:7])[H:14])[H:11])([H:8])([H:9])[H:10]"
C        2.15952380      -0.25459765       0.27253220
C        0.87278692       0.40346819      -0.17253409
C       -0.09975289      -0.39689058      -1.06891976
N       -1.20232311       0.06690671      -0.22495613
C       -2.48434889      -0.14426566      -0.17836701
C       -0.25951470       0.48739813       0.84621201
O       -0.56213787       1.36274569       1.80056103
H        1.96581486      -1.23589143       0.71172428
H        2.65372629       0.35914330       1.02723996
H        2.84939399      -0.38107107      -0.56491656
H        1.06095056       1.39257567      -0.60345769
H       -0.23885277      -0.05186375      -2.09272590
H        0.05002545      -1.47705134      -1.04745368
H       -0.74516636      -0.03586188       1.91905867
H       -3.07967246       0.55054899       0.40130119
H       -2.94045283      -0.64529332      -1.02529852
16
Frame=5 idx=008932 GeodesicLength=0.7342833294532223 rxn_smarts="[C:1]([C@@:2]1([H:11])[C:3]([H:12])([H:13])[N:4]([C:5]([H:14])([H:15])[H:16])[C:6]1=[O:7])([H:8])([H:9])[H:10]>>[C:1]([C@@:2]([C:3]([N:4]=[C:5]([H:15])[H:16])([H:12])[H:13])([C:6](=[O:7])[H:14])[H:11])([H:8])([H:9])[H:10]"
C        2.15846365      -0.25946196       0.26888514
C        0.87775149       0.41344838      -0.17235678
C       -0.10055603      -0.38009262      -1.06787968
N       -1.20561636       0.10284164      -0.24075849
C       -2.47871187      -0.16556929      -0.15703786
C       -0.24382984       0.50845932       0.85690837
O       -0.51526272       1.36858122       1.81793406
H        1.95583554      -1.23677741       0.71292381
H        2.66406847       0.35117561       1.01847370
H        2.84121742      -0.39730381      -0.57256229
H        1.07547813       1.40168897      -0.60014481
H       -0.22934658      -0.04154322      -2.09544022
H        0.04379084      -1.46115436      -1.04025532
H       -0.82013142      -0.05693816       1.89052502
H       -3.09596290       0.55352953       0.36928326
H       -2.92718782      -0.70088384      -0.98849791
16
Frame=6 idx=008932 GeodesicLength=0.88167100543963 rxn_smarts="[C:1]([C@@:2]1([H:11])[C:3]([H:12])([H:13])[N:4]([C:5]([H:14])([H:15])[H:16])[C:6]1=[O:7])([H:8])([H:9])[H:10]>>[C:1]([C@@:2]([C:3]([N:4]=[C:5]([H:15])[H:16])([H:12])[H:13])([C:6](=[O:7])[H:14])[H:11])([H:8])([H:9])[H:10]"
C        2.15765701      -0.26362558       0.26450213
C        0.88154599       0.42238359      -0.17095741
C       -0.10202793      -0.36516459      -1.06528947
N       -1.20970242       0.13441474      -0.25419548
C       -2.47313234      -0.18207811      -0.13866894
C       -0.22829792       0.52579284       0.87008159
O       -0.46787709       1.37221907       1.83581265
H        1.94816514      -1.23743344       0.71303777
H        2.67451101       0.34405307       1.00872881
H        2.83237560      -0.41115649      -0.58172685
H        1.08702394       1.41007888      -0.59549513
H       -0.22048821      -0.03308543      -2.09646659
H        0.03785185      -1.44695326      -1.03191964
H       -0.89234816      -0.07302290       1.86190348
H       -3.11325651       0.55486159       0.33483238
H       -2.91199996      -0.75128398      -0.95417930
16
Frame=7 idx=008932 GeodesicLength=1.0291815842617678 rxn_smarts="[C:1]([C@@:2]1([H:11])[C:3]([H:12])([H:13])[N:4]([C:5]([H:14])([H:15])[H:16])[C:6]1=[O:7])([H:8])([H:9])[H:10]>>[C:1]([C@@:2]([C:3]([N:4]=[C:5]([H:15])[H:16])([H:12])[H:13])([C:6](=[O:7])[H:14])[H:11])([H:8])([H:9])[H:10]"
C        2.15710165      -0.26721190       0.25951234
C        0.88437923       0.43046886      -0.16844298
C       -0.10402889      -0.35176471      -1.06136570
N       -1.21441780       0.16253363      -0.26575343
C       -2.46811076      -0.19492945      -0.12280990
C       -0.21281042       0.54001513       0.88546371
O       -0.41999797       1.37426533       1.85396389
H        1.94248990      -1.23796699       0.71224444
H        2.68508006       0.33763609       0.99814967
H        2.82298671      -0.42299953      -0.59217246
H        1.09613361       1.41791862      -0.58964770
H       -0.21215926      -0.02618873      -2.09603193
H        0.03208657      -1.43416208      -1.02251063
H       -0.96179220      -0.08505365       1.83342955
H       -3.13138921       0.55467627       0.29801072
H       -2.89555122      -0.79723691      -0.92203961
16
Frame=8 idx=008932 GeodesicLength=1.1767444613177422 rxn_smarts="[C:1]([C@@:2]1([H:11])[C:3]([H:12])([H:13])[N:4]([C:5]([H:14])([H:15])[H:16])[C:6]1=[O:7])([H:8])([H:9])[H:10]>>[C:1]([C@@:2]([C:3]([N:4]=[C:5]([H:15])[H:16])([H:12])[H:13])([C:6](=[O:7])[H:14])[H:11])([H:8])([H:9])[H:10]"
C        2.15674985      -0.27033297       0.25405023
C        0.88640319       0.43785190      -0.16489303
C       -0.10647930      -0.33958079      -1.05626964
N       -1.21968216       0.18800596      -0.27583634
C       -2.46390122      -0.20493701      -0.10910692
C       -0.19729163       0.55164442       0.90280402
O       -0.37158375       1.37533020       1.87203970
H        1.93848357      -1.23843810       0.71070751
H        2.69575229       0.33177536       0.98687972
H        2.81310426      -0.43315935      -0.60364250
H        1.10326385       1.42529129      -0.58272106
H       -0.20423694      -0.02058978      -2.09431468
H        0.02636345      -1.42249973      -1.01207090
H       -1.02843504      -0.09389215       1.80511101
H       -3.15021853       0.55283223       0.25910686
H       -2.87829190      -0.83930148      -0.89184398
16
Frame=9 idx=008932 GeodesicLength=1.3243575418707942 rxn_smarts="[C:1]([C@@:2]1([H:11])[C:3]([H:12])([H:13])[N:4]([C:5]([H:14])([H:15])[H:16])[C:6]1=[O:7])([H:8])([H:9])[H:10]>>[C:1]([C@@:2]([C:3]([N:4]=[C:5]([H:15])[H:16])([H:12])[H:13])([C:6](=[O:7])[H:14])[H:11])([H:8])([H:9])[H:10]"
C        2.15653560      -0.27307108       0.24823528
C        0.88771888       0.44466453      -0.16037021
C       -0.10933538      -0.32835743      -1.05011979
N       -1.22544812       0.21147822      -0.28478113
C       -2.46063248      -0.21263084      -0.09730338
C       -0.18171337       0.56114381       0.92191202
O       -0.32259405       1.37601785       1.88972644
H        1.93584425      -1.23888400       0.70859200
H        2.70647775       0.32636949       0.97503949
H        2.80274930      -0.44191001      -0.61592223
H        1.10877303       1.43226580      -0.57484392
H       -0.19661826      -0.01610120      -2.09144995
H        0.02055745      -1.41172866      -1.00060907
H       -1.09218574      -0.10057664       1.77687848
H       -3.16957091       0.54924167       0.21832934
H       -2.86055795      -0.87792152      -0.86331336
16
Frame=10 idx=008932 GeodesicLength=1.471995636659902 rxn_smarts="[C:1]([C@@:2]1([H:11])[C:3]([H:12])([H:13])[N:4]([C:5]([H:14])([H:15])[H:16])[C:6]1=[O:7])([H:8])([H:9])[H:10]>>[C:1]([C@@:2]([C:3]([N:4]=[C:5]([H:15])[H:16])([H:12])[H:13])([C:6](=[O:7])[H:14])[H:11])([H:8])([H:9])[H:10]"
C        2.15637276      -0.27548835       0.24218950
C        0.88839076       0.45101203      -0.15490713
C       -0.11258234      -0.31787922      -1.04300058
N       -1.23169111       0.23346254      -0.29283984
C       -2.45836066      -0.21836236      -0.08720716
C       -0.16605491       0.56891300       0.94264028
O       -0.27291976       1.37695898       1.90666691
H        1.93428318      -1.23931467       0.70605675
H        2.71719044       0.32134281       0.96274341
H        2.79189561      -0.44947805      -0.62879733
H        1.11294701       1.43887515      -0.56612738
H       -0.18923818      -0.01256521      -2.08753754
H        0.01455368      -1.40164585      -0.98812564
H       -1.15291999      -0.10623247       1.74855038
H       -3.18928516       0.54385433       0.17592911
H       -2.84258133      -0.91345267      -0.83623373
16
Frame=11 idx=008932 GeodesicLength=1.6196393912341274 rxn_smarts="[C:1]([C@@:2]1([H:11])[C:3]([H:12])([H:13])[N:4]([C:5]([H:14])([H:15])[H:16])[C:6]1=[O:7])([H:8])([H:9])[H:10]>>[C:1]([C@@:2]([C:3]([N:4]=[C:5]([H:15])[H:16])([H:12])[H:13])([C:6](=[O:7])[H:14])[H:11])([H:8])([H:9])[H:10]"
C        2.15616403      -0.27761205       0.23604210
C        0.88845146       0.45698441      -0.14852938
C       -0.11621504      -0.30799214      -1.03496775
N       -1.23840758       0.25434895      -0.30021555
C       -2.45712820      -0.22237369      -0.07866477
C       -0.15030936       0.57534042       0.96487287
O       -0.22244471       1.37880627       1.92248040
H        1.93353439      -1.23969455       0.70329156
H        2.72780005       0.31668018       0.95010309
H        2.78049661      -0.45605226      -0.64205423
H        1.11600364       1.44512660      -0.55671701
H       -0.18204186      -0.00990090      -2.08265199
H        0.00825554      -1.39210787      -0.97457655
H       -1.21038078      -0.11222998       1.71988957
H       -3.20917503       0.53671227       0.13219676
H       -2.82460316      -0.94603566      -0.81049913
16
Frame=12 idx=008932 GeodesicLength=1.7672857026664974 rxn_smarts="[C:1]([C@@:2]1([H:11])[C:3]([H:12])([H:13])[N:4]([C:5]([H:14])([H:15])[H:16])[C:6]1=[O:7])([H:8])([H:9])[H:10]>>[C:1]([C@@:2]([C:3]([N:4]=[C:5]([H:15])[H:16])([H:12])[H:13])([C:6](=[O:7])[H:14])[H:11])([H:8])([H:9])[H:10]"
C        2.15580012      -0.27945353       0.22993607
C        0.88791381       0.46267328      -0.14125904
C       -0.12024265      -0.29856527      -1.02605467
N       -1.24560071       0.27446112      -0.30708021
C       -2.45695969      -0.22480863      -0.07156710
C       -0.13448766       0.58085806       0.98850846
O       -0.17102293       1.38224822       1.93676445
H        1.93332405      -1.23995465       0.70053351
H        2.73820651       0.31240078       0.93722438
H        2.76848670      -0.46182875      -0.65546490
H        1.11813100       1.45101304      -0.54679790
H       -0.17499857      -0.00807249      -2.07684311
H        0.00156413      -1.38298531      -0.95987745
H       -1.26419579      -0.12021432       1.69058582
H       -3.22904622       0.52792894       0.08747007
H       -2.80687210      -0.97570048      -0.78607836
16
Frame=13 idx=008932 GeodesicLength=1.9149509790484727 rxn_smarts="[C:1]([C@@:2]1([H:11])[C:3]([H:12])([H:13])[N:4]([C:5]([H:14])([H:15])[H:16])[C:6]1=[O:7])([H:8])([H:9])[H:10]>>[C:1]([C@@:2]([C:3]([N:4]=[C:5]([H:15])[H:16])([H:12])[H:13])([C:6](=[O:7])[H:14])[H:11])([H:8])([H:9])[H:10]"
C        2.15515986      -0.28100923       0.22403532
C        0.88677503       0.46817671      -0.13312067
C       -0.12468295      -0.28949240      -1.01627622
N       -1.25328277       0.29405809      -0.31357973
C       -2.45787779      -0.22575911      -0.06583938
C       -0.11861176       0.58597335       1.01345712
O       -0.11846189       1.38799409       1.94909199
H        1.93336544      -1.23998746       0.69808588
H        2.74829877       0.30856032       0.92421486
H        2.75578451      -0.46702382      -0.66877852
H        1.11949613       1.45651326      -0.53661145
H       -0.16809525      -0.00709165      -2.07014094
H       -0.00561718      -1.37416678      -0.94389989
H       -1.31386225      -0.13209321       1.66024570
H       -3.24870729       0.51767668       0.04220054
H       -2.78968061      -1.00232885      -0.76308462
16
Frame=14 idx=008932 GeodesicLength=2.0626380564139652 rxn_smarts="[C:1]([C@@:2]1([H:11])[C:3]([H:12])([H:13])[N:4]([C:5]([H:14])([H:15])[H:16])[C:6]1=[O:7])([H:8])([H:9])[H:10]>>[C:1]([C@@:2]([C:3]([N:4]=[C:5]([H:15])[H:16])([H:12])[H:13])([C:6](=[O:7])[H:14])[H:11])([H:8])([H:9])[H:10]"
C        2.15411039      -0.28226802       0.21852129
C        0.88502049       0.47359527      -0.12413664
C       -0.12955959      -0.28067992      -1.00563381
N       -1.26146953       0.31334137      -0.31982221
C       -2.45989682      -0.22530384      -0.06141637
C       -0.10270623       0.59125643       1.03963964
O       -0.06451228       1.39671569       1.95903191
H        1.93335736      -1.23965214       0.69630692
H        2.75795907       0.30523607       0.91117862
H        2.74228887      -0.47187604      -0.68172275
H        1.12025012       1.46159142      -0.52643690
H       -0.16134096      -0.00699033      -2.06255893
H       -0.01338090      -1.36554686      -0.92649057
H       -1.35878581      -0.14989712       1.62836788
H       -3.26798171       0.50621025      -0.00305712
H       -2.77335246      -1.02573222      -0.74177098
16
Frame=15 idx=008932 GeodesicLength=2.210374106204622 rxn_smarts="[C:1]([C@@:2]1([H:11])[C:3]([H:12])([H:13])[N:4]([C:5]([H:14])([H:15])[H:16])[C:6]1=[O:7])([H:8])([H:9])[H:10]>>[C:1]([C@@:2]([C:3]([N:4]=[C:5]([H:15])[H:16])([H:12])[H:13])([C:6](=[O:7])[H:14])[H:11])([H:8])([H:9])[H:10]"
C        2.15251980      -0.28322190       0.21358399
C        0.88263172       0.47903185      -0.11432724
C       -0.13489454      -0.27204034      -0.99412470
N       -1.27018497       0.33244341      -0.32587899
C       -2.46302480      -0.22355870      -0.05821749
C       -0.08678988       0.59733109       1.06699180
O       -0.00887637       1.40896068       1.96618382
H        1.93299808      -1.23879554       0.69558764
H        2.76707361       0.30250535       0.89821903
H        2.72789764      -0.47664341      -0.69401532
H        1.12053414       1.46620570      -0.51657377
H       -0.15476452      -0.00779312      -2.05409598
H       -0.02180118      -1.35702229      -0.90749901
H       -1.39834945      -0.17553691       1.59432943
H       -3.28672917       0.49383335      -0.04764090
H       -2.75824010      -1.04569922      -0.72252230
16
Frame=16 idx=008932 GeodesicLength=2.3582076341057707 rxn_smarts="[C:1]([C@@:2]1([H:11])[C:3]([H:12])([H:13])[N:4]([C:5]([H:14])([H:15])[H:16])[C:6]1=[O:7])([H:8])([H:9])[H:10]>>[C:1]([C@@:2]([C:3]([N:4]=[C:5]([H:15])[H:16])([H:12])[H:13])([C:6](=[O:7])[H:14])[H:11])([H:8])([H:9])[H:10]"
C        2.15025058      -0.28388141       0.20940750
C        0.87958638       0.48458553      -0.10370877
C       -0.14070641      -0.26347568      -0.98176121
N       -1.27945274       0.35142623      -0.33179431
C       -2.46721871      -0.22072985      -0.05612428
C       -0.07086741       0.60483755       1.09546376
O        0.04880288       1.42500660       1.97024931
H        1.93198190      -1.23727652       0.69631237
H        2.77552520       0.30040949       0.88544159
H        2.71249818      -0.48159214      -0.70538297
H        1.12047434       1.47031059      -0.50730125
H       -0.14841734      -0.00947931      -2.04475043
H       -0.03092691      -1.34847041      -0.88682993
H       -1.43202595      -0.21037222       1.55738721
H       -3.30485450       0.48079223      -0.09079751
H       -2.74464951      -1.06209068      -0.70581108
