14
Frame=0 idx=009985 GeodesicLength=0.0 rxn_smarts="[O:1]([C:2]([C@@:3]1([C:6](=[O:7])[H:14])[C:4]([H:11])([H:12])[N:5]1[H:13])([H:9])[H:10])[H:8]>>[C:2](=[C:3]1[C:4]([H:11])([H:12])[N:5]1[H:13])([H:9])[H:10].[O:1]([C:6](=[O:7])[H:14])[H:8]"
O        0.69807768       1.75173040      -0.78151461
C        1.24023074      -0.21837046      -0.72955575
C        0.11696639      -0.47773227       0.04030239
C       -0.83381135      -1.53001476       0.37734156
N        0.06823928      -0.94504493       1.38779362
C       -0.58086687       1.09924996      -0.26183584
O       -1.04070228       1.57516537       0.77361378
H        1.05008913       2.21190256      -0.00916409
H        1.21452413      -0.30078012      -1.80857140
H        2.21164416      -0.05879780      -0.27685946
H       -0.62725451      -2.56094259       0.11558721
H       -1.88384947      -1.25453088       0.41419549
H       -0.44603106      -0.25032570       1.93117202
H       -1.18725600       0.95849120      -1.17250486
14
Frame=1 idx=009985 GeodesicLength=0.10477776887655464 rxn_smarts="[O:1]([C:2]([C@@:3]1([C:6](=[O:7])[H:14])[C:4]([H:11])([H:12])[N:5]1[H:13])([H:9])[H:10])[H:8]>>[C:2](=[C:3]1[C:4]([H:11])([H:12])[N:5]1[H:13])([H:9])[H:10].[O:1]([C:6](=[O:7])[H:14])[H:8]"
O        0.73047404       1.76126711      -0.75609396
C        1.23191210      -0.21976436      -0.74351378
C        0.11125468      -0.47793002       0.03306311
C       -0.82421388      -1.53758336       0.38766493
N        0.06931102      -0.92427622       1.38797519
C       -0.59838915       1.11358316      -0.26967525
O       -1.08543027       1.57342062       0.75861973
H        1.06967634       2.19810287       0.03527089
H        1.19835595      -0.29246198      -1.82363993
H        2.21579427      -0.09712391      -0.30697685
H       -0.59929431      -2.56949083       0.14544516
H       -1.87756632      -1.27455514       0.41839992
H       -0.45465373      -0.23366474       1.92645344
H       -1.18723073       0.98047680      -1.19299261
14
Frame=2 idx=009985 GeodesicLength=0.2093982924510635 rxn_smarts="[O:1]([C:2]([C@@:3]1([C:6](=[O:7])[H:14])[C:4]([H:11])([H:12])[N:5]1[H:13])([H:9])[H:10])[H:8]>>[C:2](=[C:3]1[C:4]([H:11])([H:12])[N:5]1[H:13])([H:9])[H:10].[O:1]([C:6](=[O:7])[H:14])[H:8]"
O        0.76316074       1.76951776      -0.72985600
C        1.22377174      -0.22094741      -0.75720440
C        0.10553528      -0.47832299       0.02569157
C       -0.81431154      -1.54496754       0.39815587
N        0.07012481      -0.90326578       1.38779478
C       -0.61593657       1.12819417      -0.27773900
O       -1.12958696       1.57128600       0.74296845
H        1.08856228       2.18305645       0.07955678
H        1.18249317      -0.28351950      -1.83833619
H        2.21872779      -0.13546643      -0.33767440
H       -0.57080179      -2.57711522       0.17554268
H       -1.87083535      -1.29458893       0.42288578
H       -0.46351345      -0.21688771       1.92131850
H       -1.18739015       1.00302712      -1.21310442
14
Frame=3 idx=009985 GeodesicLength=0.3139195376337112 rxn_smarts="[O:1]([C:2]([C@@:3]1([C:6](=[O:7])[H:14])[C:4]([H:11])([H:12])[N:5]1[H:13])([H:9])[H:10])[H:8]>>[C:2](=[C:3]1[C:4]([H:11])([H:12])[N:5]1[H:13])([H:9])[H:10].[O:1]([C:6](=[O:7])[H:14])[H:8]"
O        0.79614619       1.77645474      -0.70293296
C        1.21582349      -0.22191825      -0.77058872
C        0.09981542      -0.47890651       0.01822888
C       -0.80410404      -1.55216016       0.40878904
N        0.07064876      -0.88206893       1.38725867
C       -0.63350664       1.14310418      -0.28596585
O       -1.17318340       1.56874574       0.72674115
H        1.10682083       2.16686437       0.12350984
H        1.16695886      -0.27400962      -1.85260953
H        2.22042523      -0.17374297      -0.36888812
H       -0.54178402      -2.58379116       0.20581250
H       -1.86365391      -1.31463433       0.42763318
H       -0.47264281      -0.20006645       1.91579165
H       -1.18776395       1.02612935      -1.23277973
14
Frame=4 idx=009985 GeodesicLength=0.4183982147276004 rxn_smarts="[O:1]([C:2]([C@@:3]1([C:6](=[O:7])[H:14])[C:4]([H:11])([H:12])[N:5]1[H:13])([H:9])[H:10])[H:8]>>[C:2](=[C:3]1[C:4]([H:11])([H:12])[N:5]1[H:13])([H:9])[H:10].[O:1]([C:6](=[O:7])[H:14])[H:8]"
O        0.82945776       1.78205802      -0.67546183
C        1.20807658      -0.22268176      -0.78363162
C        0.09410203      -0.47967506       0.01071821
C       -0.79359188      -1.55915676       0.41954495
N        0.07085418      -0.86073983       1.38638227
C       -0.65110676       1.15832838      -0.29428963
O       -1.21624856       1.56577542       0.71000720
H        1.12453577       2.14963712       0.16695292
H        1.15176474      -0.26399126      -1.86641536
H        2.22087621      -0.21186544      -0.40054334
H       -0.51225634      -2.58949130       0.23617253
H       -1.85602261      -1.33469975       0.43262512
H       -0.48207182      -0.18326912       1.90990288
H       -1.18836929       1.04977133      -1.25196430
14
Frame=5 idx=009985 GeodesicLength=0.5228688826316563 rxn_smarts="[O:1]([C:2]([C@@:3]1([C:6](=[O:7])[H:14])[C:4]([H:11])([H:12])[N:5]1[H:13])([H:9])[H:10])[H:8]>>[C:2](=[C:3]1[C:4]([H:11])([H:12])[N:5]1[H:13])([H:9])[H:10].[O:1]([C:6](=[O:7])[H:14])[H:8]"
O        0.86313358       1.78631587      -0.64755029
C        1.20053585      -0.22323391      -0.79630793
C        0.08840319      -0.48061316       0.00319945
C       -0.78277123      -1.56594915       0.43040477
N        0.07070675      -0.83931622       1.38518025
C       -0.66875097       1.17388973      -0.30265233
O       -1.25885876       1.56233930       0.69281081
H        1.14182219       2.13145440       0.20977716
H        1.13690510      -0.25350964      -1.87972097
H        2.22006729      -0.24978076      -0.43262259
H       -0.48220504      -2.59419970       0.26660422
H       -1.84793275      -1.35479842       0.43783344
H       -0.49184516      -0.16655014       1.90367339
H       -1.18921001       1.07395180      -1.27062940
14
Frame=6 idx=009985 GeodesicLength=0.6273661795650703 rxn_smarts="[O:1]([C:2]([C@@:3]1([C:6](=[O:7])[H:14])[C:4]([H:11])([H:12])[N:5]1[H:13])([H:9])[H:10])[H:8]>>[C:2](=[C:3]1[C:4]([H:11])([H:12])[N:5]1[H:13])([H:9])[H:10].[O:1]([C:6](=[O:7])[H:14])[H:8]"
O        0.89724347       1.78921764      -0.61928446
C        1.19320833      -0.22358462      -0.80859238
C        0.08272821      -0.48171150      -0.00428668
C       -0.77163597      -1.57253584       0.44136294
N        0.07017926      -0.81783078       1.38367852
C       -0.68646049       1.18979746      -0.31099745
O       -1.30107884       1.55840017       0.67516976
H        1.15876242       2.11241556       0.25186954
H        1.12236731      -0.24260251      -1.89249590
H        2.21798870      -0.28743296      -0.46510111
H       -0.45164156      -2.59789091       0.29704804
H       -1.83937955      -1.37494955       0.44324535
H       -0.50199841      -0.14995240       1.89713083
H       -1.19028288       1.09866025      -1.28874701
14
Frame=7 idx=009985 GeodesicLength=0.7319364592057921 rxn_smarts="[O:1]([C:2]([C@@:3]1([C:6](=[O:7])[H:14])[C:4]([H:11])([H:12])[N:5]1[H:13])([H:9])[H:10])[H:8]>>[C:2](=[C:3]1[C:4]([H:11])([H:12])[N:5]1[H:13])([H:9])[H:10].[O:1]([C:6](=[O:7])[H:14])[H:8]"
O        0.93188601       1.79074894      -0.59072754
C        1.18609430      -0.22373648      -0.82047115
C        0.07708598      -0.48295624      -0.01170441
C       -0.76017704      -1.57891026       0.45241357
N        0.06924078      -0.79630536       1.38189819
C       -0.70426559       1.20606506      -0.31927759
O       -1.34299894       1.55390884       0.65708121
H        1.17544416       2.09258481       0.29316717
H        1.10812546      -0.23128917      -1.90471998
H        2.21462421      -0.32477918      -0.49798583
H       -0.42055978      -2.60054432       0.32749884
H       -1.83034847      -1.39517043       0.44884242
H       -0.51257132      -0.13350993       1.89029185
H       -1.19157975       1.12389371      -1.30630673
14
Frame=8 idx=009985 GeodesicLength=0.8365567157669891 rxn_smarts="[O:1]([C:2]([C@@:3]1([C:6](=[O:7])[H:14])[C:4]([H:11])([H:12])[N:5]1[H:13])([H:9])[H:10])[H:8]>>[C:2](=[C:3]1[C:4]([H:11])([H:12])[N:5]1[H:13])([H:9])[H:10].[O:1]([C:6](=[O:7])[H:14])[H:8]"
O        0.96714730       1.79087726      -0.56192732
C        1.17919749      -0.22369793      -0.83193175
C        0.07148707      -0.48433351      -0.01901823
C       -0.74838470      -1.58506623       0.46355556
N        0.06786318      -0.77475535       1.37986207
C       -0.72219154       1.22270744      -0.32744829
O       -1.38471116       1.54880985       0.63851739
H        1.19195529       2.07202688       0.33362682
H        1.09414969      -0.21959069      -1.91637817
H        2.20995174      -0.36177493      -0.53129398
H       -0.38895052      -2.60213734       0.35794763
H       -1.82082643      -1.41548357       0.45461295
H       -0.52360591      -0.11724431       1.88317201
H       -1.19308152       1.14966245      -1.32329670
14
Frame=9 idx=009985 GeodesicLength=0.9408837682512402 rxn_smarts="[O:1]([C:2]([C@@:3]1([C:6](=[O:7])[H:14])[C:4]([H:11])([H:12])[N:5]1[H:13])([H:9])[H:10])[H:8]>>[C:2](=[C:3]1[C:4]([H:11])([H:12])[N:5]1[H:13])([H:9])[H:10].[O:1]([C:6](=[O:7])[H:14])[H:8]"
O        1.00296319       1.78963117      -0.53290786
C        1.17253908      -0.22351618      -0.84300494
C        0.06597090      -0.48583635      -0.02620181
C       -0.73626604      -1.59098784       0.47478841
N        0.06605407      -0.75324413       1.37758371
C       -0.74019967       1.23976987      -0.33545465
O       -1.42628015       1.54300247       0.61948397
H        1.20821095       2.05089356       0.37322497
H        1.08039140      -0.20758031      -1.92748666
H        2.20406232      -0.39843058      -0.56502912
H       -0.35691058      -2.60266237       0.38844578
H       -1.81080945      -1.43585094       0.46052584
H       -0.53506781      -0.10119980       1.87578526
H       -1.19465820       1.17601141      -1.33975291
14
Frame=10 idx=009985 GeodesicLength=1.045267120291481 rxn_smarts="[O:1]([C:2]([C@@:3]1([C:6](=[O:7])[H:14])[C:4]([H:11])([H:12])[N:5]1[H:13])([H:9])[H:10])[H:8]>>[C:2](=[C:3]1[C:4]([H:11])([H:12])[N:5]1[H:13])([H:9])[H:10].[O:1]([C:6](=[O:7])[H:14])[H:8]"
O        1.03960235       1.78692630      -0.50370742
C        1.16608619      -0.22316252      -0.85366763
C        0.06052141      -0.48744888      -0.03322606
C       -0.72378510      -1.59667788       0.48613772
N        0.06374715      -0.73171486       1.37509645
C       -0.75840789       1.25723417      -0.34327662
O       -1.46785725       1.53643198       0.59986530
H        1.22448025       2.02912176       0.41197707
H        1.06681749      -0.19514943      -1.93801241
H        2.19681025      -0.43469466      -0.59924803
H       -0.32432765      -2.60208444       0.41898545
H       -1.80025581      -1.45635571       0.46660311
H       -0.54706576      -0.08535326       1.86812593
H       -1.19636564       1.20292746      -1.35565286
14
Frame=11 idx=009985 GeodesicLength=1.1496906895149492 rxn_smarts="[O:1]([C:2]([C@@:3]1([C:6](=[O:7])[H:14])[C:4]([H:11])([H:12])[N:5]1[H:13])([H:9])[H:10])[H:8]>>[C:2](=[C:3]1[C:4]([H:11])([H:12])[N:5]1[H:13])([H:9])[H:10].[O:1]([C:6](=[O:7])[H:14])[H:8]"
O        1.07717497       1.78272910      -0.47433507
C        1.15982478      -0.22264545      -0.86393073
C        0.05514636      -0.48916040      -0.04007042
C       -0.71092822      -1.60212744       0.49761756
N        0.06091970      -0.71015801       1.37242349
C       -0.77686997       1.27510559      -0.35087857
O       -1.50955149       1.52901154       0.57958215
H        1.24085752       2.00673998       0.44989165
H        1.05337846      -0.18228012      -1.94795674
H        2.18817553      -0.47054965      -0.63397896
H       -0.29118879      -2.60037565       0.44959577
H       -1.78914045      -1.47702831       0.47284493
H       -0.55963925      -0.06970441       1.86019501
H       -1.19815915       1.23044323      -1.37100007
14
Frame=12 idx=009985 GeodesicLength=1.2541465892943093 rxn_smarts="[O:1]([C:2]([C@@:3]1([C:6](=[O:7])[H:14])[C:4]([H:11])([H:12])[N:5]1[H:13])([H:9])[H:10])[H:8]>>[C:2](=[C:3]1[C:4]([H:11])([H:12])[N:5]1[H:13])([H:9])[H:10].[O:1]([C:6](=[O:7])[H:14])[H:8]"
O        1.11581402       1.77698130      -0.44478032
C        1.15373698      -0.22197418      -0.87381048
C        0.04985228      -0.49095913      -0.04671618
C       -0.69767286      -1.60732448       0.50925190
N        0.05754354      -0.68855585       1.36958089
C       -0.79564674       1.29339106      -0.35822754
O       -1.55148587       1.52063488       0.55853371
H        1.25743496       1.98375062       0.48699009
H        1.04002032      -0.16892778      -1.95731575
H        2.17812168      -0.50598061      -0.66927440
H       -0.25747110      -2.59749604       0.48032983
H       -1.77742777      -1.49789771       0.47925837
H       -0.57283375      -0.05424750       1.85198455
H       -1.19998571       1.25860542      -1.38580466
14
Frame=13 idx=009985 GeodesicLength=1.3585961626793268 rxn_smarts="[O:1]([C:2]([C@@:3]1([C:6](=[O:7])[H:14])[C:4]([H:11])([H:12])[N:5]1[H:13])([H:9])[H:10])[H:8]>>[C:2](=[C:3]1[C:4]([H:11])([H:12])[N:5]1[H:13])([H:9])[H:10].[O:1]([C:6](=[O:7])[H:14])[H:8]"
O        1.15565324       1.76960642      -0.41503062
C        1.14780839      -0.22116335      -0.88332444
C        0.04464559      -0.49284160      -0.05314849
C       -0.68400232      -1.61225668       0.52106746
N        0.05359808      -0.66689314       1.36658542
C       -0.81480721       1.31208876      -0.36529304
O       -1.59372940       1.51120650       0.53660398
H        1.27426635       1.96016723       0.52329000
H        1.02669632      -0.15505064      -1.96609002
H        2.16661660      -0.54094350      -0.70517030
H       -0.22316803      -2.59341542       0.51122175
H       -1.76509112      -1.51898927       0.48585970
H       -0.58669003      -0.03897074       1.84348479
H       -1.20179647       1.28745543      -1.40005619
14
Frame=14 idx=009985 GeodesicLength=1.4630300335363826 rxn_smarts="[O:1]([C:2]([C@@:3]1([C:6](=[O:7])[H:14])[C:4]([H:11])([H:12])[N:5]1[H:13])([H:9])[H:10])[H:8]>>[C:2](=[C:3]1[C:4]([H:11])([H:12])[N:5]1[H:13])([H:9])[H:10].[O:1]([C:6](=[O:7])[H:14])[H:8]"
O        1.19685142       1.76048663      -0.38504521
C        1.14201837      -0.22021712      -0.89249089
C        0.03953184      -0.49479881      -0.05935163
C       -0.66988690      -1.61690765       0.53310272
N        0.04904938      -0.64513935       1.36344815
C       -0.83443241       1.33120067      -0.37204069
O       -1.63639728       1.50059101       0.51363763
H        1.29143428       1.93596686       0.55883103
H        1.01335087      -0.14057264      -1.97426893
H        2.15358771      -0.57541364      -0.74176126
H       -0.18824342      -2.58807046       0.54235782
H       -1.75207843      -1.54033876       0.49267131
H       -0.60126252      -0.02386197       1.83467443
H       -1.20352291       1.31707522      -1.41376449
14
Frame=15 idx=009985 GeodesicLength=1.567409235579104 rxn_smarts="[O:1]([C:2]([C@@:3]1([C:6](=[O:7])[H:14])[C:4]([H:11])([H:12])[N:5]1[H:13])([H:9])[H:10])[H:8]>>[C:2](=[C:3]1[C:4]([H:11])([H:12])[N:5]1[H:13])([H:9])[H:10].[O:1]([C:6](=[O:7])[H:14])[H:8]"
O        1.23957036       1.74947978      -0.35477809
C        1.13635225      -0.21915065      -0.90133321
C        0.03451724      -0.49683195      -0.06531421
C       -0.65529796      -1.62126100       0.54539873
N        0.04387116      -0.62326973       1.36017660
C       -0.85460979       1.35071708      -0.37843938
O       -1.67955061       1.48866265       0.48945827
H        1.30898204       1.91113634       0.59364289
H        0.99992970      -0.12541276      -1.98184293
H        2.13896717      -0.60932889      -0.77912191
H       -0.15268022      -2.58140288       0.57380735
H       -1.73834588      -1.56197282       0.49973250
H       -0.61660260      -0.00890479       1.82552657
H       -1.20510288       1.34753963      -1.42691318
14
Frame=16 idx=009985 GeodesicLength=1.6716859459548736 rxn_smarts="[O:1]([C:2]([C@@:3]1([C:6](=[O:7])[H:14])[C:4]([H:11])([H:12])[N:5]1[H:13])([H:9])[H:10])[H:8]>>[C:2](=[C:3]1[C:4]([H:11])([H:12])[N:5]1[H:13])([H:9])[H:10].[O:1]([C:6](=[O:7])[H:14])[H:8]"
O        1.28397814       1.73640685      -0.32416649
C        1.13079205      -0.21797746      -0.90987825
C        0.02960470      -0.49894284      -0.07102612
C       -0.64020397      -1.62529292       0.55800747
N        0.03802916      -0.60125341       1.35677580
C       -0.87543451       1.37062832      -0.38445892
O       -1.72325348       1.47527161       0.46386503
H        1.32695547       1.88564674       0.62775375
H        0.98638061      -0.10947108      -1.98879613
H        2.12266824      -0.64262461      -0.81735121
H       -0.11644601      -2.57333628       0.60566062
H       -1.72383705      -1.58391867       0.50708998
H       -0.63276931       0.00591764       1.81600680
H       -1.20646404       1.37894611      -1.43948234
