16
Frame=0 idx=007561 GeodesicLength=0.0 rxn_smarts="[C:1]([C@@:2]1([C:3]([C:4]#[C:5][H:13])([H:11])[H:12])[C:6]([H:14])([H:15])[N:7]1[H:16])([H:8])([H:9])[H:10]>>[C:1](/[C:2]([C:6]([C:5](=[C:4]=[C:3]([H:11])[H:12])[H:13])([H:14])[H:15])=[N:7]\[H:16])([H:8])([H:9])[H:10]"
C       -0.60108254       1.46664835       0.11447227
C       -0.55759212      -0.04268054      -0.07585974
C        0.39894401      -0.33405769      -1.44663463
C        1.63679402      -0.48093456      -0.76444159
C        1.99667112      -0.66144879       0.41058078
C        0.08903306      -0.79560111       1.02660916
N       -1.72935635      -0.73545038       0.02215234
H        0.39259675       1.91520641       0.07156877
H       -1.04318890       1.70396725       1.08495677
H       -1.22026645       1.91877661      -0.66328380
H        0.30585423       0.51886390      -2.11548060
H        0.05865399      -1.24754034      -1.93223403
H        2.76820064      -0.85287051       1.12846232
H        0.04772909      -1.87328480       0.94844544
H       -0.02758322      -0.40322251       2.03490712
H       -2.51540729      -0.09637134       0.15577946
16
Frame=1 idx=007561 GeodesicLength=0.09434079046493678 rxn_smarts="[C:1]([C@@:2]1([C:3]([C:4]#[C:5][H:13])([H:11])[H:12])[C:6]([H:14])([H:15])[N:7]1[H:16])([H:8])([H:9])[H:10]>>[C:1](/[C:2]([C:6]([C:5](=[C:4]=[C:3]([H:11])[H:12])[H:13])([H:14])[H:15])=[N:7]\[H:16])([H:8])([H:9])[H:10]"
C       -0.60589278       1.47050527       0.11883941
C       -0.56397026      -0.03767988      -0.07267306
C        0.41228290      -0.33742879      -1.46223321
C        1.64250516      -0.47977359      -0.76795707
C        1.99826316      -0.66089688       0.40871565
C        0.07384082      -0.79699741       1.03113193
N       -1.73080697      -0.73640406       0.03048354
H        0.38931821       1.91596981       0.07297097
H       -1.04145796       1.71075111       1.09190642
H       -1.22923405       1.92354129      -0.65514925
H        0.32462417       0.51393978      -2.13491370
H        0.07472352      -1.25272331      -1.94636031
H        2.77843939      -0.85505545       1.11658008
H        0.03335562      -1.87555229       0.96070632
H       -0.03743092      -0.40094084       2.03843005
H       -2.51856002      -0.10125478       0.16952224
16
Frame=2 idx=007561 GeodesicLength=0.18757097634202335 rxn_smarts="[C:1]([C@@:2]1([C:3]([C:4]#[C:5][H:13])([H:11])[H:12])[C:6]([H:14])([H:15])[N:7]1[H:16])([H:8])([H:9])[H:10]>>[C:1](/[C:2]([C:6]([C:5](=[C:4]=[C:3]([H:11])[H:12])[H:13])([H:14])[H:15])=[N:7]\[H:16])([H:8])([H:9])[H:10]"
C       -0.61078860       1.47437639       0.12333377
C       -0.57053076      -0.03266515      -0.06935504
C        0.42574945      -0.34088006      -1.47784378
C        1.64821506      -0.47852920      -0.77154526
C        1.99993169      -0.66026597       0.40677598
C        0.05854335      -0.79835176       1.03557917
N       -1.73245592      -0.73724052       0.03895909
H        0.38595578       1.91664442       0.07423137
H       -1.03965596       1.71752467       1.09894660
H       -1.23829798       1.92838331      -0.64678194
H        0.34391646       0.50873807      -2.15443160
H        0.09106058      -1.25803955      -1.96039257
H        2.78855130      -0.85714198       1.10442646
H        0.01900075      -1.87775738       0.97282164
H       -0.04737548      -0.39875866       2.04192665
H       -2.52181972      -0.10603664       0.18334947
16
Frame=3 idx=007561 GeodesicLength=0.2798989601646139 rxn_smarts="[C:1]([C@@:2]1([C:3]([C:4]#[C:5][H:13])([H:11])[H:12])[C:6]([H:14])([H:15])[N:7]1[H:16])([H:8])([H:9])[H:10]>>[C:1](/[C:2]([C:6]([C:5](=[C:4]=[C:3]([H:11])[H:12])[H:13])([H:14])[H:15])=[N:7]\[H:16])([H:8])([H:9])[H:10]"
C       -0.61581880       1.47825454       0.12800208
C       -0.57731239      -0.02764840      -0.06600111
C        0.43944933      -0.34439519      -1.49352518
C        1.65394079      -0.47713656      -0.77530366
C        2.00163773      -0.65948499       0.40471043
C        0.04314099      -0.79968663       1.03995937
N       -1.73423908      -0.73801647       0.04750087
H        0.38242583       1.91722692       0.07536411
H       -1.03779716       1.72426670       1.10617325
H       -1.24744304       1.93324011      -0.63821528
H        0.36372657       0.50327173      -2.17410288
H        0.10761778      -1.26345862      -1.97443972
H        2.79867845      -0.85931406       1.09213511
H        0.00452592      -1.87982236       0.98503317
H       -0.05734192      -0.39661033       2.04540052
H       -2.52519100      -0.11068640       0.19730893
16
Frame=4 idx=007561 GeodesicLength=0.37114160345819774 rxn_smarts="[C:1]([C@@:2]1([C:3]([C:4]#[C:5][H:13])([H:11])[H:12])[C:6]([H:14])([H:15])[N:7]1[H:16])([H:8])([H:9])[H:10]>>[C:1](/[C:2]([C:6]([C:5](=[C:4]=[C:3]([H:11])[H:12])[H:13])([H:14])[H:15])=[N:7]\[H:16])([H:8])([H:9])[H:10]"
C       -0.62092560       1.48215060       0.13284477
C       -0.58430847      -0.02265147      -0.06254510
C        0.45339708      -0.34801213      -1.50918675
C        1.65960922      -0.47566489      -0.77917657
C        2.00339819      -0.65871883       0.40250275
C        0.02766150      -0.80101390       1.04422727
N       -1.73623773      -0.73869904       0.05622099
H        0.37879250       1.91770274       0.07635515
H       -1.03583129       1.73096841       1.11346290
H       -1.25664248       1.93816095      -0.62939819
H        0.38395508       0.49756583      -2.19376417
H        0.12439681      -1.26897492      -1.98836091
H        2.80873182      -0.86123834       1.07960540
H       -0.01000698      -1.88180985       0.99719444
H       -0.06735286      -0.39458348       2.04882456
H       -2.52863678      -0.11518168       0.21119346
16
Frame=5 idx=007561 GeodesicLength=0.4616720630987836 rxn_smarts="[C:1]([C@@:2]1([C:3]([C:4]#[C:5][H:13])([H:11])[H:12])[C:6]([H:14])([H:15])[N:7]1[H:16])([H:8])([H:9])[H:10]>>[C:1](/[C:2]([C:6]([C:5](=[C:4]=[C:3]([H:11])[H:12])[H:13])([H:14])[H:15])=[N:7]\[H:16])([H:8])([H:9])[H:10]"
C       -0.62615653       1.48603990       0.13778141
C       -0.59151113      -0.01762724      -0.05901286
C        0.46768255      -0.35169326      -1.52492782
C        1.66528232      -0.47407506      -0.78318649
C        2.00521037      -0.65786042       0.40019039
C        0.01204857      -0.80226443       1.04845399
N       -1.73841582      -0.73927716       0.06496642
H        0.37503321       1.91806499       0.07714200
H       -1.03372217       1.73766527       1.12090215
H       -1.26604914       1.94313017      -0.62030269
H        0.40467723       0.49169921      -2.21363985
H        0.14157927      -1.27465678      -2.00225330
H        2.81869168      -0.86322526       1.06686244
H       -0.02466284      -1.88367882       1.00939760
H       -0.07746893      -0.39264100       2.05221696
H       -2.53221865      -0.11960011       0.22540966
16
Frame=6 idx=007561 GeodesicLength=0.5512561593165053 rxn_smarts="[C:1]([C@@:2]1([C:3]([C:4]#[C:5][H:13])([H:11])[H:12])[C:6]([H:14])([H:15])[N:7]1[H:16])([H:8])([H:9])[H:10]>>[C:1](/[C:2]([C:6]([C:5](=[C:4]=[C:3]([H:11])[H:12])[H:13])([H:14])[H:15])=[N:7]\[H:16])([H:8])([H:9])[H:10]"
C       -0.63148435       1.48991440       0.14287044
C       -0.59893832      -0.01263593      -0.05537063
C        0.48216992      -0.35547142      -1.54075118
C        1.67080500      -0.47246331      -0.78736886
C        2.00710632      -0.65689565       0.39773213
C       -0.00363145      -0.80348998       1.05256216
N       -1.74082634      -0.73975427       0.07386021
H        0.37112881       1.91831698       0.07784093
H       -1.03153700       1.74430843       1.12851555
H       -1.27550679       1.94816691      -0.61098127
H        0.42608196       0.48550223      -2.23356979
H        0.15900882      -1.28040382      -2.01601238
H        2.82857952      -0.86498821       1.05387994
H       -0.03939496      -1.88546615       1.02154493
H       -0.08760104      -0.39079666       2.05556086
H       -2.53596009      -0.12384355       0.23968695
16
Frame=7 idx=007561 GeodesicLength=0.6398398310342766 rxn_smarts="[C:1]([C@@:2]1([C:3]([C:4]#[C:5][H:13])([H:11])[H:12])[C:6]([H:14])([H:15])[N:7]1[H:16])([H:8])([H:9])[H:10]>>[C:1](/[C:2]([C:6]([C:5](=[C:4]=[C:3]([H:11])[H:12])[H:13])([H:14])[H:15])=[N:7]\[H:16])([H:8])([H:9])[H:10]"
C       -0.63690055       1.49381423       0.14814985
C       -0.60656179      -0.00764552      -0.05164916
C        0.49683072      -0.35927106      -1.55660550
C        1.67628999      -0.47074511      -0.79167183
C        2.00906826      -0.65588555       0.39517565
C       -0.01943538      -0.80466558       1.05656519
N       -1.74347905      -0.74010656       0.08288011
H        0.36700873       1.91845124       0.07830851
H       -1.02918996       1.75092388       1.13626915
H       -1.28510997       1.95327961      -0.60135565
H        0.44816795       0.47896235      -2.25355118
H        0.17676777      -1.28631992      -2.02971414
H        2.83839339      -0.86658842       1.04059587
H       -0.05424020      -1.88720045       1.03360609
H       -0.09781739      -0.38904594       2.05887426
H       -2.53979252      -0.12795720       0.25412278
16
Frame=8 idx=007561 GeodesicLength=0.72770521302479 rxn_smarts="[C:1]([C@@:2]1([C:3]([C:4]#[C:5][H:13])([H:11])[H:12])[C:6]([H:14])([H:15])[N:7]1[H:16])([H:8])([H:9])[H:10]>>[C:1](/[C:2]([C:6]([C:5](=[C:4]=[C:3]([H:11])[H:12])[H:13])([H:14])[H:15])=[N:7]\[H:16])([H:8])([H:9])[H:10]"
C       -0.64241531       1.49774644       0.15362628
C       -0.61440274      -0.00263276      -0.04776039
C        0.51172388      -0.36316231      -1.57258725
C        1.68174496      -0.46894415      -0.79613121
C        2.01107387      -0.65480171       0.39245875
C       -0.03535614      -0.80579939       1.06052429
N       -1.74633439      -0.74034968       0.09199455
H        0.36279940       1.91847380       0.07859543
H       -1.02673055       1.75750373       1.14410603
H       -1.29481565       1.95847923      -0.59140756
H        0.47071460       0.47210965      -2.27358791
H        0.19487279      -1.29239192      -2.04338632
H        2.84808899      -0.86805732       1.02716864
H       -0.06911338      -1.88885313       1.04555865
H       -0.10809048      -0.38737257       2.06214967
H       -2.54375984      -0.13194792       0.26867835
16
Frame=9 idx=007561 GeodesicLength=0.8147959175142269 rxn_smarts="[C:1]([C@@:2]1([C:3]([C:4]#[C:5][H:13])([H:11])[H:12])[C:6]([H:14])([H:15])[N:7]1[H:16])([H:8])([H:9])[H:10]>>[C:1](/[C:2]([C:6]([C:5](=[C:4]=[C:3]([H:11])[H:12])[H:13])([H:14])[H:15])=[N:7]\[H:16])([H:8])([H:9])[H:10]"
C       -0.64826960       1.50169426       0.15912388
C       -0.62247534       0.00245012      -0.04399005
C        0.52700590      -0.36714889      -1.58848725
C        1.68732784      -0.46674757      -0.80049406
C        2.01288732      -0.65330490       0.39001594
C       -0.05172842      -0.80678446       1.06426772
N       -1.74937850      -0.74048448       0.10113395
H        0.35825150       1.91849252       0.07849126
H       -1.02405219       1.76435230       1.15230063
H       -1.30512887       1.96357089      -0.58126540
H        0.49423804       0.46501325      -2.29371645
H        0.21381023      -1.29868088      -2.05696726
H        2.85818203      -0.87050979       1.01267015
H       -0.08423522      -1.89033748       1.05754096
H       -0.11857250      -0.38564071       2.06538430
H       -2.54786221      -0.13593417       0.28399169
16
Frame=10 idx=007561 GeodesicLength=0.9009944403533644 rxn_smarts="[C:1]([C@@:2]1([C:3]([C:4]#[C:5][H:13])([H:11])[H:12])[C:6]([H:14])([H:15])[N:7]1[H:16])([H:8])([H:9])[H:10]>>[C:1](/[C:2]([C:6]([C:5](=[C:4]=[C:3]([H:11])[H:12])[H:13])([H:14])[H:15])=[N:7]\[H:16])([H:8])([H:9])[H:10]"
C       -0.65423053       1.50564543       0.16484696
C       -0.63082094       0.00751342      -0.04016014
C        0.54246595      -0.37118320      -1.60445600
C        1.69285362      -0.46449611      -0.80502572
C        2.01478265      -0.65169457       0.38741448
C       -0.06818633      -0.80778499       1.06788833
N       -1.75263650      -0.74047056       0.11037583
H        0.35353348       1.91838002       0.07821326
H       -1.02122005       1.77112724       1.16063722
H       -1.31555214       1.96877609      -0.57079704
H        0.51836351       0.45755649      -2.31391680
H        0.23301195      -1.30512583      -2.07049165
H        2.86821564      -0.87277240       0.99804594
H       -0.09940584      -1.89171904       1.06949082
H       -0.12906839      -0.38400926       2.06855175
H       -2.55210607      -0.13974274       0.29938277
16
Frame=11 idx=007561 GeodesicLength=0.9866512422090473 rxn_smarts="[C:1]([C@@:2]1([C:3]([C:4]#[C:5][H:13])([H:11])[H:12])[C:6]([H:14])([H:15])[N:7]1[H:16])([H:8])([H:9])[H:10]>>[C:1](/[C:2]([C:6]([C:5](=[C:4]=[C:3]([H:11])[H:12])[H:13])([H:14])[H:15])=[N:7]\[H:16])([H:8])([H:9])[H:10]"
C       -0.66030412       1.50960089       0.17070320
C       -0.63941394       0.01257250      -0.03622197
C        0.55838123      -0.37536088      -1.62047885
C        1.69835198      -0.46211166      -0.80968884
C        2.01678180      -0.65007012       0.38469486
C       -0.08480489      -0.80874111       1.07142352
N       -1.75619320      -0.74034112       0.11968736
H        0.34865576       1.91810801       0.07769173
H       -1.01820774       1.77788441       1.16911269
H       -1.32614948       1.97403644      -0.56005906
H        0.54312516       0.44986958      -2.33422645
H        0.25253976      -1.31165919      -2.08393365
H        2.87811592      -0.87485473       0.98311945
H       -0.11472298      -1.89303109       1.08134467
H       -0.13964010      -0.38246998       2.07166715
H       -2.55651515      -0.14343194       0.31516417
16
Frame=12 idx=007561 GeodesicLength=1.0714514476959196 rxn_smarts="[C:1]([C@@:2]1([C:3]([C:4]#[C:5][H:13])([H:11])[H:12])[C:6]([H:14])([H:15])[N:7]1[H:16])([H:8])([H:9])[H:10]>>[C:1](/[C:2]([C:6]([C:5](=[C:4]=[C:3]([H:11])[H:12])[H:13])([H:14])[H:15])=[N:7]\[H:16])([H:8])([H:9])[H:10]"
C       -0.66649761       1.51355543       0.17676627
C       -0.64825949       0.01760723      -0.03214918
C        0.57440966      -0.37957256      -1.63663382
C        1.70372016      -0.45967465      -0.81457304
C        2.01881969      -0.64836485       0.38178239
C       -0.10148229      -0.80970049       1.07486005
N       -1.75998772      -0.74008568       0.12913864
H        0.34358337       1.91769834       0.07691336
H       -1.01501092       1.78457267       1.17769215
H       -1.33683725       1.97942536      -0.54878589
H        0.56869986       0.44169892      -2.35454034
H        0.27232426      -1.31834412      -2.09728833
H        2.88792710      -0.87657603       0.96803038
H       -0.13009348      -1.89421900       1.09313263
H       -0.15025798      -0.38112565       2.07471043
H       -2.56105736      -0.14689493       0.33094428
16
Frame=13 idx=007561 GeodesicLength=1.1558055887782044 rxn_smarts="[C:1]([C@@:2]1([C:3]([C:4]#[C:5][H:13])([H:11])[H:12])[C:6]([H:14])([H:15])[N:7]1[H:16])([H:8])([H:9])[H:10]>>[C:1](/[C:2]([C:6]([C:5](=[C:4]=[C:3]([H:11])[H:12])[H:13])([H:14])[H:15])=[N:7]\[H:16])([H:8])([H:9])[H:10]"
C       -0.67280991       1.51751833       0.18305488
C       -0.65750934       0.02267425      -0.02808736
C        0.59086252      -0.38385912      -1.65284709
C        1.70905496      -0.45701921      -0.81960371
C        2.02090267      -0.64659052       0.37869490
C       -0.11832782      -0.81068832       1.07811801
N       -1.76407676      -0.73974819       0.13873439
H        0.33827178       1.91714499       0.07586007
H       -1.01150688       1.79113662       1.18638900
H       -1.34779327       1.98493162      -0.53708377
H        0.59511830       0.43313862      -2.37500877
H        0.29251495      -1.32512891      -2.11067971
H        2.89765551      -0.87826239       0.95266545
H       -0.14559588      -1.89527237       1.10497682
H       -0.16093784      -0.37972685       2.07772074
H       -2.56582298      -0.15024856       0.34709616
16
Frame=14 idx=007561 GeodesicLength=1.2395290020317467 rxn_smarts="[C:1]([C@@:2]1([C:3]([C:4]#[C:5][H:13])([H:11])[H:12])[C:6]([H:14])([H:15])[N:7]1[H:16])([H:8])([H:9])[H:10]>>[C:1](/[C:2]([C:6]([C:5](=[C:4]=[C:3]([H:11])[H:12])[H:13])([H:14])[H:15])=[N:7]\[H:16])([H:8])([H:9])[H:10]"
C       -0.67921297       1.52150274       0.18955089
C       -0.66697657       0.02775708      -0.02389882
C        0.60754717      -0.38823546      -1.66920144
C        1.71427136      -0.45433157      -0.82485022
C        2.02309497      -0.64478105       0.37541942
C       -0.13529455      -0.81166186       1.08132573
N       -1.76842151      -0.73926825       0.14852526
H        0.33273977       1.91642516       0.07455813
H       -1.00781854       1.79763986       1.19524998
H       -1.35883579       1.99058863      -0.52492373
H        0.62224350       0.42416932      -2.39550820
H        0.31295199      -1.33207236      -2.12398181
H        2.90721583      -0.87954164       0.93712198
H       -0.16117332      -1.89627881       1.11669424
H       -0.17163994      -0.37847954       2.08068957
H       -2.57069138      -0.15343224       0.36322900
16
Frame=15 idx=007561 GeodesicLength=1.3228577329872482 rxn_smarts="[C:1]([C@@:2]1([C:3]([C:4]#[C:5][H:13])([H:11])[H:12])[C:6]([H:14])([H:15])[N:7]1[H:16])([H:8])([H:9])[H:10]>>[C:1](/[C:2]([C:6]([C:5](=[C:4]=[C:3]([H:11])[H:12])[H:13])([H:14])[H:15])=[N:7]\[H:16])([H:8])([H:9])[H:10]"
C       -0.68577723       1.52548536       0.19623682
C       -0.67676969       0.03287897      -0.01960328
C        0.62463621      -0.39266252      -1.68571575
C        1.71946098      -0.45147031      -0.83030848
C        2.02525553      -0.64288485       0.37189657
C       -0.15237721      -0.81260039       1.08443877
N       -1.77309188      -0.73867101       0.15846353
H        0.32684428       1.91550607       0.07284043
H       -1.00381190       1.80403604       1.20408891
H       -1.37011464       1.99642775      -0.51216008
H        0.65038690       0.41477066      -2.41612455
H        0.33371296      -1.33908614      -2.13723614
H        2.91669049      -0.88067412       0.92143404
H       -0.17694465      -1.89726185       1.12834082
H       -0.18237161      -0.37729528       2.08360785
H       -2.57572854      -0.15649838       0.37980055
16
Frame=16 idx=007561 GeodesicLength=1.4056262837841207 rxn_smarts="[C:1]([C@@:2]1([C:3]([C:4]#[C:5][H:13])([H:11])[H:12])[C:6]([H:14])([H:15])[N:7]1[H:16])([H:8])([H:9])[H:10]>>[C:1](/[C:2]([C:6]([C:5](=[C:4]=[C:3]([H:11])[H:12])[H:13])([H:14])[H:15])=[N:7]\[H:16])([H:8])([H:9])[H:10]"
C       -0.69239852       1.52949567       0.20316919
C       -0.68685801       0.03798129      -0.01522790
C        0.64197358      -0.39718391      -1.70242468
C        1.72452583      -0.44858207      -0.83598955
C        2.02748226      -0.64094974       0.36814732
C       -0.16958375      -0.81356558       1.08745291
N       -1.77804255      -0.73792473       0.16857223
H        0.32063188       1.91439327       0.07087501
H       -0.99958418       1.81035804       1.21306126
H       -1.38148167       2.00241171      -0.49893335
H        0.67934138       0.40495345      -2.43681264
H        0.35484052      -1.34623017      -2.15044041
H        2.92603958      -0.88141776       0.90560867
H       -0.19280643      -1.89814233       1.13988451
H       -0.19314472      -0.37623573       2.08646236
H       -2.58093519      -0.15936142       0.39659507
