11
Frame=0 idx=003738 GeodesicLength=0.0 rxn_smarts="[C:1]([C@@:2]([N:3]([H:10])[H:11])([C:4]#[N:5])[H:9])([H:6])([H:7])[H:8]>>[C:1]1([H:6])([H:8])[C@:2]([N:3]([H:10])[H:11])([H:9])/[C:4]1=[N:5]/[H:7]"
C        1.16300203       0.07076998       0.00184451
C       -0.28491033      -0.14070238      -0.55280596
N       -0.97561511      -1.33539814      -0.16267793
C       -0.36184900       1.08651108       0.19853403
N       -0.42090521       2.08809540       0.87869731
H        1.91772784       0.15805595      -0.77224784
H        0.74090505       1.50945108       0.80094952
H        1.39194338      -0.65376808       0.77911657
H       -0.34296433       0.02309936      -1.62724622
H       -1.96427962      -1.28586716      -0.36898929
H       -0.86305465      -1.52024712       0.82482534
11
Frame=1 idx=003738 GeodesicLength=0.07860632989234823 rxn_smarts="[C:1]([C@@:2]([N:3]([H:10])[H:11])([C:4]#[N:5])[H:9])([H:6])([H:7])[H:8]>>[C:1]1([H:6])([H:8])[C@:2]([N:3]([H:10])[H:11])([H:9])/[C:4]1=[N:5]/[H:7]"
C        1.16108204       0.07282929       0.00112322
C       -0.28159743      -0.14546330      -0.55820045
N       -0.97785673      -1.33333510      -0.15549321
C       -0.36663834       1.09106433       0.17969086
N       -0.42907734       2.07818079       0.87980793
H        1.91593065       0.18056420      -0.77053576
H        0.75139065       1.49633581       0.82438174
H        1.40088232      -0.66281404       0.76440366
H       -0.33593042       0.00675656      -1.63442275
H       -1.96548863      -1.28083351      -0.36635845
H       -0.87269677      -1.50328501       0.83560322
11
Frame=2 idx=003738 GeodesicLength=0.15719995875671822 rxn_smarts="[C:1]([C@@:2]([N:3]([H:10])[H:11])([C:4]#[N:5])[H:9])([H:6])([H:7])[H:8]>>[C:1]1([H:6])([H:8])[C@:2]([N:3]([H:10])[H:11])([H:9])/[C:4]1=[N:5]/[H:7]"
C        1.15907678       0.07500785       0.00058403
C       -0.27836609      -0.15012296      -0.56335919
N       -0.98006050      -1.33113663      -0.14830418
C       -0.37151016       1.09553656       0.16104437
N       -0.43708648       2.06846538       0.87996696
H        1.91372726       0.20299204      -0.76845722
H        0.76176572       1.48265844       0.84821128
H        1.41005460      -0.67179848       0.74915010
H       -0.32887765      -0.00952066      -1.64123469
H       -1.96665100      -1.27577874      -0.36365693
H       -0.88207248      -1.48630280       0.84605546
11
Frame=3 idx=003738 GeodesicLength=0.23576007064302726 rxn_smarts="[C:1]([C@@:2]([N:3]([H:10])[H:11])([C:4]#[N:5])[H:9])([H:6])([H:7])[H:8]>>[C:1]1([H:6])([H:8])[C@:2]([N:3]([H:10])[H:11])([H:9])/[C:4]1=[N:5]/[H:7]"
C        1.15695378       0.07730643       0.00026737
C       -0.27523899      -0.15468100      -0.56827265
N       -0.98222186      -1.32884461      -0.14115125
C       -0.37654748       1.09988267       0.14266253
N       -0.44482422       2.05903560       0.87919711
H        1.91110318       0.22528433      -0.76598177
H        0.77213391       1.46852645       0.87231257
H        1.41940853      -0.68065443       0.73341117
H       -0.32182984      -0.02567308      -1.64766648
H       -1.96776846      -1.27076344      -0.36092286
H       -0.89116856      -1.46941893       0.85614426
11
Frame=4 idx=003738 GeodesicLength=0.31439903063116753 rxn_smarts="[C:1]([C@@:2]([N:3]([H:10])[H:11])([C:4]#[N:5])[H:9])([H:6])([H:7])[H:8]>>[C:1]1([H:6])([H:8])[C@:2]([N:3]([H:10])[H:11])([H:9])/[C:4]1=[N:5]/[H:7]"
C        1.15470994       0.07973255       0.00021261
C       -0.27224185      -0.15913781      -0.57294607
N       -0.98436331      -1.32651793      -0.13406285
C       -0.38184251       1.10406642       0.12458426
N       -0.45222124       2.04996151       0.87755192
H        1.90809882       0.24741436      -0.76308825
H        0.78265764       1.45407026       0.89656611
H        1.42891760      -0.68931990       0.71725595
H       -0.31480890      -0.04163445      -1.65374427
H       -1.96888959      -1.26586879      -0.35820031
H       -0.90001660      -1.45276623       0.86587091
11
Frame=5 idx=003738 GeodesicLength=0.3926740970801288 rxn_smarts="[C:1]([C@@:2]([N:3]([H:10])[H:11])([C:4]#[N:5])[H:9])([H:6])([H:7])[H:8]>>[C:1]1([H:6])([H:8])[C@:2]([N:3]([H:10])[H:11])([H:9])/[C:4]1=[N:5]/[H:7]"
C        1.15218118       0.08229194       0.00038008
C       -0.26935263      -0.16351568      -0.57737948
N       -0.98637107      -1.32409118      -0.12704850
C       -0.38739130       1.10813514       0.10669196
N       -0.45906878       2.04129433       0.87496901
H        1.90444416       0.26930433      -0.75980887
H        0.79315050       1.43904041       0.92127401
H        1.43846683      -0.69767986       0.70060257
H       -0.30778502      -0.05756255      -1.65935987
H       -1.96979536      -1.26103687      -0.35547377
H       -0.90847851      -1.43618001       0.87515288
11
Frame=6 idx=003738 GeodesicLength=0.4712405589660468 rxn_smarts="[C:1]([C@@:2]([N:3]([H:10])[H:11])([C:4]#[N:5])[H:9])([H:6])([H:7])[H:8]>>[C:1]1([H:6])([H:8])[C@:2]([N:3]([H:10])[H:11])([H:9])/[C:4]1=[N:5]/[H:7]"
C        1.14949302       0.08502272       0.00084012
C       -0.26662412      -0.16779576      -0.58160740
N       -0.98838197      -1.32170238      -0.12012005
C       -0.39335648       1.11204426       0.08903164
N       -0.46542253       2.03301178       0.87160800
H        1.90042460       0.29101189      -0.75611746
H        0.80404982       1.42377110       0.94612820
H        1.44812259      -0.70569714       0.68363138
H       -0.30079472      -0.07328250      -1.66467186
H       -1.97074870      -1.25645381      -0.35282239
H       -0.91676150      -1.41993017       0.88409981
11
Frame=7 idx=003738 GeodesicLength=0.549883676496217 rxn_smarts="[C:1]([C@@:2]([N:3]([H:10])[H:11])([C:4]#[N:5])[H:9])([H:6])([H:7])[H:8]>>[C:1]1([H:6])([H:8])[C@:2]([N:3]([H:10])[H:11])([H:9])/[C:4]1=[N:5]/[H:7]"
C        1.14653249       0.08792380       0.00160288
C       -0.26405919      -0.17201045      -0.58561237
N       -0.99032362      -1.31931734      -0.11330297
C       -0.39978300       1.11573666       0.07159959
N       -0.47114136       2.02506807       0.86750207
H        1.89588948       0.31250637      -0.75198936
H        0.81542409       1.40829946       0.97115488
H        1.45772378      -0.71329169       0.66629874
H       -0.29383489      -0.08887939      -1.66962428
H       -1.97159033      -1.25211926      -0.35030359
H       -0.92483745      -1.40391622       0.89267442
11
Frame=8 idx=003738 GeodesicLength=0.6281034770778409 rxn_smarts="[C:1]([C@@:2]([N:3]([H:10])[H:11])([C:4]#[N:5])[H:9])([H:6])([H:7])[H:8]>>[C:1]1([H:6])([H:8])[C@:2]([N:3]([H:10])[H:11])([H:9])/[C:4]1=[N:5]/[H:7]"
C        1.14334350       0.09099603       0.00263625
C       -0.26163178      -0.17615677      -0.58944565
N       -0.99222852      -1.31694345      -0.10654207
C       -0.40662709       1.11930863       0.05422460
N       -0.47623201       2.01742807       0.86281796
H        1.89090207       0.33380830      -0.74747817
H        0.82710776       1.39246888       0.99640225
H        1.46738668      -0.72039437       0.64859567
H       -0.28684398      -0.10441494      -1.67427350
H       -1.97239415      -1.24803299      -0.34788581
H       -0.93278249      -1.38806738       0.90094845
11
Frame=9 idx=003738 GeodesicLength=0.7066728485969166 rxn_smarts="[C:1]([C@@:2]([N:3]([H:10])[H:11])([C:4]#[N:5])[H:9])([H:6])([H:7])[H:8]>>[C:1]1([H:6])([H:8])[C@:2]([N:3]([H:10])[H:11])([H:9])/[C:4]1=[N:5]/[H:7]"
C        1.13986528       0.09430075       0.00395019
C       -0.25936804      -0.18023759      -0.59310935
N       -0.99408476      -1.31459150      -0.09983770
C       -0.41402379       1.12275068       0.03684976
N       -0.48063441       2.01012587       0.85737281
H        1.88539682       0.35499171      -0.74259060
H        0.83937940       1.37618621       1.02212974
H        1.47704121      -0.72697018       0.63051566
H       -0.27984279      -0.11991388      -1.67861869
H       -1.97312250      -1.24425955      -0.34559877
H       -0.94060641      -1.37238251       0.90893696
11
Frame=10 idx=003738 GeodesicLength=0.7850554141821882 rxn_smarts="[C:1]([C@@:2]([N:3]([H:10])[H:11])([C:4]#[N:5])[H:9])([H:6])([H:7])[H:8]>>[C:1]1([H:6])([H:8])[C@:2]([N:3]([H:10])[H:11])([H:9])/[C:4]1=[N:5]/[H:7]"
C        1.13609437       0.09781779       0.00554972
C       -0.25725902      -0.18426309      -0.59661889
N       -0.99589904      -1.31226192      -0.09317284
C       -0.42194481       1.12607648       0.01941002
N       -0.48429518       2.00306949       0.85134551
H        1.87937448       0.37603629      -0.73734525
H        0.85217937       1.35945542       1.04824780
H        1.48670868      -0.73290682       0.61206980
H       -0.27279481      -0.13542036      -1.68267185
H       -1.97378601      -1.24081580      -0.34347399
H       -0.94837802      -1.35678748       0.91665997
11
Frame=11 idx=003738 GeodesicLength=0.8633657364964163 rxn_smarts="[C:1]([C@@:2]([N:3]([H:10])[H:11])([C:4]#[N:5])[H:9])([H:6])([H:7])[H:8]>>[C:1]1([H:6])([H:8])[C@:2]([N:3]([H:10])[H:11])([H:9])/[C:4]1=[N:5]/[H:7]"
C        1.13199495       0.10158131       0.00746240
C       -0.25531644      -0.18822626      -0.59996848
N       -0.99766642      -1.30996756      -0.08657116
C       -0.43049004       1.12925058       0.00191928
N       -0.48717224       1.99625113       0.84473631
H        1.87282871       0.39693671      -0.73169924
H        0.86571820       1.34234850       1.07467711
H        1.49628283      -0.73818037       0.59329556
H       -0.26569834      -0.15090105      -1.68642800
H       -1.97435278      -1.23775065      -0.34153687
H       -0.95612843      -1.34134234       0.92411311
11
Frame=12 idx=003738 GeodesicLength=0.9416446473614759 rxn_smarts="[C:1]([C@@:2]([N:3]([H:10])[H:11])([C:4]#[N:5])[H:9])([H:6])([H:7])[H:8]>>[C:1]1([H:6])([H:8])[C@:2]([N:3]([H:10])[H:11])([H:9])/[C:4]1=[N:5]/[H:7]"
C        1.12755745       0.10559458       0.00967899
C       -0.25354533      -0.19213445      -0.60317377
N       -0.99939804      -1.30770711      -0.08000594
C       -0.43966827       1.13230047      -0.01572435
N       -0.48924246       1.98960274       0.83753607
H        1.86573713       0.41774218      -0.72571554
H        0.88004300       1.32476222       1.10157748
H        1.50581157      -0.74270437       0.57421219
H       -0.25854530      -0.16641286      -1.68989482
H       -1.97484471      -1.23508047      -0.33981048
H       -0.96390504      -1.32596293       0.93132016
11
Frame=13 idx=003738 GeodesicLength=1.0198857595613393 rxn_smarts="[C:1]([C@@:2]([N:3]([H:10])[H:11])([C:4]#[N:5])[H:9])([H:6])([H:7])[H:8]>>[C:1]1([H:6])([H:8])[C@:2]([N:3]([H:10])[H:11])([H:9])/[C:4]1=[N:5]/[H:7]"
C        1.12276675       0.10987886       0.01221034
C       -0.25194062      -0.19598643      -0.60623928
N       -1.00109563      -1.30547992      -0.07345586
C       -0.44951779       1.13522585      -0.03356346
N       -0.49048589       1.98311441       0.82974647
H        1.85807989       0.43849859      -0.71937717
H        0.89523736       1.30659447       1.12896357
H        1.51528687      -0.74641959       0.55478744
H       -0.25129871      -0.18198203      -1.69307519
H       -1.97525309      -1.23284193      -0.33830534
H       -0.97177915      -1.31060229       0.93830850
11
Frame=14 idx=003738 GeodesicLength=1.098078093620473 rxn_smarts="[C:1]([C@@:2]([N:3]([H:10])[H:11])([C:4]#[N:5])[H:9])([H:6])([H:7])[H:8]>>[C:1]1([H:6])([H:8])[C@:2]([N:3]([H:10])[H:11])([H:9])/[C:4]1=[N:5]/[H:7]"
C        1.11761159       0.11444906       0.01507295
C       -0.25050905      -0.19977960      -0.60916438
N       -1.00277184      -1.30328935      -0.06690655
C       -0.46007425       1.13802493      -0.05163861
N       -0.49087424       1.97672732       0.82135424
H        1.84984834       0.45925803      -0.71268472
H        0.91140725       1.28781324       1.15685417
H        1.52470500      -0.74928578       0.53502965
H       -0.24394670      -0.19762186      -1.69596206
H       -1.97558211      -1.23107107      -0.33704936
H       -0.97981399      -1.29522491       0.94509467
11
Frame=15 idx=003738 GeodesicLength=1.1763340457707485 rxn_smarts="[C:1]([C@@:2]([N:3]([H:10])[H:11])([C:4]#[N:5])[H:9])([H:6])([H:7])[H:8]>>[C:1]1([H:6])([H:8])[C@:2]([N:3]([H:10])[H:11])([H:9])/[C:4]1=[N:5]/[H:7]"
C        1.11206269       0.11931212       0.01827001
C       -0.24924310      -0.20350945      -0.61194267
N       -1.00440655      -1.30110584      -0.06033574
C       -0.47136843       1.14068262      -0.06997876
N       -0.49043877       1.97042381       0.81228977
H        1.84098817       0.48004619      -0.70564757
H        0.92864470       1.26826211       1.18533316
H        1.53404573      -0.75123646       0.51490017
H       -0.23645369      -0.21336101      -1.69853056
H       -1.97578556      -1.22976799      -0.33604276
H       -0.98804518      -1.27974611       0.95168495
11
Frame=16 idx=003738 GeodesicLength=1.254514285602119 rxn_smarts="[C:1]([C@@:2]([N:3]([H:10])[H:11])([C:4]#[N:5])[H:9])([H:6])([H:7])[H:8]>>[C:1]1([H:6])([H:8])[C@:2]([N:3]([H:10])[H:11])([H:9])/[C:4]1=[N:5]/[H:7]"
C        1.10610298       0.12446166       0.02185613
C       -0.24815646      -0.20716120      -0.61455618
N       -1.00602196      -1.29896789      -0.05379216
C       -0.48343412       1.14318419      -0.08853257
N       -0.48921624       1.96411756       0.80267122
H        1.83150771       0.50078236      -0.69824352
H        0.94723792       1.24815866       1.21411615
H        1.54323352      -0.75220709       0.49457083
H       -0.22883015      -0.22911754      -1.70075710
H       -1.97588034      -1.22898957      -0.33536196
H       -0.99654284      -1.26426115       0.95802916
