17
Frame=0 idx=010085 GeodesicLength=0.0 rxn_smarts="[C:1]([C:2]([O:3][C@@:4]([C:5]([H:14])([H:15])[H:16])([C:6](=[O:7])[H:17])[H:13])([H:11])[H:12])([H:8])([H:9])[H:10]>>[C:1]([C:2]([O:3]/[C:4](=[C:6](/[O:7][C:5]([H:14])([H:15])[H:16])[H:17])[H:13])([H:11])[H:12])([H:8])([H:9])[H:10]"
C        2.70644135      -0.94707440      -0.46624401
C        1.19878813      -0.87900343      -0.41783448
O        0.81961164      -0.12297889       0.72160888
C       -0.48850814       0.25057232       0.77890191
C       -2.10515812       1.87734934      -0.05659587
C       -1.58472928      -0.57275207       0.56775539
O       -2.71200014      -0.06443432       0.34167164
H        3.09890359      -1.41450895       0.43765952
H        3.02902515      -1.53484532      -1.32725230
H        3.13389316       0.05295713      -0.54840556
H        0.78879361      -0.40206193      -1.31597680
H        0.77374607      -1.88852883      -0.35485034
H       -0.65647333       1.04011460       1.50138798
H       -2.04690101       1.61428222      -1.10206775
H       -3.09568281       2.08066873       0.32219762
H       -1.34886742       2.57386715       0.28062144
H       -1.51088244      -1.66362328       0.63742274
17
Frame=1 idx=010085 GeodesicLength=0.07857966269245421 rxn_smarts="[C:1]([C:2]([O:3][C@@:4]([C:5]([H:14])([H:15])[H:16])([C:6](=[O:7])[H:17])[H:13])([H:11])[H:12])([H:8])([H:9])[H:10]>>[C:1]([C:2]([O:3]/[C:4](=[C:6](/[O:7][C:5]([H:14])([H:15])[H:16])[H:17])[H:13])([H:11])[H:12])([H:8])([H:9])[H:10]"
C        2.70584262      -0.92692065      -0.46250797
C        1.19733419      -0.89564727      -0.40026731
O        0.80971259      -0.09560867       0.70366477
C       -0.50660659       0.24297837       0.77817284
C       -2.08018596       1.86970722      -0.04182456
C       -1.59782210      -0.57907930       0.53277443
O       -2.72478843      -0.06327372       0.31514815
H        3.11917026      -1.34196211       0.45754431
H        3.03516841      -1.54580401      -1.29881834
H        3.10653532       0.07866942      -0.59556869
H        0.76750675      -0.47420000      -1.31675192
H        0.80160314      -1.91210732      -0.28210420
H       -0.67721770       0.99772636       1.53710587
H       -2.12441131       1.64267941      -1.09703230
H       -3.02760385       2.12246216       0.41221810
H       -1.28044718       2.55204703       0.21732842
H       -1.52379017      -1.67166692       0.54091840
17
Frame=2 idx=010085 GeodesicLength=0.15741394285478094 rxn_smarts="[C:1]([C:2]([O:3][C@@:4]([C:5]([H:14])([H:15])[H:16])([C:6](=[O:7])[H:17])[H:13])([H:11])[H:12])([H:8])([H:9])[H:10]>>[C:1]([C:2]([O:3]/[C:4](=[C:6](/[O:7][C:5]([H:14])([H:15])[H:16])[H:17])[H:13])([H:11])[H:12])([H:8])([H:9])[H:10]"
C        2.70592798      -0.90957687      -0.45803496
C        1.19758296      -0.91192902      -0.38222570
O        0.79976631      -0.06438503       0.67983217
C       -0.52403303       0.23665847       0.77396869
C       -2.05917749       1.86250637      -0.02594418
C       -1.60958974      -0.58379561       0.49476230
O       -2.73737006      -0.06162395       0.28919618
H        3.13709914      -1.26812517       0.47746419
H        3.04314174      -1.56168279      -1.26546950
H        3.08100313       0.09724787      -0.64522928
H        0.75099794      -0.55003776      -1.31605023
H        0.83000295      -1.93047243      -0.20553010
H       -0.69663936       0.95530061       1.56740635
H       -2.20696100       1.67919506      -1.08091592
H       -2.95521555       2.15802113       0.50242787
H       -1.22289080       2.52713917       0.15510557
H       -1.53364513      -1.67444005       0.43923656
17
Frame=3 idx=010085 GeodesicLength=0.2361786840498057 rxn_smarts="[C:1]([C:2]([O:3][C@@:4]([C:5]([H:14])([H:15])[H:16])([C:6](=[O:7])[H:17])[H:13])([H:11])[H:12])([H:8])([H:9])[H:10]>>[C:1]([C:2]([O:3]/[C:4](=[C:6](/[O:7][C:5]([H:14])([H:15])[H:16])[H:17])[H:13])([H:11])[H:12])([H:8])([H:9])[H:10]"
C        2.70648072      -0.89497380      -0.45273926
C        1.19906442      -0.92699592      -0.36401624
O        0.78946823      -0.02998112       0.64994682
C       -0.54065124       0.23141871       0.76696970
C       -2.04181803       1.85507715      -0.00946263
C       -1.62006572      -0.58718231       0.45506381
O       -2.74969399      -0.05996603       0.26470268
H        3.15201905      -1.19443578       0.49671471
H        3.05250732      -1.58115453      -1.22755848
H        3.05792428       0.10841642      -0.69576609
H        0.73911758      -0.62747104      -1.31339573
H        0.85762422      -1.94239686      -0.12698877
H       -0.71397779       0.91296004       1.59287710
H       -2.29287719       1.72119527      -1.05301138
H       -2.87871475       2.18752987       0.59077440
H       -1.17608351       2.49970510       0.09271138
H       -1.54032358      -1.67174517       0.33317797
17
Frame=4 idx=010085 GeodesicLength=0.3148143389291321 rxn_smarts="[C:1]([C:2]([O:3][C@@:4]([C:5]([H:14])([H:15])[H:16])([C:6](=[O:7])[H:17])[H:13])([H:11])[H:12])([H:8])([H:9])[H:10]>>[C:1]([C:2]([O:3]/[C:4](=[C:6](/[O:7][C:5]([H:14])([H:15])[H:16])[H:17])[H:13])([H:11])[H:12])([H:8])([H:9])[H:10]"
C        2.70776525      -0.88322428      -0.44626428
C        1.20175826      -0.94096876      -0.34585290
O        0.77860370       0.00698129       0.61295361
C       -0.55623294       0.22753930       0.75620702
C       -2.02868944       1.84758781       0.00812372
C       -1.62919791      -0.58916358       0.41332202
O       -2.76182938      -0.05855929       0.24184215
H        3.16401218      -1.12077465       0.51553917
H        3.06363162      -1.60422248      -1.18414059
H        3.03782480       0.11176838      -0.74687859
H        0.73203899      -0.70677735      -1.30882201
H        0.88401507      -1.94771806      -0.04691389
H       -0.72825960       0.87052225       1.61315456
H       -2.38200017       1.76771163      -1.01187103
H       -2.79867960       2.21140441       0.67732735
H       -1.14090004       2.47085332       0.02971984
H       -1.54386081      -1.66295993       0.22255386
17
Frame=5 idx=010085 GeodesicLength=0.3931448822173992 rxn_smarts="[C:1]([C:2]([O:3][C@@:4]([C:5]([H:14])([H:15])[H:16])([C:6](=[O:7])[H:17])[H:13])([H:11])[H:12])([H:8])([H:9])[H:10]>>[C:1]([C:2]([O:3]/[C:4](=[C:6](/[O:7][C:5]([H:14])([H:15])[H:16])[H:17])[H:13])([H:11])[H:12])([H:8])([H:9])[H:10]"
C        2.70997805      -0.87442077      -0.43827459
C        1.20559886      -0.95400667      -0.32790198
O        0.76709449       0.04532269       0.56821253
C       -0.57045326       0.22553149       0.74060698
C       -2.02036233       1.84023921       0.02726951
C       -1.63685944      -0.58955848       0.36917945
O       -2.77368292      -0.05768812       0.22029232
H        3.17315240      -1.04718333       0.53398272
H        3.07671762      -1.63063087      -1.13440977
H        3.02116327       0.10689927      -0.79806856
H        0.72985176      -0.78801583      -1.30214412
H        0.90865241      -1.94638154       0.03399153
H       -0.73839671       0.82801557       1.62759583
H       -2.47389389       1.81773759      -0.95616198
H       -2.71555586       2.22986681       0.76205067
H       -1.11863652       2.44177235      -0.03415363
H       -1.54436793      -1.64749935       0.10793309
17
Frame=6 idx=010085 GeodesicLength=0.4706168362453239 rxn_smarts="[C:1]([C:2]([O:3][C@@:4]([C:5]([H:14])([H:15])[H:16])([C:6](=[O:7])[H:17])[H:13])([H:11])[H:12])([H:8])([H:9])[H:10]>>[C:1]([C:2]([O:3]/[C:4](=[C:6](/[O:7][C:5]([H:14])([H:15])[H:16])[H:17])[H:13])([H:11])[H:12])([H:8])([H:9])[H:10]"
C        2.71268230      -0.86805053      -0.42879289
C        1.20993285      -0.96564979      -0.31038418
O        0.75494610       0.08262882       0.51766246
C       -0.58312570       0.22542975       0.72096441
C       -2.01610951       1.83252299       0.04728405
C       -1.64313929      -0.58867110       0.32421300
O       -2.78498006      -0.05771927       0.20016960
H        3.17920211      -0.97540345       0.55125439
H        3.09086917      -1.65808537      -1.07978308
H        3.00788830       0.09483652      -0.84705807
H        0.73168504      -0.86851952      -1.29280843
H        0.93041956      -1.93861628       0.11300657
H       -0.74377715       0.78610956       1.63648646
H       -2.56584563       1.86821996      -0.88634182
H       -2.62909952       2.24374755       0.84234231
H       -1.10930645       2.41255878      -0.09979795
H       -1.54224211      -1.62533864      -0.00841685
17
Frame=7 idx=010085 GeodesicLength=0.5469629052900291 rxn_smarts="[C:1]([C:2]([O:3][C@@:4]([C:5]([H:14])([H:15])[H:16])([C:6](=[O:7])[H:17])[H:13])([H:11])[H:12])([H:8])([H:9])[H:10]>>[C:1]([C:2]([O:3]/[C:4](=[C:6](/[O:7][C:5]([H:14])([H:15])[H:16])[H:17])[H:13])([H:11])[H:12])([H:8])([H:9])[H:10]"
C        2.71577157      -0.86391078      -0.41778634
C        1.21451279      -0.97607350      -0.29322495
O        0.74261648       0.11716886       0.46300391
C       -0.59408927       0.22765203       0.69729778
C       -2.01574149       1.82446809       0.06812892
C       -1.64796809      -0.58648603       0.27876310
O       -2.79554462      -0.05880307       0.18158033
H        3.18257501      -0.90624511       0.56707139
H        3.10561483      -1.68554821      -1.02103578
H        2.99781019       0.07633050      -0.89277598
H        0.73682968      -0.94735265      -1.28045501
H        0.94904198      -1.92533693       0.18906311
H       -0.74415094       0.74528464       1.63975255
H       -2.65651556       1.91683308      -0.80244631
H       -2.53930096       2.25407326       0.91685106
H       -1.11374803       2.38384022      -0.16752236
H       -1.53771359      -1.59589442      -0.12626541
17
Frame=8 idx=010085 GeodesicLength=0.6224798148597905 rxn_smarts="[C:1]([C:2]([O:3][C@@:4]([C:5]([H:14])([H:15])[H:16])([C:6](=[O:7])[H:17])[H:13])([H:11])[H:12])([H:8])([H:9])[H:10]>>[C:1]([C:2]([O:3]/[C:4](=[C:6](/[O:7][C:5]([H:14])([H:15])[H:16])[H:17])[H:13])([H:11])[H:12])([H:8])([H:9])[H:10]"
C        2.71898057      -0.86144199      -0.40555820
C        1.21905782      -0.98552872      -0.27615822
O        0.73027437       0.14823384       0.40511478
C       -0.60355192       0.23205952       0.66987325
C       -2.01871081       1.81617530       0.09022293
C       -1.65143758      -0.58307526       0.23206711
O       -2.80512828      -0.06085938       0.16231696
H        3.18372710      -0.83841186       0.58090170
H        3.12051050      -1.71263328      -0.95803143
H        2.99017301       0.05184392      -0.93618274
H        0.74436745      -1.02479598      -1.26462366
H        0.96469717      -1.90715144       0.26255841
H       -0.74015154       0.70496123       1.63769615
H       -2.74344544       1.96303160      -0.70482545
H       -2.44601549       2.26149399       0.98474154
H       -1.13206161       2.35574432      -0.23598860
H       -1.53128532      -1.55964580      -0.24412452
17
Frame=9 idx=010085 GeodesicLength=0.6973939424434781 rxn_smarts="[C:1]([C:2]([O:3][C@@:4]([C:5]([H:14])([H:15])[H:16])([C:6](=[O:7])[H:17])[H:13])([H:11])[H:12])([H:8])([H:9])[H:10]>>[C:1]([C:2]([O:3]/[C:4](=[C:6](/[O:7][C:5]([H:14])([H:15])[H:16])[H:17])[H:13])([H:11])[H:12])([H:8])([H:9])[H:10]"
C        2.72230293      -0.86085724      -0.39210707
C        1.22350156      -0.99416087      -0.25890095
O        0.71873882       0.17527313       0.34548065
C       -0.61137224       0.23922999       0.63880131
C       -2.02487740       1.80763288       0.11374584
C       -1.65323304      -0.57819449       0.18407444
O       -2.81351513      -0.06399095       0.14288073
H        3.18324146      -0.77291044       0.59246727
H        3.13505602      -1.73904306      -0.89150644
H        2.98488861       0.02155939      -0.97654811
H        0.75362363      -1.10040849      -1.24489367
H        0.97743576      -1.88470784       0.33340491
H       -0.73201799       0.66567074       1.63023005
H       -2.82607766       2.00409002      -0.59355516
H       -2.34942373       2.26709698       1.04473264
H       -1.16562650       2.32896853      -0.30490806
H       -1.52264511      -1.51524827      -0.36339835
17
Frame=10 idx=010085 GeodesicLength=0.7722071018038941 rxn_smarts="[C:1]([C:2]([O:3][C@@:4]([C:5]([H:14])([H:15])[H:16])([C:6](=[O:7])[H:17])[H:13])([H:11])[H:12])([H:8])([H:9])[H:10]>>[C:1]([C:2]([O:3]/[C:4](=[C:6](/[O:7][C:5]([H:14])([H:15])[H:16])[H:17])[H:13])([H:11])[H:12])([H:8])([H:9])[H:10]"
C        2.72496900      -0.86111393      -0.37823089
C        1.22717792      -1.00167440      -0.24114945
O        0.70784857       0.19791608       0.28658342
C       -0.61813885       0.24799948       0.60638815
C       -2.03234643       1.79831448       0.13818440
C       -1.65375598      -0.57248327       0.13545757
O       -2.82053310      -0.06790498       0.12103668
H        3.18140877      -0.70949472       0.60065831
H        3.14815724      -1.76320185      -0.82332886
H        2.98043436      -0.01280506      -1.01406641
H        0.76285447      -1.17293331      -1.22075957
H        0.98747769      -1.85864729       0.40131106
H       -0.72155557       0.62683406       1.61909099
H       -2.90011099       2.03876854      -0.47156644
H       -2.24944613       2.27182130       1.09421943
H       -1.21232692       2.30233975      -0.37232095
H       -1.51211405      -1.46373488      -0.48150742
17
Frame=11 idx=010085 GeodesicLength=0.8473117201434649 rxn_smarts="[C:1]([C:2]([O:3][C@@:4]([C:5]([H:14])([H:15])[H:16])([C:6](=[O:7])[H:17])[H:13])([H:11])[H:12])([H:8])([H:9])[H:10]>>[C:1]([C:2]([O:3]/[C:4](=[C:6](/[O:7][C:5]([H:14])([H:15])[H:16])[H:17])[H:13])([H:11])[H:12])([H:8])([H:9])[H:10]"
C        2.72663445      -0.86190593      -0.36454525
C        1.22981870      -1.00795232      -0.22263474
O        0.69778772       0.21631513       0.23041579
C       -0.62413342       0.25789013       0.57408860
C       -2.04002938       1.78801766       0.16316790
C       -1.65303473      -0.56610877       0.08655446
O       -2.82606942      -0.07220773       0.09558715
H        3.17876604      -0.64877973       0.60481939
H        3.15914482      -1.78450476      -0.75530136
H        2.97587106      -0.05017889      -1.04876539
H        0.77087330      -1.24159781      -1.19198210
H        0.99525672      -1.82959778       0.46633548
H       -0.71019740       0.58844380       1.60542358
H       -2.96324958       2.06570611      -0.34173164
H       -2.14733644       2.27622228       1.13152965
H       -1.27074730       2.27583274      -0.43605027
H       -1.49935513      -1.40559413      -0.59691123
17
Frame=12 idx=010085 GeodesicLength=0.9230692523889412 rxn_smarts="[C:1]([C:2]([O:3][C@@:4]([C:5]([H:14])([H:15])[H:16])([C:6](=[O:7])[H:17])[H:13])([H:11])[H:12])([H:8])([H:9])[H:10]>>[C:1]([C:2]([O:3]/[C:4](=[C:6](/[O:7][C:5]([H:14])([H:15])[H:16])[H:17])[H:13])([H:11])[H:12])([H:8])([H:9])[H:10]"
C        2.72698588      -0.86286827      -0.35171222
C        1.23120881      -1.01285116      -0.20317462
O        0.68852361       0.23089069       0.17885734
C       -0.62971273       0.26812536       0.54352523
C       -2.04679964       1.77657090       0.18814489
C       -1.65122291      -0.55929875       0.03777204
O       -2.83015814      -0.07630539       0.06547972
H        3.17580839      -0.59123663       0.60445455
H        3.16753990      -1.80248026      -0.68929096
H        2.97019871      -0.08932893      -1.08086431
H        0.77661949      -1.30560298      -1.15857210
H        1.00131709      -1.79820352       0.52852561
H       -0.69949653       0.55037548       1.59063774
H       -3.01363731       2.08416852      -0.20755124
H       -2.04474574       2.28067860       1.15549975
H       -1.33837004       2.24924008      -0.49397057
H       -1.48405882      -1.34187373      -0.70776085
17
Frame=13 idx=010085 GeodesicLength=0.9996495018065592 rxn_smarts="[C:1]([C:2]([O:3][C@@:4]([C:5]([H:14])([H:15])[H:16])([C:6](=[O:7])[H:17])[H:13])([H:11])[H:12])([H:8])([H:9])[H:10]>>[C:1]([C:2]([O:3]/[C:4](=[C:6](/[O:7][C:5]([H:14])([H:15])[H:16])[H:17])[H:13])([H:11])[H:12])([H:8])([H:9])[H:10]"
C        2.72596629      -0.86400857      -0.34022132
C        1.23135260      -1.01630179      -0.18275325
O        0.68014408       0.24237393       0.13300185
C       -0.63502765       0.27834457       0.51562400
C       -2.05211540       1.76402864       0.21260736
C       -1.64831013      -0.55197307      -0.01071138
O       -2.83282566      -0.07957878       0.03021715
H        3.17302099      -0.53745066       0.59943528
H        3.17318202      -1.81733843      -0.62665693
H        2.96289580      -0.12955143      -1.11068656
H        0.77950238      -1.36444102      -1.12086627
H        1.00617881      -1.76496390       0.58799972
H       -0.69048635       0.51285868       1.57565531
H       -3.05084262       2.09381199      -0.07229357
H       -1.94418632       2.28502697       1.16614083
H       -1.41266081       2.22309656      -0.54414935
H       -1.46578802      -1.27393371      -0.81234287
17
Frame=14 idx=010085 GeodesicLength=1.0771454665028979 rxn_smarts="[C:1]([C:2]([O:3][C@@:4]([C:5]([H:14])([H:15])[H:16])([C:6](=[O:7])[H:17])[H:13])([H:11])[H:12])([H:8])([H:9])[H:10]>>[C:1]([C:2]([O:3]/[C:4](=[C:6](/[O:7][C:5]([H:14])([H:15])[H:16])[H:17])[H:13])([H:11])[H:12])([H:8])([H:9])[H:10]"
C        2.72368072      -0.86554501      -0.33032915
C        1.23038581      -1.01829298      -0.16148339
O        0.67278807       0.25163159       0.09312581
C       -0.64007059       0.28849406       0.49070214
C       -2.05590273       1.75053992       0.23611041
C       -1.64419457      -0.54386998      -0.05884662
O       -2.83406870      -0.08153093      -0.00999733
H        3.17078592      -0.48785208       0.58992979
H        3.17613844      -1.82971132      -0.56805189
H        2.95381981      -0.17062517      -1.13859960
H        0.77932578      -1.41790344      -1.07940682
H        1.01025493      -1.73018859       0.64491821
H       -0.68361678       0.47634500       1.56094054
H       -3.07557636       2.09456822       0.06147266
H       -1.84829735       2.28885217       1.16451186
H       -1.49124298       2.19817237      -0.58538957
H       -1.44420942      -1.20308382      -0.90960706
17
Frame=15 idx=010085 GeodesicLength=1.1554550638784913 rxn_smarts="[C:1]([C:2]([O:3][C@@:4]([C:5]([H:14])([H:15])[H:16])([C:6](=[O:7])[H:17])[H:13])([H:11])[H:12])([H:8])([H:9])[H:10]>>[C:1]([C:2]([O:3]/[C:4](=[C:6](/[O:7][C:5]([H:14])([H:15])[H:16])[H:17])[H:13])([H:11])[H:12])([H:8])([H:9])[H:10]"
C        2.72028462      -0.86774801      -0.32213654
C        1.22847644      -1.01882757      -0.13960646
O        0.66658898       0.25949601       0.05900862
C       -0.64474218       0.29870821       0.46876158
C       -2.05833695       1.73628425       0.25817028
C       -1.63875259      -0.53470936      -0.10643414
O       -2.83384842      -0.08186032      -0.05436903
H        3.16933732      -0.44280959       0.57630501
H        3.17656267      -1.84031911      -0.51376142
H        2.94304474      -0.21248221      -1.16485770
H        0.77612960      -1.46585003      -1.03493289
H        1.01382341      -1.69411586       0.69929537
H       -0.67886901       0.44145519       1.54671812
H       -3.08907207       2.08659294       0.19146609
H       -1.75965355       2.29161141       1.15246950
H       -1.57174628       2.17522075      -0.61725365
H       -1.41922674      -1.13064670      -0.99884274
17
Frame=16 idx=010085 GeodesicLength=1.2343286970337652 rxn_smarts="[C:1]([C:2]([O:3][C@@:4]([C:5]([H:14])([H:15])[H:16])([C:6](=[O:7])[H:17])[H:13])([H:11])[H:12])([H:8])([H:9])[H:10]>>[C:1]([C:2]([O:3]/[C:4](=[C:6](/[O:7][C:5]([H:14])([H:15])[H:16])[H:17])[H:13])([H:11])[H:12])([H:8])([H:9])[H:10]"
C        2.71590584      -0.87075775      -0.31562964
C        1.22576475      -1.01791755      -0.11745234
O        0.66157107       0.26665188       0.03025646
C       -0.64897016       0.30907440       0.44977733
C       -2.05964800       1.72141700       0.27827319
C       -1.63195213      -0.52438661      -0.15300967
O       -2.83216317      -0.08050056      -0.10166140
H        3.16873570      -0.40263828       0.55913975
H        3.17463552      -1.84969010      -0.46401486
H        2.93070246      -0.25481414      -1.18949514
H        0.77009563      -1.50810842      -0.98837196
H        1.01705976      -1.65706448       0.75094709
H       -0.67598862       0.40873528       1.53322792
H       -3.09268801       2.07043299       0.31557114
H       -1.68013248       2.29293578       1.13226626
H       -1.65184207       2.15450843      -0.64020893
H       -1.39108609      -1.05787787      -1.07961519
