9
Frame=0 idx=001609 GeodesicLength=0.0 rxn_smarts="[O:1]=[C:2]([O:3][C:4]([C:5]#[N:6])([H:8])[H:9])[H:7]>>[C:5]=[N:6][H:9].[o+:1]1[c-:2]([H:7])[o:3][c:4]1[H:8]"
O        1.33911644      -0.83377516       0.54824199
C        1.64911869       0.25587421      -0.03286047
O        0.58617126       0.61413977      -0.62739486
C       -0.02728146      -0.58449129      -0.02008419
C       -2.72445124       0.78391916      -0.41507189
N       -2.29268166       0.58483775       0.65445358
H        2.60208234       0.77352175      -0.01281764
H       -0.27763077      -1.32262477      -0.77589721
H       -0.85444357      -0.27140141       0.68143066
9
Frame=1 idx=001609 GeodesicLength=0.08846364564762428 rxn_smarts="[O:1]=[C:2]([O:3][C:4]([C:5]#[N:6])([H:8])[H:9])[H:7]>>[C:5]=[N:6][H:9].[o+:1]1[c-:2]([H:7])[o:3][c:4]1[H:8]"
O        1.34213706      -0.83604018       0.54680507
C        1.65591542       0.24662925      -0.03994841
O        0.59419432       0.61167981      -0.63784579
C       -0.04303202      -0.57308301      -0.03028930
C       -2.70054354       0.76284762      -0.41802296
N       -2.30496314       0.58726366       0.66840979
H        2.60118499       0.77775757      -0.00236108
H       -0.27982004      -1.31973946      -0.78278713
H       -0.86507305      -0.25731527       0.69603981
9
Frame=2 idx=001609 GeodesicLength=0.17658177760270866 rxn_smarts="[O:1]=[C:2]([O:3][C:4]([C:5]#[N:6])([H:8])[H:9])[H:7]>>[C:5]=[N:6][H:9].[o+:1]1[c-:2]([H:7])[o:3][c:4]1[H:8]"
O        1.34552278      -0.83741836       0.54653798
C        1.66233921       0.23751065      -0.04727972
O        0.60199205       0.60773271      -0.64959689
C       -0.05855472      -0.56217001      -0.04101919
C       -2.67554943       0.74796632      -0.41920775
N       -2.31854028       0.58629479       0.68143348
H        2.59873293       0.78312750       0.00787545
H       -0.28025084      -1.31905213      -0.78850157
H       -0.87569171      -0.24399146       0.70975821
9
Frame=3 idx=001609 GeodesicLength=0.26455838880324395 rxn_smarts="[O:1]=[C:2]([O:3][C:4]([C:5]#[N:6])([H:8])[H:9])[H:7]>>[C:5]=[N:6][H:9].[o+:1]1[c-:2]([H:7])[o:3][c:4]1[H:8]"
O        1.34900691      -0.83805933       0.54764993
C        1.66808309       0.23003027      -0.05164635
O        0.60977238       0.60432532      -0.66006159
C       -0.07400647      -0.55082484      -0.05201710
C       -2.65177346       0.73431104      -0.41946283
N       -2.33301173       0.58408176       0.69317096
H        2.59800219       0.78583303       0.01398115
H       -0.27892195      -1.31798697      -0.79434153
H       -0.88715097      -0.23171027       0.72272735
9
Frame=4 idx=001609 GeodesicLength=0.35266579302382595 rxn_smarts="[O:1]=[C:2]([O:3][C:4]([C:5]#[N:6])([H:8])[H:9])[H:7]>>[C:5]=[N:6][H:9].[o+:1]1[c-:2]([H:7])[o:3][c:4]1[H:8]"
O        1.35286704      -0.83844593       0.54961810
C        1.67357279       0.22302497      -0.05556410
O        0.61757347       0.60016879      -0.67139949
C       -0.08940366      -0.53983038      -0.06361562
C       -2.62806122       0.72421756      -0.41855853
N       -2.34799879       0.58033565       0.70430372
H        2.59680521       0.78917576       0.01965973
H       -0.27658081      -1.31845076      -0.79962765
H       -0.89877403      -0.22019566       0.73518385
9
Frame=5 idx=001609 GeodesicLength=0.44040203263413324 rxn_smarts="[O:1]=[C:2]([O:3][C:4]([C:5]#[N:6])([H:8])[H:9])[H:7]>>[C:5]=[N:6][H:9].[o+:1]1[c-:2]([H:7])[o:3][c:4]1[H:8]"
O        1.35697596      -0.83786389       0.55273943
C        1.67863091       0.21670848      -0.05826037
O        0.62527295       0.59537504      -0.68254924
C       -0.10475770      -0.52875729      -0.07569893
C       -2.60429534       0.71797488      -0.41639964
N       -2.36423289       0.57377954       0.71431314
H        2.59608434       0.79176680       0.02308989
H       -0.27279787      -1.31944271      -0.80395554
H       -0.91088036      -0.20954085       0.74672125
9
Frame=6 idx=001609 GeodesicLength=0.5281845492518963 rxn_smarts="[O:1]=[C:2]([O:3][C:4]([C:5]#[N:6])([H:8])[H:9])[H:7]>>[C:5]=[N:6][H:9].[o+:1]1[c-:2]([H:7])[o:3][c:4]1[H:8]"
O        1.36155796      -0.83719267       0.55633891
C        1.68349696       0.21063474      -0.06082145
O        0.63304835       0.58957961      -0.69471743
C       -0.12006685      -0.51806384      -0.08850370
C       -2.58052055       0.71500146      -0.41303000
N       -2.38068367       0.56601125       0.72372171
H        2.59453081       0.79538274       0.02676147
H       -0.26833204      -1.32183170      -0.80750036
H       -0.92303098      -0.19952160       0.75775084
9
Frame=7 idx=001609 GeodesicLength=0.6159205241082514 rxn_smarts="[O:1]=[C:2]([O:3][C:4]([C:5]#[N:6])([H:8])[H:9])[H:7]>>[C:5]=[N:6][H:9].[o+:1]1[c-:2]([H:7])[o:3][c:4]1[H:8]"
O        1.36657956      -0.83621773       0.56052332
C        1.68812825       0.20489146      -0.06297235
O        0.64086767       0.58287473      -0.70750163
C       -0.13535551      -0.50759609      -0.10202431
C       -2.55672762       0.71528183      -0.40841389
N       -2.39756709       0.55667785       0.73232124
H        2.59251925       0.79952083       0.03002576
H       -0.26309979      -1.32523286      -0.81013109
H       -0.93534471      -0.19020002       0.76817294
9
Frame=8 idx=001609 GeodesicLength=0.7036342875255506 rxn_smarts="[O:1]=[C:2]([O:3][C:4]([C:5]#[N:6])([H:8])[H:9])[H:7]>>[C:5]=[N:6][H:9].[o+:1]1[c-:2]([H:7])[o:3][c:4]1[H:8]"
O        1.37205476      -0.83498427       0.56525259
C        1.69252787       0.19948383      -0.06472535
O        0.64874151       0.57528338      -0.72085882
C       -0.15064140      -0.49735848      -0.11629133
C       -2.53285156       0.71872729      -0.40253324
N       -2.41483545       0.54582640       0.74003911
H        2.59004985       0.80419950       0.03288332
H       -0.25721983      -1.32957582      -0.81180192
H       -0.94782576      -0.18160183       0.77803563
9
Frame=9 idx=001609 GeodesicLength=0.7913019676473358 rxn_smarts="[O:1]=[C:2]([O:3][C:4]([C:5]#[N:6])([H:8])[H:9])[H:7]>>[C:5]=[N:6][H:9].[o+:1]1[c-:2]([H:7])[o:3][c:4]1[H:8]"
O        1.37798578      -0.83344704       0.57052365
C        1.69666358       0.19444558      -0.06601809
O        0.65665492       0.56680594      -0.73467933
C       -0.16594692      -0.48733444      -0.13135173
C       -2.50885405       0.72527795      -0.39527565
N       -2.43244876       0.53347181       0.74672028
H        2.58718491       0.80932459       0.03520746
H       -0.25072358      -1.33472823      -0.81243412
H       -0.96051587      -0.17381617       0.78730753
9
Frame=10 idx=001609 GeodesicLength=0.8789213714530353 rxn_smarts="[O:1]=[C:2]([O:3][C:4]([C:5]#[N:6])([H:8])[H:9])[H:7]>>[C:5]=[N:6][H:9].[o+:1]1[c-:2]([H:7])[o:3][c:4]1[H:8]"
O        1.38438034      -0.83155091       0.57633940
C        1.70051080       0.18977927      -0.06688262
O        0.66460078       0.55734843      -0.74898958
C       -0.18130207      -0.47754770      -0.14727818
C       -2.48456239       0.73513413      -0.38644272
N       -2.45040134       0.51949369       0.75217665
H        2.58385849       0.81495191       0.03700136
H       -0.24366529      -1.34067184      -0.81188044
H       -0.97341932      -0.16693699       0.79595614
9
Frame=11 idx=001609 GeodesicLength=0.9665896215747047 rxn_smarts="[O:1]=[C:2]([O:3][C:4]([C:5]#[N:6])([H:8])[H:9])[H:7]>>[C:5]=[N:6][H:9].[o+:1]1[c-:2]([H:7])[o:3][c:4]1[H:8]"
O        1.39133563      -0.82959040       0.58246897
C        1.70408265       0.18548636      -0.06737525
O        0.67258112       0.54703811      -0.76371719
C       -0.19669345      -0.46805695      -0.16405487
C       -2.46004108       0.74750044      -0.37616260
N       -2.46832618       0.50472040       0.75642268
H        2.57993193       0.82127300       0.03853988
H       -0.23632319      -1.34729913      -0.81029601
H       -0.98654744      -0.16107182       0.80417439
9
Frame=12 idx=001609 GeodesicLength=1.0542028572064785 rxn_smarts="[O:1]=[C:2]([O:3][C:4]([C:5]#[N:6])([H:8])[H:9])[H:7]>>[C:5]=[N:6][H:9].[o+:1]1[c-:2]([H:7])[o:3][c:4]1[H:8]"
O        1.39878530      -0.82723840       0.58908531
C        1.70726838       0.18163526      -0.06741553
O        0.68054977       0.53563458      -0.77890078
C       -0.21220211      -0.45887751      -0.18184994
C       -2.43497599       0.76307910      -0.36394398
N       -2.48631940       0.48864535       0.75908935
H        2.57540372       0.82820781       0.03957692
H       -0.22857163      -1.35460512      -0.80736422
H       -0.99993803      -0.15648107       0.81172288
9
Frame=13 idx=001609 GeodesicLength=1.1419268018473852 rxn_smarts="[O:1]=[C:2]([O:3][C:4]([C:5]#[N:6])([H:8])[H:9])[H:7]>>[C:5]=[N:6][H:9].[o+:1]1[c-:2]([H:7])[o:3][c:4]1[H:8]"
O        1.40698337      -0.82502993       0.59576586
C        1.71011323       0.17821955      -0.06703969
O        0.68847540       0.52343814      -0.79431478
C       -0.22774951      -0.45007475      -0.20058916
C       -2.40977520       0.78012498      -0.35028220
N       -2.50373550       0.47309955       0.76049808
H        2.57008648       0.83597108       0.04056138
H       -0.22071725      -1.36231734      -0.80348299
H       -1.01368104      -0.15343128       0.81888349
9
Frame=14 idx=001609 GeodesicLength=1.2294414537063028 rxn_smarts="[O:1]=[C:2]([O:3][C:4]([C:5]#[N:6])([H:8])[H:9])[H:7]>>[C:5]=[N:6][H:9].[o+:1]1[c-:2]([H:7])[o:3][c:4]1[H:8]"
O        1.41563420      -0.82250235       0.60268077
C        1.71235002       0.17541677      -0.06606120
O        0.69629511       0.51022197      -0.80988996
C       -0.24349145      -0.44165378      -0.22047243
C       -2.38383063       0.79917679      -0.33467471
N       -2.52038434       0.45755403       0.76027023
H        2.56398744       0.84444177       0.04117372
H       -0.21282149      -1.37041893      -0.79832805
H       -1.02773886      -0.15223628       0.82530163
9
Frame=15 idx=001609 GeodesicLength=1.3170762751990146 rxn_smarts="[O:1]=[C:2]([O:3][C:4]([C:5]#[N:6])([H:8])[H:9])[H:7]>>[C:5]=[N:6][H:9].[o+:1]1[c-:2]([H:7])[o:3][c:4]1[H:8]"
O        1.42511928      -0.82015543       0.60958136
C        1.71415912       0.17312820      -0.06462112
O        0.70402549       0.49628445      -0.82550554
C       -0.25930796      -0.43367785      -0.24145275
C       -2.35766881       0.81898198      -0.31767041
N       -2.53614297       0.44349207       0.75891242
H        2.55701019       0.85378137       0.04175195
H       -0.20489335      -1.37871907      -0.79222088
H       -1.04230098      -0.15311573       0.83122497
9
Frame=16 idx=001609 GeodesicLength=1.404708178674715 rxn_smarts="[O:1]=[C:2]([O:3][C:4]([C:5]#[N:6])([H:8])[H:9])[H:7]>>[C:5]=[N:6][H:9].[o+:1]1[c-:2]([H:7])[o:3][c:4]1[H:8]"
O        1.43535137      -0.81780323       0.61651259
C        1.71536931       0.17146752      -0.06260821
O        0.71162547       0.48152327      -0.84112695
C       -0.27527495      -0.42614433      -0.26366311
C       -2.33090110       0.83960609      -0.29911477
N       -2.55088498       0.43083164       0.75634780
H        2.54910489       0.86393643       0.04218201
H       -0.19704924      -1.38713306      -0.78499400
H       -1.05734077      -0.15628434       0.83646464
