13
Frame=0 idx=006418 GeodesicLength=0.0 rxn_smarts="[O:1]=[C:2]([C:3]1([C:6](=[O:7])[H:13])[C:4]([H:9])([H:10])[C:5]1([H:11])[H:12])[H:8]>>[O:1]=[C:2]([C:3]([C:5]([C:4]([H:9])([H:10])[H:13])([H:11])[H:12])=[C:6]=[O:7])[H:8]"
O        1.77986992      -1.40821147      -1.45166820
C        1.28600215      -0.29781496      -1.43444848
C        0.18956219       0.07523464      -0.57005642
C       -0.64594129      -0.16249181       1.48089269
C       -0.52492028      -0.94618205       0.27371833
C       -0.22279003       1.39993398      -0.29465977
O        0.15708815       2.48549422      -0.64162076
H        1.66085654       0.50304318      -2.09527067
H       -1.58757496       0.05040246       1.97474510
H        0.25505140       0.08844435       2.02570849
H       -1.45079796      -1.35410609      -0.12744448
H        0.21182289      -1.75273525       0.38903635
H       -1.10822871       1.31898880       0.47106778
13
Frame=1 idx=006418 GeodesicLength=0.09853371787746755 rxn_smarts="[O:1]=[C:2]([C:3]1([C:6](=[O:7])[H:13])[C:4]([H:9])([H:10])[C:5]1([H:11])[H:12])[H:8]>>[O:1]=[C:2]([C:3]([C:5]([C:4]([H:9])([H:10])[H:13])([H:11])[H:12])=[C:6]=[O:7])[H:8]"
O        1.83846250      -1.38663469      -1.36649907
C        1.31698984      -0.28976618      -1.38872657
C        0.18721190       0.08130009      -0.56482083
C       -0.61644745      -0.17004797       1.47478508
C       -0.55345981      -0.94271283       0.25267399
C       -0.22537688       1.40858009      -0.30878768
O        0.05671267       2.48763747      -0.75038220
H        1.66986473       0.48971962      -2.08692762
H       -1.54246407       0.02999656       2.00241050
H        0.30269186       0.02601811       2.01183980
H       -1.50245920      -1.29138498      -0.14965428
H        0.14350496      -1.78547771       0.34325746
H       -1.07523106       1.34277240       0.53083142
13
Frame=2 idx=006418 GeodesicLength=0.19638183506689444 rxn_smarts="[O:1]=[C:2]([C:3]1([C:6](=[O:7])[H:13])[C:4]([H:9])([H:10])[C:5]1([H:11])[H:12])[H:8]>>[O:1]=[C:2]([C:3]([C:5]([C:4]([H:9])([H:10])[H:13])([H:11])[H:12])=[C:6]=[O:7])[H:8]"
O        1.88574048      -1.36667484      -1.28563304
C        1.34327611      -0.28215153      -1.34587256
C        0.18268308       0.08717608      -0.56229316
C       -0.58698694      -0.17704724       1.46705262
C       -0.58085472      -0.93804954       0.23246592
C       -0.22771176       1.41773742      -0.32546337
O       -0.05290679       2.47772243      -0.85551029
H        1.68999178       0.47993284      -2.06666618
H       -1.49742690       0.01053218       2.02558969
H        0.34745440      -0.03594544       1.99511044
H       -1.54967544      -1.23043841      -0.16687866
H        0.07852944      -1.81159786       0.29704328
H       -1.03211273       1.36880391       0.59105531
13
Frame=3 idx=006418 GeodesicLength=0.29362995290040256 rxn_smarts="[O:1]=[C:2]([C:3]1([C:6](=[O:7])[H:13])[C:4]([H:9])([H:10])[C:5]1([H:11])[H:12])[H:8]>>[O:1]=[C:2]([C:3]([C:5]([C:4]([H:9])([H:10])[H:13])([H:11])[H:12])=[C:6]=[O:7])[H:8]"
O        1.92104278      -1.35014308      -1.21231146
C        1.36546021      -0.27523026      -1.30572268
C        0.17683812       0.09245040      -0.56160854
C       -0.55815217      -0.18253118       1.45729146
C       -0.60644616      -0.93246834       0.21391831
C       -0.23107491       1.42637035      -0.34575050
O       -0.16777141       2.45610768      -0.95131513
H        1.71894739       0.47577281      -2.03535798
H       -1.45375719      -0.00657598       2.04312009
H        0.38867402      -0.09564127       1.97535557
H       -1.59198793      -1.17244510      -0.17901181
H        0.01845832      -1.83133031       0.25301696
H       -0.98023107       1.39566428       0.64837571
13
Frame=4 idx=006418 GeodesicLength=0.3913455306835566 rxn_smarts="[O:1]=[C:2]([C:3]1([C:6](=[O:7])[H:13])[C:4]([H:9])([H:10])[C:5]1([H:11])[H:12])[H:8]>>[O:1]=[C:2]([C:3]([C:5]([C:4]([H:9])([H:10])[H:13])([H:11])[H:12])=[C:6]=[O:7])[H:8]"
O        1.94815583      -1.33549944      -1.14563055
C        1.38349701      -0.26927462      -1.26933503
C        0.16993156       0.09654199      -0.56296909
C       -0.53077870      -0.18600294       1.44645278
C       -0.63011691      -0.92719837       0.19702920
C       -0.23630682       1.43381797      -0.37033008
O       -0.28207891       2.42643263      -1.03371186
H        1.75182839       0.47645235      -1.99749567
H       -1.41246873      -0.02016157       2.05587580
H        0.42484337      -0.15167980       1.95462659
H       -1.62912425      -1.11914247      -0.18743423
H       -0.03684708      -1.84675776       0.21211349
H       -0.92053476       1.42247202       0.70080868
13
Frame=5 idx=006418 GeodesicLength=0.48987076887155523 rxn_smarts="[O:1]=[C:2]([C:3]1([C:6](=[O:7])[H:13])[C:4]([H:9])([H:10])[C:5]1([H:11])[H:12])[H:8]>>[O:1]=[C:2]([C:3]([C:5]([C:4]([H:9])([H:10])[H:13])([H:11])[H:12])=[C:6]=[O:7])[H:8]"
O        1.96925041      -1.32256221      -1.08468626
C        1.39908883      -0.26360146      -1.23541207
C        0.16269158       0.09984696      -0.56546257
C       -0.50521081      -0.18769420       1.43455463
C       -0.65183851      -0.92235073       0.18191129
C       -0.24281594       1.44032682      -0.39774566
O       -0.39317382       2.39176416      -1.10228439
H        1.78465659       0.48026174      -1.95740318
H       -1.37454159      -0.03047290       2.06395694
H        0.45601695      -0.20474523       1.93342098
H       -1.66171346      -1.07042195      -0.19293504
H       -0.08706344      -1.85885359       0.17511652
H       -0.85534677       1.44850259       0.74696882
13
Frame=6 idx=006418 GeodesicLength=0.588465580741317 rxn_smarts="[O:1]=[C:2]([C:3]1([C:6](=[O:7])[H:13])[C:4]([H:9])([H:10])[C:5]1([H:11])[H:12])[H:8]>>[O:1]=[C:2]([C:3]([C:5]([C:4]([H:9])([H:10])[H:13])([H:11])[H:12])=[C:6]=[O:7])[H:8]"
O        1.98576938      -1.31075705      -1.02770341
C        1.41236947      -0.25809962      -1.20330533
C        0.15505632       0.10247771      -0.56874119
C       -0.48093328      -0.18768819       1.42112807
C       -0.67176717      -0.91746391       0.16823517
C       -0.25035297       1.44536200      -0.42693947
O       -0.50041881       2.35315725      -1.15734434
H        1.81593361       0.48610353      -1.91551182
H       -1.33921753      -0.03762890       2.06735431
H        0.48298321      -0.25514255       1.91104167
H       -1.69042221      -1.02516463      -0.19601100
H       -0.13275841      -1.86753804       0.14158595
H       -0.78624160       1.47238239       0.78621140
13
Frame=7 idx=006418 GeodesicLength=0.6879928263413198 rxn_smarts="[O:1]=[C:2]([C:3]1([C:6](=[O:7])[H:13])[C:4]([H:9])([H:10])[C:5]1([H:11])[H:12])[H:8]>>[O:1]=[C:2]([C:3]([C:5]([C:4]([H:9])([H:10])[H:13])([H:11])[H:12])=[C:6]=[O:7])[H:8]"
O        1.99921376      -1.29928297      -0.97381207
C        1.42317016      -0.25320623      -1.17397914
C        0.14680504       0.10426114      -0.57336047
C       -0.45780634      -0.18627120       1.40698462
C       -0.69041177      -0.91326351       0.15577865
C       -0.25889945       1.44923833      -0.45803637
O       -0.60308366       2.31321342      -1.20063177
H        1.84631400       0.49413924      -1.87200187
H       -1.30603854      -0.04184540       2.06785676
H        0.50597900      -0.30271124       1.88848609
H       -1.71608808      -0.98383377      -0.19717459
H       -0.17502966      -1.87465697       0.11107947
H       -0.71412445       1.49421916       0.81881069
13
Frame=8 idx=006418 GeodesicLength=0.7883293884116382 rxn_smarts="[O:1]=[C:2]([C:3]1([C:6](=[O:7])[H:13])[C:4]([H:9])([H:10])[C:5]1([H:11])[H:12])[H:8]>>[O:1]=[C:2]([C:3]([C:5]([C:4]([H:9])([H:10])[H:13])([H:11])[H:12])=[C:6]=[O:7])[H:8]"
O        2.01006490      -1.28787055      -0.92222740
C        1.43176384      -0.24890094      -1.14706053
C        0.13808096       0.10531035      -0.57907729
C       -0.43550988      -0.18365910       1.39209573
C       -0.70788286      -0.90964224       0.14432029
C       -0.26818013       1.45195418      -0.49060996
O       -0.70101940       2.27283193      -1.23328379
H        1.87530220       0.50381872      -1.82701403
H       -1.27449983      -0.04354816       2.06579344
H        0.52554894      -0.34749991       1.86575587
H       -1.73910357      -0.94587282      -0.19689858
H       -0.21435227      -1.88056574       0.08324373
H       -0.64021290       1.51364427       0.84496252
13
Frame=9 idx=006418 GeodesicLength=0.8892842218982783 rxn_smarts="[O:1]=[C:2]([C:3]1([C:6](=[O:7])[H:13])[C:4]([H:9])([H:10])[C:5]1([H:11])[H:12])[H:8]>>[O:1]=[C:2]([C:3]([C:5]([C:4]([H:9])([H:10])[H:13])([H:11])[H:12])=[C:6]=[O:7])[H:8]"
O        2.01863870      -1.27667039      -0.87288014
C        1.43850802      -0.24515292      -1.12238940
C        0.12900999       0.10573103      -0.58571759
C       -0.41380088      -0.18004438       1.37646479
C       -0.72434930      -0.90646017       0.13377811
C       -0.27814917       1.45349649      -0.52454321
O       -0.79448308       2.23242146      -1.25656173
H        1.90315372       0.51508934      -1.77999331
H       -1.24424303      -0.04311754       2.06156617
H        0.54226042      -0.38961958       1.84277035
H       -1.75993569      -0.91074162      -0.19533236
H       -0.25122059      -1.88546935       0.05784284
H       -0.56538910       1.53053762       0.86499548
13
Frame=10 idx=006418 GeodesicLength=0.9908646490821604 rxn_smarts="[O:1]=[C:2]([C:3]1([C:6](=[O:7])[H:13])[C:4]([H:9])([H:10])[C:5]1([H:11])[H:12])[H:8]>>[O:1]=[C:2]([C:3]([C:5]([C:4]([H:9])([H:10])[H:13])([H:11])[H:12])=[C:6]=[O:7])[H:8]"
O        2.02519561      -1.26557541      -0.82563359
C        1.44364115      -0.24192800      -1.09987664
C        0.11968554       0.10555898      -0.59318692
C       -0.39253556      -0.17561677       1.36021104
C       -0.73994461      -0.90374527       0.12404471
C       -0.28880820       1.45385983      -0.55988869
O       -0.88342193       2.19250400      -1.27160991
H        1.92981706       0.52787860      -1.73067089
H       -1.21499982      -0.04089719       2.05557660
H        0.55649253      -0.42908142       1.81973151
H       -1.77889203      -0.87820139      -0.19274162
H       -0.28605671      -1.88972766       0.03465091
H       -0.49017301       1.54497170       0.87939349
13
Frame=11 idx=006418 GeodesicLength=1.093047133800931 rxn_smarts="[O:1]=[C:2]([C:3]1([C:6](=[O:7])[H:13])[C:4]([H:9])([H:10])[C:5]1([H:11])[H:12])[H:8]>>[O:1]=[C:2]([C:3]([C:5]([C:4]([H:9])([H:10])[H:13])([H:11])[H:12])=[C:6]=[O:7])[H:8]"
O        2.02991943      -1.25458861      -0.78047475
C        1.44743649      -0.23913311      -1.07935243
C        0.11020267       0.10483423      -0.60135435
C       -0.37161460      -0.17053229       1.34339241
C       -0.75475476      -0.90148391       0.11504537
C       -0.30021107       1.45299756      -0.59670596
O       -0.96781266       2.15341944      -1.27942049
H        1.95514741       0.54210862      -1.67878032
H       -1.18658943      -0.03717121       2.04808089
H        0.56859101      -0.46593655       1.79674689
H       -1.79620402      -0.84800618      -0.18931701
H       -0.31915692      -1.89356144       0.01348892
H       -0.41495354       1.55705345       0.88865081
13
Frame=12 idx=006418 GeodesicLength=1.195838639170599 rxn_smarts="[O:1]=[C:2]([C:3]1([C:6](=[O:7])[H:13])[C:4]([H:9])([H:10])[C:5]1([H:11])[H:12])[H:8]>>[O:1]=[C:2]([C:3]([C:5]([C:4]([H:9])([H:10])[H:13])([H:11])[H:12])=[C:6]=[O:7])[H:8]"
O        2.03301697      -1.24366044      -0.73735399
C        1.45017578      -0.23661479      -1.06058100
C        0.10066311       0.10359979      -0.61007155
C       -0.35100376      -0.16493041       1.32607480
C       -0.76883047      -0.89966829       0.10670906
C       -0.31240880       1.45084749      -0.63504118
O       -1.04756302       2.11546273      -1.28084737
H        1.97879868       0.55760147      -1.62434323
H       -1.15893274      -0.03217922       2.03926388
H        0.57880618      -0.50026148       1.77395721
H       -1.81202562      -0.81995811      -0.18526073
H       -0.35072359      -1.89713908      -0.00581271
H       -0.33997271       1.56690032       0.89330682
13
Frame=13 idx=006418 GeodesicLength=1.2992182178650389 rxn_smarts="[O:1]=[C:2]([C:3]1([C:6](=[O:7])[H:13])[C:4]([H:9])([H:10])[C:5]1([H:11])[H:12])[H:8]>>[O:1]=[C:2]([C:3]([C:5]([C:4]([H:9])([H:10])[H:13])([H:11])[H:12])=[C:6]=[O:7])[H:8]"
O        2.03460613      -1.23287808      -0.69641637
C        1.45208558      -0.23422671      -1.04339246
C        0.09112958       0.10188687      -0.61921250
C       -0.33066252      -0.15890293       1.30828228
C       -0.78221721      -0.89826268       0.09900370
C       -0.32550261       1.44729074      -0.67496989
O       -1.12263210       2.07876902      -1.27668076
H        2.00056907       0.57432619      -1.56705457
H       -1.13194279      -0.02608505       2.02926732
H        0.58740882      -0.53213493       1.75137728
H       -1.82650361      -0.79385761      -0.18065612
H       -0.38092279      -1.90054284      -0.02337971
H       -0.26541557       1.57461802       0.89383179
13
Frame=14 idx=006418 GeodesicLength=1.4031502013790504 rxn_smarts="[O:1]=[C:2]([C:3]1([C:6](=[O:7])[H:13])[C:4]([H:9])([H:10])[C:5]1([H:11])[H:12])[H:8]>>[O:1]=[C:2]([C:3]([C:5]([C:4]([H:9])([H:10])[H:13])([H:11])[H:12])=[C:6]=[O:7])[H:8]"
O        2.03497547      -1.22211186      -0.65754260
C        1.45346359      -0.23172193      -1.02742235
C        0.08175284       0.09978956      -0.62853047
C       -0.31069895      -0.15257231       1.29015113
C       -0.79489443      -0.89726647       0.09187201
C       -0.33945655       1.44228079      -0.71642801
O       -1.19270074       2.04366071      -1.26756065
H        2.01980284       0.59184432      -1.50779431
H       -1.10578687      -0.01913893       2.01820771
H        0.59448695      -0.56161265       1.72924173
H       -1.83965945      -0.76959292      -0.17578058
H       -0.40975978      -1.90386145      -0.03932481
H       -0.19152493       1.58030313       0.89091120
13
Frame=15 idx=006418 GeodesicLength=1.5075870213596692 rxn_smarts="[O:1]=[C:2]([C:3]1([C:6](=[O:7])[H:13])[C:4]([H:9])([H:10])[C:5]1([H:11])[H:12])[H:8]>>[O:1]=[C:2]([C:3]([C:5]([C:4]([H:9])([H:10])[H:13])([H:11])[H:12])=[C:6]=[O:7])[H:8]"
O        2.03434773      -1.21129626      -0.62068431
C        1.45449345      -0.22892081      -1.01244032
C        0.07261430       0.09738327      -0.63782880
C       -0.29118619      -0.14603361       1.27178793
C       -0.80687721      -0.89666398       0.08528431
C       -0.35429738       1.43571325      -0.75940915
O       -1.25754843       2.01033641      -1.25414166
H        2.03612385       0.60993563      -1.44708632
H       -1.08056564      -0.01153389       2.00621103
H        0.60018668      -0.58877298       1.70766071
H       -1.85156655      -0.74703633      -0.17079156
H       -0.43727556      -1.90714213      -0.05374676
H       -0.11844905       1.58403145       0.88518490
13
Frame=16 idx=006418 GeodesicLength=1.6124870282017076 rxn_smarts="[O:1]=[C:2]([C:3]1([C:6](=[O:7])[H:13])[C:4]([H:9])([H:10])[C:5]1([H:11])[H:12])[H:8]>>[O:1]=[C:2]([C:3]([C:5]([C:4]([H:9])([H:10])[H:13])([H:11])[H:12])=[C:6]=[O:7])[H:8]"
O        2.03295746      -1.20030131      -0.58570393
C        1.45530212      -0.22566936      -0.99825288
C        0.06377304       0.09474937      -0.64691568
C       -0.27221089      -0.13938048       1.25331635
C       -0.81819140      -0.89644662       0.07921335
C       -0.37005687       1.42746565      -0.80391145
O       -1.31694461       1.97899526      -1.23705316
H        2.04920298       0.62840495      -1.38559800
H       -1.05639614      -0.00345853       1.99341074
H        0.60463290      -0.61371443       1.68674424
H       -1.86230194      -0.72607358      -0.16583595
H       -0.46350321      -1.91042548      -0.06674329
H       -0.04626346       1.58585456       0.87732967
