13
Frame=0 idx=004816 GeodesicLength=0.0 rxn_smarts="[C:1]([O:2][C@@:3]([C:4]([H:11])([H:12])[H:13])([C:5]#[N:6])[H:10])([H:7])([H:8])[H:9]>>[C:1](=[O:2])([H:7])[H:9].[C:3]([C:4]([H:11])([H:12])[H:13])(=[C:5]=[N:6][H:8])[H:10]"
C        1.80826867       0.33582010       0.50273081
O        1.03635747      -0.65693301       0.29088617
C       -0.65099639      -0.34148224      -0.71509701
C       -1.66154369      -0.87160936       0.25048940
C       -0.42964180       0.98505070      -0.88353728
N        0.26057443       1.94478132      -0.71420839
H        1.83805357       0.75791252       1.51659621
H        1.20530355       1.45922714      -0.07316572
H        2.73798760       0.39983144      -0.07919684
H       -0.40831474      -0.96481168      -1.56919966
H       -1.31549365      -1.83561488       0.62191891
H       -1.79458873      -0.19432445       1.09244130
H       -2.62596628      -1.01784766      -0.24065794
13
Frame=1 idx=004816 GeodesicLength=0.08983935310126569 rxn_smarts="[C:1]([O:2][C@@:3]([C:4]([H:11])([H:12])[H:13])([C:5]#[N:6])[H:10])([H:7])([H:8])[H:9]>>[C:1](=[O:2])([H:7])[H:9].[C:3]([C:4]([H:11])([H:12])[H:13])(=[C:5]=[N:6][H:8])[H:10]"
C        1.81037202       0.34196260       0.51191534
O        1.04163909      -0.65539996       0.30117020
C       -0.65379037      -0.33965740      -0.70994282
C       -1.65996558      -0.88264396       0.25330440
C       -0.43994760       0.98979019      -0.87849318
N        0.25436507       1.95184858      -0.74640102
H        1.79771522       0.79140792       1.51469708
H        1.24061662       1.46903145      -0.12774192
H        2.76756724       0.37706238      -0.02570003
H       -0.43185668      -0.94951181      -1.58019096
H       -1.33452407      -1.87059695       0.57814339
H       -1.75265993      -0.24122025       1.12795322
H       -2.63953102      -0.98207278      -0.21871370
13
Frame=2 idx=004816 GeodesicLength=0.17945043308414949 rxn_smarts="[C:1]([O:2][C@@:3]([C:4]([H:11])([H:12])[H:13])([C:5]#[N:6])[H:10])([H:7])([H:8])[H:9]>>[C:1](=[O:2])([H:7])[H:9].[C:3]([C:4]([H:11])([H:12])[H:13])(=[C:5]=[N:6][H:8])[H:10]"
C        1.81217459       0.34815970       0.52096420
O        1.04791711      -0.65457099       0.31027063
C       -0.65637222      -0.33768534      -0.70533079
C       -1.65760259      -0.89308134       0.25626101
C       -0.44957541       0.99471321      -0.87367591
N        0.24883185       1.95774003      -0.77881605
H        1.75673356       0.82370048       1.51048806
H        1.27457914       1.47545277      -0.18181302
H        2.79510167       0.35730525       0.03158688
H       -0.45709257      -0.93361987      -1.59148617
H       -1.35411151      -1.90234743       0.53413038
H       -1.70950302      -0.28957649       1.16060359
H       -2.65108060      -0.94618999      -0.19318279
13
Frame=3 idx=004816 GeodesicLength=0.2688501835269961 rxn_smarts="[C:1]([O:2][C@@:3]([C:4]([H:11])([H:12])[H:13])([C:5]#[N:6])[H:10])([H:7])([H:8])[H:9]>>[C:1](=[O:2])([H:7])[H:9].[C:3]([C:4]([H:11])([H:12])[H:13])(=[C:5]=[N:6][H:8])[H:10]"
C        1.81450637       0.35450879       0.52960557
O        1.05429096      -0.65386488       0.32092019
C       -0.65840638      -0.33581708      -0.70075267
C       -1.65531726      -0.90317862       0.25880587
C       -0.45831327       0.99963827      -0.86880216
N        0.24320348       1.96299824      -0.80998392
H        1.71888105       0.85574803       1.50366609
H        1.30704350       1.47947403      -0.23406426
H        2.81991691       0.33948584       0.08899355
H       -0.48237524      -0.91759288      -1.60207960
H       -1.37528696      -1.93103779       0.49028211
H       -1.66743571      -0.33918403       1.18952704
H       -2.66070746      -0.91117793      -0.16611781
13
Frame=4 idx=004816 GeodesicLength=0.3577672174067537 rxn_smarts="[C:1]([O:2][C@@:3]([C:4]([H:11])([H:12])[H:13])([C:5]#[N:6])[H:10])([H:7])([H:8])[H:9]>>[C:1](=[O:2])([H:7])[H:9].[C:3]([C:4]([H:11])([H:12])[H:13])(=[C:5]=[N:6][H:8])[H:10]"
C        1.81774770       0.36128983       0.53780147
O        1.05985271      -0.65232732       0.33547897
C       -0.65980677      -0.33385296      -0.69547547
C       -1.65361851      -0.91341796       0.26061402
C       -0.46662179       1.00485691      -0.86251633
N        0.23731537       1.96771955      -0.83977984
H        1.68630937       0.88923827       1.49387687
H        1.33856194       1.48114735      -0.28552150
H        2.84189773       0.32203287       0.14498348
H       -0.50660231      -0.90087235      -1.61128423
H       -1.39855751      -1.95731827       0.44578931
H       -1.62790376      -0.39100363       1.21490286
H       -2.66857417      -0.87749227      -0.13886960
13
Frame=5 idx=004816 GeodesicLength=0.4455971741072422 rxn_smarts="[C:1]([O:2][C@@:3]([C:4]([H:11])([H:12])[H:13])([C:5]#[N:6])[H:10])([H:7])([H:8])[H:9]>>[C:1](=[O:2])([H:7])[H:9].[C:3]([C:4]([H:11])([H:12])[H:13])(=[C:5]=[N:6][H:8])[H:10]"
C        1.82032694       0.36744697       0.54605908
O        1.06690159      -0.65195182       0.34692674
C       -0.66085902      -0.33223188      -0.69155074
C       -1.65032451      -0.92236859       0.26276915
C       -0.47365634       1.00924127      -0.85838460
N        0.23150023       1.97090257      -0.87076628
H        1.65182701       0.91857030       1.48332423
H        1.36769797       1.48113878      -0.33362145
H        2.86118530       0.30897778       0.20438855
H       -0.53348830      -0.88445127      -1.62116448
H       -1.42183360      -1.97946735       0.40232312
H       -1.58572154      -0.44261366       1.23719588
H       -2.67355573      -0.84319311      -0.10749919
13
Frame=6 idx=004816 GeodesicLength=0.5340093829415079 rxn_smarts="[C:1]([O:2][C@@:3]([C:4]([H:11])([H:12])[H:13])([C:5]#[N:6])[H:10])([H:7])([H:8])[H:9]>>[C:1](=[O:2])([H:7])[H:9].[C:3]([C:4]([H:11])([H:12])[H:13])(=[C:5]=[N:6][H:8])[H:10]"
C        1.82355928       0.37356966       0.55412656
O        1.07443601      -0.65194978       0.35879162
C       -0.66148162      -0.33097709      -0.68800614
C       -1.64710190      -0.93107502       0.26475288
C       -0.47983854       1.01350104      -0.85479908
N        0.22541372       1.97387212      -0.90138973
H        1.61930983       0.94682951       1.47125208
H        1.39601991       1.48023965      -0.37975497
H        2.87867068       0.29815259       0.26425341
H       -0.56099578      -0.86827415      -1.63062489
H       -1.44672952      -1.99903651       0.35946525
H       -1.54441700      -0.49509170       1.25620047
H       -2.67684507      -0.80976031      -0.07426746
13
Frame=7 idx=004816 GeodesicLength=0.6221523620757674 rxn_smarts="[C:1]([O:2][C@@:3]([C:4]([H:11])([H:12])[H:13])([C:5]#[N:6])[H:10])([H:7])([H:8])[H:9]>>[C:1](=[O:2])([H:7])[H:9].[C:3]([C:4]([H:11])([H:12])[H:13])(=[C:5]=[N:6][H:8])[H:10]"
C        1.82739249       0.37966433       0.56196987
O        1.08188615      -0.65176948       0.37218564
C       -0.66156627      -0.33000703      -0.68459353
C       -1.64391780      -0.93958006       0.26636680
C       -0.48533007       1.01753068      -0.85140511
N        0.21857547       1.97659754      -0.93106342
H        1.58970307       0.97447858       1.45756715
H        1.42353500       1.47831884      -0.42446450
H        2.89387714       0.28872747       0.32370779
H       -0.58849931      -0.85209884      -1.63930219
H       -1.47309721      -2.01589842       0.31720240
H       -1.50448364      -0.54854020       1.27183998
H       -2.67807501      -0.77742342      -0.04001089
13
Frame=8 idx=004816 GeodesicLength=0.7102520948255371 rxn_smarts="[C:1]([O:2][C@@:3]([C:4]([H:11])([H:12])[H:13])([C:5]#[N:6])[H:10])([H:7])([H:8])[H:9]>>[C:1](=[O:2])([H:7])[H:9].[C:3]([C:4]([H:11])([H:12])[H:13])(=[C:5]=[N:6][H:8])[H:10]"
C        1.83158578       0.38582234       0.56977740
O        1.08967304      -0.65157046       0.38605361
C       -0.66124703      -0.32929770      -0.68150150
C       -1.64038248      -0.94786425       0.26782337
C       -0.49031265       1.02131504      -0.84824023
N        0.21121637       1.97867095      -0.96084488
H        1.56147295       1.00139503       1.44238462
H        1.45052016       1.47525008      -0.46825757
H        2.90706815       0.28108890       0.38457892
H       -0.61689337      -0.83572051      -1.64745505
H       -1.50123507      -2.03014555       0.27485273
H       -1.46444664      -0.60361986       1.28446672
H       -2.67701923      -0.74532400      -0.00363814
13
Frame=9 idx=004816 GeodesicLength=0.7973735959693187 rxn_smarts="[C:1]([O:2][C@@:3]([C:4]([H:11])([H:12])[H:13])([C:5]#[N:6])[H:10])([H:7])([H:8])[H:9]>>[C:1](=[O:2])([H:7])[H:9].[C:3]([C:4]([H:11])([H:12])[H:13])(=[C:5]=[N:6][H:8])[H:10]"
C        1.83553458       0.39146670       0.57765811
O        1.09814116      -0.65190620       0.39872962
C       -0.66051434      -0.32889892      -0.67931813
C       -1.63581002      -0.95538430       0.26930360
C       -0.49443100       1.02444836      -0.84634678
N        0.20321285       1.97995664      -0.99068557
H        1.53292387       1.02552017       1.42637873
H        1.47664858       1.47118118      -0.51048274
H        2.91748154       0.27618476       0.44731358
H       -0.64673295      -0.81929231      -1.65546646
H       -1.53006257      -2.04088102       0.23360488
H       -1.42355534      -0.65897284       1.29387715
H       -2.67283635      -0.71342221       0.03543402
13
Frame=10 idx=004816 GeodesicLength=0.8854780681297145 rxn_smarts="[C:1]([O:2][C@@:3]([C:4]([H:11])([H:12])[H:13])([C:5]#[N:6])[H:10])([H:7])([H:8])[H:9]>>[C:1](=[O:2])([H:7])[H:9].[C:3]([C:4]([H:11])([H:12])[H:13])(=[C:5]=[N:6][H:8])[H:10]"
C        1.84035692       0.39714209       0.58543695
O        1.10689267      -0.65238107       0.41224558
C       -0.65942082      -0.32896754      -0.67753423
C       -1.63154164      -0.96297315       0.27056106
C       -0.49799464       1.02751613      -0.84492125
N        0.19448857       1.98169921      -1.01970434
H        1.50651321       1.04911726       1.40917058
H        1.50295430       1.46674052      -0.55196907
H        2.92643224       0.27286587       0.51030758
H       -0.67677237      -0.80315811      -1.66278330
H       -1.56082589      -2.04947095       0.19326514
H       -1.38412790      -0.71540006       1.30005627
H       -2.66695465      -0.68273019       0.07586902
13
Frame=11 idx=004816 GeodesicLength=0.9724797323129338 rxn_smarts="[C:1]([O:2][C@@:3]([C:4]([H:11])([H:12])[H:13])([C:5]#[N:6])[H:10])([H:7])([H:8])[H:9]>>[C:1](=[O:2])([H:7])[H:9].[C:3]([C:4]([H:11])([H:12])[H:13])(=[C:5]=[N:6][H:8])[H:10]"
C        1.84568607       0.40287121       0.59307191
O        1.11494236      -0.65194664       0.42818174
C       -0.65782076      -0.32919867      -0.67567626
C       -1.62715666      -0.97050215       0.27130754
C       -0.50127616       1.03028386      -0.84302092
N        0.18455843       1.98307329      -1.04761029
H        1.48340897       1.07280171       1.39043868
H        1.52876429       1.46091810      -0.59339279
H        2.93283471       0.27021133       0.57272947
H       -0.70631102      -0.78664027      -1.66896869
H       -1.59297393      -2.05522172       0.15328418
H       -1.34623311      -0.77329056       1.30292924
H       -2.65842318      -0.65335950       0.11672620
13
Frame=12 idx=004816 GeodesicLength=1.0595695230282556 rxn_smarts="[C:1]([O:2][C@@:3]([C:4]([H:11])([H:12])[H:13])([C:5]#[N:6])[H:10])([H:7])([H:8])[H:9]>>[C:1](=[O:2])([H:7])[H:9].[C:3]([C:4]([H:11])([H:12])[H:13])(=[C:5]=[N:6][H:8])[H:10]"
C        1.85155172       0.40840447       0.60077756
O        1.12304548      -0.65156010       0.44481462
C       -0.65593018      -0.32976832      -0.67431287
C       -1.62266542      -0.97790886       0.27179663
C       -0.50408630       1.03281499      -0.84153852
N        0.17377192       1.98455945      -1.07473379
H        1.46195375       1.09555380       1.37075028
H        1.55460817       1.45421702      -0.63433472
H        2.93731845       0.26929136       0.63547744
H       -0.73616138      -0.77012460      -1.67448006
H       -1.62637778      -2.05833609       0.11441494
H       -1.30941783      -0.83187912       1.30247953
H       -2.64761058      -0.62526401       0.15888894
13
Frame=13 idx=004816 GeodesicLength=1.1463444266749319 rxn_smarts="[C:1]([O:2][C@@:3]([C:4]([H:11])([H:12])[H:13])([C:5]#[N:6])[H:10])([H:7])([H:8])[H:9]>>[C:1](=[O:2])([H:7])[H:9].[C:3]([C:4]([H:11])([H:12])[H:13])(=[C:5]=[N:6][H:8])[H:10]"
C        1.85746441       0.41367991       0.60864735
O        1.13149014      -0.65138231       0.46111868
C       -0.65365843      -0.33069098      -0.67373205
C       -1.61751921      -0.98499346       0.27224646
C       -0.50630433       1.03494822      -0.84084135
N        0.16225023       1.98584091      -1.10170701
H        1.44073745       1.11667145       1.35020309
H        1.58044060       1.44657230      -0.67488251
H        2.93916990       0.27055027       0.69978822
H       -0.76672608      -0.75358664      -1.67952688
H       -1.66139570      -2.05836294       0.07644762
H       -1.27239355      -0.89161949       1.29870382
H       -2.63355543      -0.59762724       0.20353455
13
Frame=14 idx=004816 GeodesicLength=1.2336156608008682 rxn_smarts="[C:1]([O:2][C@@:3]([C:4]([H:11])([H:12])[H:13])([C:5]#[N:6])[H:10])([H:7])([H:8])[H:9]>>[C:1](=[O:2])([H:7])[H:9].[C:3]([C:4]([H:11])([H:12])[H:13])(=[C:5]=[N:6][H:8])[H:10]"
C        1.86397670       0.41891818       0.61671856
O        1.13987316      -0.65103565       0.47851698
C       -0.65111268      -0.33196753      -0.67362547
C       -1.61232436      -0.99213750       0.27243198
C       -0.50818461       1.03694764      -0.84045086
N        0.14981400       1.98740208      -1.12810820
H        1.42129066       1.13733577       1.32863043
H        1.60660015       1.43795128      -0.71543865
H        2.93900046       0.27346107       0.76460558
H       -0.79738833      -0.73708063      -1.68378255
H       -1.69831791      -2.05574539       0.03941287
H       -1.23633121      -0.95288856       1.29139062
H       -2.61689603      -0.57116077       0.24969872
13
Frame=15 idx=004816 GeodesicLength=1.3200546806160125 rxn_smarts="[C:1]([O:2][C@@:3]([C:4]([H:11])([H:12])[H:13])([C:5]#[N:6])[H:10])([H:7])([H:8])[H:9]>>[C:1](=[O:2])([H:7])[H:9].[C:3]([C:4]([H:11])([H:12])[H:13])(=[C:5]=[N:6][H:8])[H:10]"
C        1.87089958       0.42416255       0.62490078
O        1.14713947      -0.64965963       0.49864327
C       -0.64813252      -0.33338025      -0.67355031
C       -1.60707552      -0.99940078       0.27212420
C       -0.50981198       1.03877150      -0.83949532
N        0.13620021       1.98890401      -1.15338838
H        1.40482903       1.15837820       1.30579841
H        1.63264040       1.42753637      -0.75654627
H        2.93636222       0.27733075       0.82849866
H       -0.82707132      -0.72021296      -1.68696441
H       -1.73656125      -2.05013380       0.00301169
H       -1.20211224      -1.01590354       1.28038571
H       -2.59730608      -0.54639241       0.29658197
13
Frame=16 idx=004816 GeodesicLength=1.4067486201911867 rxn_smarts="[C:1]([O:2][C@@:3]([C:4]([H:11])([H:12])[H:13])([C:5]#[N:6])[H:10])([H:7])([H:8])[H:9]>>[C:1](=[O:2])([H:7])[H:9].[C:3]([C:4]([H:11])([H:12])[H:13])(=[C:5]=[N:6][H:8])[H:10]"
C        1.87790276       0.42928552       0.63365141
O        1.15454255      -0.64834773       0.51889162
C       -0.64486879      -0.33522278      -0.67439402
C       -1.60122267      -1.00653451       0.27169696
C       -0.51093709       1.04023444      -0.83942939
N        0.12182407       1.99039817      -1.17861748
H        1.38859660       1.17823261       1.28221025
H        1.65911989       1.41582057      -0.79757811
H        2.93101088       0.28370737       0.89388856
H       -0.85737763      -0.70348317      -1.68963963
H       -1.77724480      -2.04101542      -0.03239863
H       -1.16761984      -1.08088002       1.26518730
H       -2.57372593      -0.52219503       0.34653116
