14
Frame=0 idx=007795 GeodesicLength=0.0 rxn_smarts="[C:1]([C:2]1=[C:3]([H:11])[N:4]([H:12])[C:5](=[O:6])[C:7]1([H:13])[H:14])([H:8])([H:9])[H:10]>>[C:1](=[C:2]1[C:3]([H:10])([H:11])[N:4]([H:12])[C:5](=[O:6])[C:7]1([H:13])[H:14])([H:8])[H:9]"
C       -1.83862907       0.64551550      -0.74486132
C       -0.56967380       0.29101796      -0.17930091
C        0.45639212       1.09635915       0.37133507
N        1.61840389       0.35006634       0.56043974
C        1.44833987      -0.97528172       0.23597083
O        2.24725014      -1.85665600       0.42674691
C        0.04895144      -1.08893695      -0.35401559
H       -2.56476875      -0.14231610      -0.88076090
H       -2.18219509       1.67040275      -0.72114395
H       -1.09680352       0.43813865       0.85135086
H        0.41959496       2.15124485       0.58969563
H        2.39120191       0.64187127       1.13321256
H       -0.49596417      -1.89941911       0.12798093
H        0.11790010      -1.32200654      -1.41664986
14
Frame=1 idx=007795 GeodesicLength=0.10000326311925793 rxn_smarts="[C:1]([C:2]1=[C:3]([H:11])[N:4]([H:12])[C:5](=[O:6])[C:7]1([H:13])[H:14])([H:8])([H:9])[H:10]>>[C:1](=[C:2]1[C:3]([H:10])([H:11])[N:4]([H:12])[C:5](=[O:6])[C:7]1([H:13])[H:14])([H:8])[H:9]"
C       -1.84277270       0.64543873      -0.72562283
C       -0.56624947       0.28691308      -0.18784176
C        0.44658190       1.09118906       0.38781510
N        1.61216727       0.34641975       0.57302043
C        1.45047605      -0.97558998       0.23331767
O        2.25464255      -1.85438015       0.41470835
C        0.05194245      -1.09195648      -0.35826622
H       -2.56197568      -0.14321327      -0.89136558
H       -2.17485818       1.67443909      -0.71696099
H       -1.11080710       0.45662519       0.86521912
H        0.42401734       2.15531120       0.55947324
H        2.38832257       0.63995313       1.14008780
H       -0.49269756      -1.90136736       0.12631162
H        0.12121055      -1.32978199      -1.41989596
14
Frame=2 idx=007795 GeodesicLength=0.19943397681451136 rxn_smarts="[C:1]([C:2]1=[C:3]([H:11])[N:4]([H:12])[C:5](=[O:6])[C:7]1([H:13])[H:14])([H:8])([H:9])[H:10]>>[C:1](=[C:2]1[C:3]([H:10])([H:11])[N:4]([H:12])[C:5](=[O:6])[C:7]1([H:13])[H:14])([H:8])[H:9]"
C       -1.84710264       0.64488896      -0.70547584
C       -0.56273255       0.28313466      -0.19664951
C        0.43661993       1.08621868       0.40369823
N        1.60560817       0.34269589       0.58583762
C        1.45262579      -0.97564663       0.23040407
O        2.26206684      -1.85167539       0.40252841
C        0.05490849      -1.09479119      -0.36264549
H       -2.55896294      -0.14363182      -0.90186172
H       -2.16720552       1.67787619      -0.71406479
H       -1.12469897       0.47602513       0.87996306
H        0.42866013       2.15726004       0.52992614
H        2.38518586       0.63823192       1.14689453
H       -0.48940465      -1.90306826       0.12467288
H        0.12443205      -1.33751817      -1.42322758
14
Frame=3 idx=007795 GeodesicLength=0.29848102328038695 rxn_smarts="[C:1]([C:2]1=[C:3]([H:11])[N:4]([H:12])[C:5](=[O:6])[C:7]1([H:13])[H:14])([H:8])([H:9])[H:10]>>[C:1](=[C:2]1[C:3]([H:10])([H:11])[N:4]([H:12])[C:5](=[O:6])[C:7]1([H:13])[H:14])([H:8])[H:9]"
C       -1.85153617       0.64386418      -0.68452376
C       -0.55903409       0.27969801      -0.20604864
C        0.42664751       1.08148553       0.41855114
N        1.59875379       0.33886601       0.59879623
C        1.45479710      -0.97547441       0.22718629
O        2.26947760      -1.84858836       0.39029298
C        0.05784426      -1.09749189      -0.36716940
H       -2.55569933      -0.14350005      -0.91220453
H       -2.15937175       1.68049869      -0.71235726
H       -1.13832893       0.49663502       0.89544439
H        0.43325947       2.15721946       0.50190327
H        2.38179223       0.63670586       1.15354462
H       -0.48613401      -1.90444886       0.12319357
H        0.12753234      -1.34546917      -1.42660890
14
Frame=4 idx=007795 GeodesicLength=0.3973477405192942 rxn_smarts="[C:1]([C:2]1=[C:3]([H:11])[N:4]([H:12])[C:5](=[O:6])[C:7]1([H:13])[H:14])([H:8])([H:9])[H:10]>>[C:1](=[C:2]1[C:3]([H:10])([H:11])[N:4]([H:12])[C:5](=[O:6])[C:7]1([H:13])[H:14])([H:8])[H:9]"
C       -1.85594247       0.64237346      -0.66292707
C       -0.55506062       0.27660934      -0.21634649
C        0.41671887       1.07694888       0.43221477
N        1.59160299       0.33488198       0.61186151
C        1.45698570      -0.97511344       0.22367656
O        2.27683652      -1.84518402       0.37812540
C        0.06076353      -1.10010801      -0.37188033
H       -2.55216910      -0.14272722      -0.92230089
H       -2.15153599       1.68210824      -0.71158381
H       -1.15165848       0.51866787       0.91152052
H        0.43766822       2.15545972       0.47585335
H        2.37816717       0.63537529       1.15992526
H       -0.48293197      -1.90546892       0.12189780
H        0.13055563      -1.35382319      -1.43003658
14
Frame=5 idx=007795 GeodesicLength=0.4964415558218517 rxn_smarts="[C:1]([C:2]1=[C:3]([H:11])[N:4]([H:12])[C:5](=[O:6])[C:7]1([H:13])[H:14])([H:8])([H:9])[H:10]>>[C:1](=[C:2]1[C:3]([H:10])([H:11])[N:4]([H:12])[C:5](=[O:6])[C:7]1([H:13])[H:14])([H:8])[H:9]"
C       -1.86007975       0.64043144      -0.64091414
C       -0.55068508       0.27391343      -0.22784152
C        0.40678898       1.07252377       0.44474483
N        1.58407234       0.33064290       0.62518593
C        1.45913864      -0.97463345       0.22000501
O        2.28400022      -1.84158768       0.36628867
C        0.06369167      -1.10265282      -0.37683895
H       -2.54836194      -0.14128533      -0.93206078
H       -2.14385651       1.68258359      -0.71142873
H       -1.16479581       0.54221091       0.92813066
H        0.44173412       2.15223519       0.45211155
H        2.37456856       0.63438701       1.16547398
H       -0.47987795      -1.90609241       0.12067721
H        0.13366251      -1.36267657      -1.43353372
14
Frame=6 idx=007795 GeodesicLength=0.5958259134847385 rxn_smarts="[C:1]([C:2]1=[C:3]([H:11])[N:4]([H:12])[C:5](=[O:6])[C:7]1([H:13])[H:14])([H:8])([H:9])[H:10]>>[C:1](=[C:2]1[C:3]([H:10])([H:11])[N:4]([H:12])[C:5](=[O:6])[C:7]1([H:13])[H:14])([H:8])[H:9]"
C       -1.86375897       0.63803269      -0.61871785
C       -0.54579810       0.27161781      -0.24083097
C        0.39681846       1.06810231       0.45619189
N        1.57612220       0.32609984       0.63876542
C        1.46125672      -0.97407236       0.21619672
O        2.29096062      -1.83785909       0.35491439
C        0.06667681      -1.10515760      -0.38214838
H       -2.54432820      -0.13915127      -0.94106240
H       -2.13649631       1.68183964      -0.71155096
H       -1.17781844       0.56746964       0.94508267
H        0.44548012       2.14779733       0.43064661
H        2.37088730       0.63371572       1.17026631
H       -0.47698859      -1.90631116       0.11941261
H        0.13698637      -1.37212351      -1.43716605
14
Frame=7 idx=007795 GeodesicLength=0.6956111965384693 rxn_smarts="[C:1]([C:2]1=[C:3]([H:11])[N:4]([H:12])[C:5](=[O:6])[C:7]1([H:13])[H:14])([H:8])([H:9])[H:10]>>[C:1](=[C:2]1[C:3]([H:10])([H:11])[N:4]([H:12])[C:5](=[O:6])[C:7]1([H:13])[H:14])([H:8])[H:9]"
C       -1.86676280       0.63517945      -0.59657623
C       -0.54027520       0.26975874      -0.25552898
C        0.38671955       1.06356761       0.46671412
N        1.56762988       0.32113805       0.65282373
C        1.46329503      -0.97349538       0.21238349
O        2.29762049      -1.83411026       0.34422904
C        0.06976768      -1.10762232      -0.38789807
H       -2.54016567      -0.13640930      -0.94900019
H       -2.12951112       1.67989384      -0.71174315
H       -1.19090049       0.59456727       0.96230347
H        0.44885233       2.14229614       0.41157725
H        2.36731278       0.63352236       1.17381048
H       -0.47431076      -1.90612229       0.11790349
H        0.14072828      -1.38216391      -1.44099844
14
Frame=8 idx=007795 GeodesicLength=0.795905308977809 rxn_smarts="[C:1]([C:2]1=[C:3]([H:11])[N:4]([H:12])[C:5](=[O:6])[C:7]1([H:13])[H:14])([H:8])([H:9])[H:10]>>[C:1](=[C:2]1[C:3]([H:10])([H:11])[N:4]([H:12])[C:5](=[O:6])[C:7]1([H:13])[H:14])([H:8])[H:9]"
C       -1.86887804       0.63184382      -0.57457112
C       -0.53398758       0.26835890      -0.27216757
C        0.37640155       1.05880600       0.47636259
N        1.55848883       0.31566605       0.66746007
C        1.46524841      -0.97293487       0.20857969
O        2.30397027      -1.83039392       0.33428894
C        0.07302338      -1.11003981      -0.39422931
H       -2.53591774      -0.13318605      -0.95527301
H       -2.12298967       1.67667464      -0.71186223
H       -1.20415500       0.62388276       0.97966959
H        0.45194855       2.13587742       0.39471998
H        2.36363958       0.63375649       1.17625147
H       -0.47183795      -1.90553328       0.11592002
H        0.14504542      -1.39277814      -1.44514910
14
Frame=9 idx=007795 GeodesicLength=0.8957914325228766 rxn_smarts="[C:1]([C:2]1=[C:3]([H:11])[N:4]([H:12])[C:5](=[O:6])[C:7]1([H:13])[H:14])([H:8])([H:9])[H:10]>>[C:1](=[C:2]1[C:3]([H:10])([H:11])[N:4]([H:12])[C:5](=[O:6])[C:7]1([H:13])[H:14])([H:8])[H:9]"
C       -1.87013939       0.62790795      -0.55246744
C       -0.52696140       0.26750704      -0.29070641
C        0.36588788       1.05391729       0.48499020
N        1.54851996       0.30949435       0.68306409
C        1.46715501      -0.97234216       0.20463085
O        2.31010116      -1.82665633       0.32469686
C        0.07653898      -1.11228831      -0.40139496
H       -2.53162115      -0.12992798      -0.95833933
H       -2.11696674       1.67191956      -0.71223793
H       -1.21742204       0.65629202       0.99673990
H        0.45511954       2.12850038       0.37900762
H        2.35912146       0.63385166       1.17896055
H       -0.46942108      -1.90460282       0.11299578
H        0.15008781      -1.40357264      -1.44993977
14
Frame=10 idx=007795 GeodesicLength=0.9960742169421912 rxn_smarts="[C:1]([C:2]1=[C:3]([H:11])[N:4]([H:12])[C:5](=[O:6])[C:7]1([H:13])[H:14])([H:8])([H:9])[H:10]>>[C:1](=[C:2]1[C:3]([H:10])([H:11])[N:4]([H:12])[C:5](=[O:6])[C:7]1([H:13])[H:14])([H:8])[H:9]"
C       -1.87012587       0.62343186      -0.53040389
C       -0.51902413       0.26716214      -0.31141510
C        0.35508576       1.04867687       0.49262153
N        1.53782832       0.30273203       0.69900657
C        1.46903582      -0.97173524       0.20050427
O        2.31603967      -1.82291484       0.31556086
C        0.08033301      -1.11442366      -0.40943572
H       -2.52745169      -0.12684487      -0.95823424
H       -2.11152879       1.66567078      -0.71266809
H       -1.23086887       0.69218999       1.01367350
H        0.45836045       2.12040285       0.36491822
H        2.35351322       0.63373917       1.18201958
H       -0.46706184      -1.90329934       0.10918560
H        0.15586493      -1.41478775      -1.45533307
14
Frame=11 idx=007795 GeodesicLength=1.0966635735365458 rxn_smarts="[C:1]([C:2]1=[C:3]([H:11])[N:4]([H:12])[C:5](=[O:6])[C:7]1([H:13])[H:14])([H:8])([H:9])[H:10]>>[C:1](=[C:2]1[C:3]([H:10])([H:11])[N:4]([H:12])[C:5](=[O:6])[C:7]1([H:13])[H:14])([H:8])[H:9]"
C       -1.86869699       0.61835807      -0.50816744
C       -0.51017045       0.26731659      -0.33435224
C        0.34401093       1.04309407       0.49903232
N        1.52644835       0.29541759       0.71496294
C        1.47096928      -0.97105525       0.19595683
O        2.32192439      -1.81907767       0.30650801
C        0.08445776      -1.11640805      -0.41852352
H       -2.52349645      -0.12438095      -0.95404306
H       -2.10672757       1.65776140      -0.71335097
H       -1.24438448       0.73250457       1.03033116
H        0.46186576       2.11163838       0.35192390
H        2.34605287       0.63281295       1.18691941
H       -0.46461480      -1.90165269       0.10431279
H        0.16236141      -1.42632901      -1.46151014
14
Frame=12 idx=007795 GeodesicLength=1.1973828126997788 rxn_smarts="[C:1]([C:2]1=[C:3]([H:11])[N:4]([H:12])[C:5](=[O:6])[C:7]1([H:13])[H:14])([H:8])([H:9])[H:10]>>[C:1](=[C:2]1[C:3]([H:10])([H:11])[N:4]([H:12])[C:5](=[O:6])[C:7]1([H:13])[H:14])([H:8])[H:9]"
C       -1.86571870       0.61265518      -0.48548631
C       -0.50044871       0.26792646      -0.35944137
C        0.33263842       1.03714322       0.50414093
N        1.51429190       0.28747794       0.73087549
C        1.47299473      -0.97027780       0.19082715
O        2.32789067      -1.81505159       0.29728317
C        0.08896675      -1.11820707      -0.42883479
H       -2.51984729      -0.12300987      -0.94497920
H       -2.10267549       1.64795173      -0.71451533
H       -1.25788099       0.77835381       1.04645474
H        0.46586347       2.10219896       0.33962199
H        2.33624578       0.63058456       1.19465969
H       -0.46195186      -1.89976096       0.09808295
H        0.16963132      -1.43798457      -1.46868910
14
Frame=13 idx=007795 GeodesicLength=1.298157813383552 rxn_smarts="[C:1]([C:2]1=[C:3]([H:11])[N:4]([H:12])[C:5](=[O:6])[C:7]1([H:13])[H:14])([H:8])([H:9])[H:10]>>[C:1](=[C:2]1[C:3]([H:10])([H:11])[N:4]([H:12])[C:5](=[O:6])[C:7]1([H:13])[H:14])([H:8])[H:9]"
C       -1.86103705       0.60629965      -0.46204081
C       -0.48998456       0.26893693      -0.38649279
C        0.32088911       1.03078658       0.50795676
N        1.50117117       0.27874521       0.74694097
C        1.47512156      -0.96938507       0.18501834
O        2.33402598      -1.81076745       0.28754374
C        0.09390322      -1.11977421      -0.44053826
H       -2.51649384      -0.12329007      -0.93026274
H       -2.09944017       1.63593914      -0.71647239
H       -1.27134245       0.83104218       1.06169766
H        0.47057926       2.09200251       0.32765324
H        2.32379744       0.62667481       1.20597653
H       -0.45894731      -1.89777408       0.09013134
H        0.17775765      -1.44943614      -1.47711159
14
Frame=14 idx=007795 GeodesicLength=1.398520749124369 rxn_smarts="[C:1]([C:2]1=[C:3]([H:11])[N:4]([H:12])[C:5](=[O:6])[C:7]1([H:13])[H:14])([H:8])([H:9])[H:10]>>[C:1](=[C:2]1[C:3]([H:10])([H:11])[N:4]([H:12])[C:5](=[O:6])[C:7]1([H:13])[H:14])([H:8])[H:9]"
C       -1.85465807       0.59927786      -0.43746792
C       -0.47893732       0.27026455      -0.41517197
C        0.30870836       1.02396904       0.51062302
N        1.48680705       0.26896630       0.76339016
C        1.47734386      -0.96836122       0.17850937
O        2.34045923      -1.80608930       0.27711389
C        0.09933367      -1.12107655      -0.45378577
H       -2.51343054      -0.12568294      -0.90912507
H       -2.09717599       1.62139575      -0.71949345
H       -1.28461195       0.89188953       1.07530437
H        0.47629576       2.08091161       0.31583596
H        2.30844176       0.62071266       1.22125943
H       -0.45546637      -1.89588974       0.08004028
H        0.18689055      -1.46028754      -1.48703232
14
Frame=15 idx=007795 GeodesicLength=1.4983451935027863 rxn_smarts="[C:1]([C:2]1=[C:3]([H:11])[N:4]([H:12])[C:5](=[O:6])[C:7]1([H:13])[H:14])([H:8])([H:9])[H:10]>>[C:1](=[C:2]1[C:3]([H:10])([H:11])[N:4]([H:12])[C:5](=[O:6])[C:7]1([H:13])[H:14])([H:8])[H:9]"
C       -1.84651120       0.59161537      -0.41135304
C       -0.46752351       0.27183098      -0.44512215
C        0.29602289       1.01665558       0.51229364
N        1.47093911       0.25787281       0.78055798
C        1.47965295      -0.96717590       0.17125411
O        2.34729917      -1.80088101       0.26570067
C        0.10530481      -1.12206065      -0.46872961
H       -2.51057689      -0.13073282      -0.88075475
H       -2.09611079       1.60389247      -0.72380634
H       -1.29748195       0.96235106       1.08631095
H        0.48329617       2.06874675       0.30396345
H        2.28992412       0.61229923       1.24102332
H       -0.45137928      -1.89430965       0.06738946
H        0.19714438      -1.47010422      -1.49872768
14
Frame=16 idx=007795 GeodesicLength=1.5975268407450025 rxn_smarts="[C:1]([C:2]1=[C:3]([H:11])[N:4]([H:12])[C:5](=[O:6])[C:7]1([H:13])[H:14])([H:8])([H:9])[H:10]>>[C:1](=[C:2]1[C:3]([H:10])([H:11])[N:4]([H:12])[C:5](=[O:6])[C:7]1([H:13])[H:14])([H:8])[H:9]"
C       -1.83660352       0.58338467      -0.38324061
C       -0.45598124       0.27353819      -0.47594755
C        0.28277896       1.00881796       0.51318773
N        1.45328625       0.24519831       0.79873745
C        1.48203635      -0.96578467       0.16322212
O        2.35467433      -1.79495422       0.25304148
C        0.11186695      -1.12268529      -0.48551111
H       -2.50783229      -0.13887501      -0.84424954
H       -2.09656074       1.58295214      -0.72951577
H       -1.30956652       1.04379142       1.09324641
H        0.49188256       2.05530369       0.29195394
H        2.26793023       0.60102377       1.26578849
H       -0.44655181      -1.89326137       0.05176830
H        0.20864049      -1.47844960      -1.51248134
