14
Frame=0 idx=000652 GeodesicLength=0.0 rxn_smarts="[O:1]([C@@:2]1([H:8])[C:3]([H:9])([H:10])[C@@:4]2([H:11])[C:5]([H:12])([H:13])[C@@:6]12[H:14])[H:7]>>[H:7][H:12].[O:1]=[C:2]([C:3]([C:4]1([H:11])[C:5]([H:13])=[C:6]1[H:14])([H:9])[H:10])[H:8]"
O       -0.98940080       1.75756444      -0.25892403
C       -1.05312278       0.72248425       0.42885012
C       -1.14199941      -0.65631851      -0.22866900
C        0.28762932      -1.07194300      -0.01799959
C        1.35093755      -0.05484422      -0.30830817
C        0.88762972      -0.07930402       0.95157340
H        0.18731054       1.56135684      -1.03957740
H       -1.29805932       0.81091766       1.49192518
H       -1.47896262      -0.58930150      -1.26535513
H       -1.83326961      -1.29927759       0.32363065
H        0.56355191      -2.12519885      -0.04808886
H        0.93039655       1.13520573      -1.16214362
H        2.30063435      -0.10195374      -0.81582302
H        1.28672464      -0.00938744       1.94890948
14
Frame=1 idx=000652 GeodesicLength=0.07288818683239041 rxn_smarts="[O:1]([C@@:2]1([H:8])[C:3]([H:9])([H:10])[C@@:4]2([H:11])[C:5]([H:12])([H:13])[C@@:6]12[H:14])[H:7]>>[H:7][H:12].[O:1]=[C:2]([C:3]([C:4]1([H:11])[C:5]([H:13])=[C:6]1[H:14])([H:9])[H:10])[H:8]"
O       -0.99787368       1.76030712      -0.25632819
C       -1.05006282       0.72075775       0.43310912
C       -1.14070463      -0.65665011      -0.22696164
C        0.28991693      -1.07467978      -0.01878328
C        1.35219756      -0.05794403      -0.31134954
C        0.88533031      -0.07947723       0.95061526
H        0.17894247       1.58137589      -1.04706772
H       -1.30182934       0.80658151       1.49457850
H       -1.47298036      -0.58866570      -1.26516396
H       -1.83444148      -1.29856055       0.32335196
H        0.56160589      -2.12909260      -0.04089633
H        0.93427573       1.14222072      -1.17309130
H        2.30742655      -0.11466515      -0.80865770
H        1.28819687      -0.01150783       1.94664482
14
Frame=2 idx=000652 GeodesicLength=0.1445757853588867 rxn_smarts="[O:1]([C@@:2]1([H:8])[C:3]([H:9])([H:10])[C@@:4]2([H:11])[C:5]([H:12])([H:13])[C@@:6]12[H:14])[H:7]>>[H:7][H:12].[O:1]=[C:2]([C:3]([C:4]1([H:11])[C:5]([H:13])=[C:6]1[H:14])([H:9])[H:10])[H:8]"
O       -1.00626245       1.76297966      -0.25375407
C       -1.04687890       0.71909817       0.43733758
C       -1.13935630      -0.65697108      -0.22524418
C        0.29226496      -1.07746629      -0.01953662
C        1.35356411      -0.06111045      -0.31448609
C        0.88310725      -0.07968821       0.94963203
H        0.17018807       1.60153520      -1.05452254
H       -1.30558918       0.80222434       1.49719172
H       -1.46688697      -0.58795519      -1.26495440
H       -1.83561279      -1.29779114       0.32298432
H        0.55961634      -2.13298735      -0.03363046
H        0.93804164       1.14928921      -1.18414115
H        2.31411743      -0.12749290      -0.80125305
H        1.28968679      -0.01366399       1.94437691
14
Frame=3 idx=000652 GeodesicLength=0.2151874983909341 rxn_smarts="[O:1]([C@@:2]1([H:8])[C:3]([H:9])([H:10])[C@@:4]2([H:11])[C:5]([H:12])([H:13])[C@@:6]12[H:14])[H:7]>>[H:7][H:12].[O:1]=[C:2]([C:3]([C:4]1([H:11])[C:5]([H:13])=[C:6]1[H:14])([H:9])[H:10])[H:8]"
O       -1.01460466       1.76562088      -0.25121080
C       -1.04366305       0.71749784       0.44149328
C       -1.13797577      -0.65729239      -0.22354929
C        0.29462160      -1.08031916      -0.02019861
C        1.35506729      -0.06444322      -0.31760140
C        0.88095534      -0.07995228       0.94863809
H        0.16109247       1.62162925      -1.06180319
H       -1.30928021       0.79795200       1.49968714
H       -1.46076541      -0.58714643      -1.26472193
H       -1.83673059      -1.29699379       0.32257726
H        0.55761112      -2.13688049      -0.02641549
H        0.94194961       1.15626223      -1.19516108
H        2.32058376      -0.14015421      -0.79385413
H        1.29113852      -0.01578022       1.94212015
14
Frame=4 idx=000652 GeodesicLength=0.2848170255822854 rxn_smarts="[O:1]([C@@:2]1([H:8])[C:3]([H:9])([H:10])[C@@:4]2([H:11])[C:5]([H:12])([H:13])[C@@:6]12[H:14])[H:7]>>[H:7][H:12].[O:1]=[C:2]([C:3]([C:4]1([H:11])[C:5]([H:13])=[C:6]1[H:14])([H:9])[H:10])[H:8]"
O       -1.02288872       1.76819164      -0.24875436
C       -1.04028413       0.71596062       0.44557885
C       -1.13652781      -0.65759748      -0.22185718
C        0.29699012      -1.08327239      -0.02084000
C        1.35663729      -0.06787497      -0.32084224
C        0.87887592      -0.08030440       0.94762892
H        0.15151154       1.64192652      -1.06899597
H       -1.31290938       0.79371696       1.50208261
H       -1.45453650      -0.58630863      -1.26451074
H       -1.83782715      -1.29614113       0.32216411
H        0.55557395      -2.14079060      -0.01910520
H        0.94580786       1.16338670      -1.20616680
H        2.32696622      -0.15295056      -0.78623786
H        1.29261079      -0.01794228       1.93985587
14
Frame=5 idx=000652 GeodesicLength=0.3532357238473198 rxn_smarts="[O:1]([C@@:2]1([H:8])[C:3]([H:9])([H:10])[C@@:4]2([H:11])[C:5]([H:12])([H:13])[C@@:6]12[H:14])[H:7]>>[H:7][H:12].[O:1]=[C:2]([C:3]([C:4]1([H:11])[C:5]([H:13])=[C:6]1[H:14])([H:9])[H:10])[H:8]"
O       -1.03108664       1.77072056      -0.24632451
C       -1.03684814       0.71453279       0.44963229
C       -1.13505915      -0.65786262      -0.22016929
C        0.29938486      -1.08627239      -0.02137246
C        1.35832538      -0.07142021      -0.32404590
C        0.87688831      -0.08074477       0.94661440
H        0.14149519       1.66221038      -1.07613898
H       -1.31653178       0.78947309       1.50441596
H       -1.44824764      -0.58535101      -1.26426637
H       -1.83885761      -1.29522763       0.32163637
H        0.55352280      -2.14475526      -0.01184525
H        0.94966549       1.17050476      -1.21718388
H        2.33326834      -0.16578043      -0.77855197
H        1.29408060      -0.02002727       1.93759959
14
Frame=6 idx=000652 GeodesicLength=0.4207362333017884 rxn_smarts="[O:1]([C@@:2]1([H:8])[C:3]([H:9])([H:10])[C@@:4]2([H:11])[C:5]([H:12])([H:13])[C@@:6]12[H:14])[H:7]>>[H:7][H:12].[O:1]=[C:2]([C:3]([C:4]1([H:11])[C:5]([H:13])=[C:6]1[H:14])([H:9])[H:10])[H:8]"
O       -1.03927348       1.77320434      -0.24391937
C       -1.03328506       0.71313616       0.45363026
C       -1.13355706      -0.65812803      -0.21851735
C        0.30183080      -1.08937979      -0.02190551
C        1.36012852      -0.07512207      -0.32730526
C        0.87498430      -0.08119821       0.94553663
H        0.13107612       1.68272504      -1.08309631
H       -1.32010085       0.78518870       1.50665046
H       -1.44179972      -0.58433398      -1.26404575
H       -1.83992072      -1.29427639       0.32105373
H        0.55137263      -2.14865920      -0.00436158
H        0.95348826       1.17767617      -1.22826934
H        2.33947565      -0.17871036      -0.77074181
H        1.29558060      -0.02212237       1.93529119
14
Frame=7 idx=000652 GeodesicLength=0.48738182333010865 rxn_smarts="[O:1]([C@@:2]1([H:8])[C:3]([H:9])([H:10])[C@@:4]2([H:11])[C:5]([H:12])([H:13])[C@@:6]12[H:14])[H:7]>>[H:7][H:12].[O:1]=[C:2]([C:3]([C:4]1([H:11])[C:5]([H:13])=[C:6]1[H:14])([H:9])[H:10])[H:8]"
O       -1.04745248       1.77557015      -0.24150874
C       -1.02960448       0.71191432       0.45748430
C       -1.13196014      -0.65835949      -0.21688082
C        0.30429380      -1.09260685      -0.02232938
C        1.36208175      -0.07898928      -0.33055618
C        0.87315641      -0.08176354       0.94448289
H        0.12003783       1.70327572      -1.08995174
H       -1.32361258       0.78098677       1.50876281
H       -1.43523470      -0.58322148      -1.26380101
H       -1.84093824      -1.29323069       0.32040759
H        0.54919712      -2.15255064       0.00308418
H        0.95741829       1.18486869      -1.23934356
H        2.34553543      -0.19166676      -0.76287257
H        1.29708200      -0.02422691       1.93302222
14
Frame=8 idx=000652 GeodesicLength=0.5526945346430302 rxn_smarts="[O:1]([C@@:2]1([H:8])[C:3]([H:9])([H:10])[C@@:4]2([H:11])[C:5]([H:12])([H:13])[C@@:6]12[H:14])[H:7]>>[H:7][H:12].[O:1]=[C:2]([C:3]([C:4]1([H:11])[C:5]([H:13])=[C:6]1[H:14])([H:9])[H:10])[H:8]"
O       -1.05556325       1.77790147      -0.23919729
C       -1.02581923       0.71070383       0.46123299
C       -1.13030311      -0.65858812      -0.21524172
C        0.30679096      -1.09592295      -0.02263094
C        1.36417739      -0.08299778      -0.33375763
C        0.87140232      -0.08241628       0.94346233
H        0.10861024       1.72380448      -1.09680688
H       -1.32707824       0.77687192       1.51073696
H       -1.42863600      -0.58201740      -1.26345439
H       -1.84193425      -1.29214021       0.31977277
H        0.54698389      -2.15640726       0.01036757
H        0.96137396       1.19213206      -1.25031966
H        2.35144342      -0.20457750      -0.75495940
H        1.29855188      -0.02634625       1.93079529
14
Frame=9 idx=000652 GeodesicLength=0.6176181423750277 rxn_smarts="[O:1]([C@@:2]1([H:8])[C:3]([H:9])([H:10])[C@@:4]2([H:11])[C:5]([H:12])([H:13])[C@@:6]12[H:14])[H:7]>>[H:7][H:12].[O:1]=[C:2]([C:3]([C:4]1([H:11])[C:5]([H:13])=[C:6]1[H:14])([H:9])[H:10])[H:8]"
O       -1.06365417       1.78022003      -0.23683647
C       -1.02195805       0.70955999       0.46499223
C       -1.12854468      -0.65876098      -0.21365167
C        0.30935398      -1.09931099      -0.02294556
C        1.36640202      -0.08713433      -0.33708176
C        0.86974732      -0.08302393       0.94235952
H        0.09642470       1.74458558      -1.10352862
H       -1.33049233       0.77268297       1.51270326
H       -1.42180685      -0.58070241      -1.26320471
H       -1.84289823      -1.29099210       0.31895730
H        0.54468778      -2.16023894       0.01795744
H        0.96532099       1.19952161      -1.26144891
H        2.35733941      -0.21793856      -0.74678006
H        1.30007811      -0.02846795       1.92850802
14
Frame=10 idx=000652 GeodesicLength=0.6814544424453588 rxn_smarts="[O:1]([C@@:2]1([H:8])[C:3]([H:9])([H:10])[C@@:4]2([H:11])[C:5]([H:12])([H:13])[C@@:6]12[H:14])[H:7]>>[H:7][H:12].[O:1]=[C:2]([C:3]([C:4]1([H:11])[C:5]([H:13])=[C:6]1[H:14])([H:9])[H:10])[H:8]"
O       -1.07161645       1.78247998      -0.23457485
C       -1.01798207       0.70851126       0.46865736
C       -1.12670814      -0.65891157      -0.21207647
C        0.31193348      -1.10277938      -0.02318829
C        1.36881176      -0.09145040      -0.34043304
C        0.86815876      -0.08374472       0.94125431
H        0.08367074       1.76537708      -1.11013722
H       -1.33384578       0.76854024       1.51456952
H       -1.41489424      -0.57930290      -1.26291883
H       -1.84384581      -1.28978463       0.31807932
H        0.54234326      -2.16407028       0.02552228
H        0.96929961       1.20699275      -1.27251364
H        2.36304284      -0.23131216      -0.73846631
H        1.30163206      -0.03054526       1.92622587
14
Frame=11 idx=000652 GeodesicLength=0.7442985004409584 rxn_smarts="[O:1]([C@@:2]1([H:8])[C:3]([H:9])([H:10])[C@@:4]2([H:11])[C:5]([H:12])([H:13])[C@@:6]12[H:14])[H:7]>>[H:7][H:12].[O:1]=[C:2]([C:3]([C:4]1([H:11])[C:5]([H:13])=[C:6]1[H:14])([H:9])[H:10])[H:8]"
O       -1.07959244       1.78466619      -0.23228391
C       -1.01389960       0.70756879       0.47226711
C       -1.12480539      -0.65901344      -0.21053863
C        0.31452879      -1.10633913      -0.02336396
C        1.37130302      -0.09595222      -0.34368427
C        0.86665935      -0.08452062       0.94014091
H        0.07032223       1.78621596      -1.11665954
H       -1.33712681       0.76445197       1.51625701
H       -1.40786945      -0.57774387      -1.26261705
H       -1.84475111      -1.28852799       0.31711493
H        0.53993339      -2.16791637       0.03313527
H        0.97335156       1.21446256      -1.28359858
H        2.36874294      -0.24472594      -0.73013440
H        1.30320352      -0.03262588       1.92396510
14
Frame=12 idx=000652 GeodesicLength=0.8059982800911868 rxn_smarts="[O:1]([C@@:2]1([H:8])[C:3]([H:9])([H:10])[C@@:4]2([H:11])[C:5]([H:12])([H:13])[C@@:6]12[H:14])[H:7]>>[H:7][H:12].[O:1]=[C:2]([C:3]([C:4]1([H:11])[C:5]([H:13])=[C:6]1[H:14])([H:9])[H:10])[H:8]"
O       -1.08754329       1.78680208      -0.23005057
C       -1.00969881       0.70671684       0.47580617
C       -1.12284205      -0.65909129      -0.20902906
C        0.31716182      -1.10996500      -0.02348284
C        1.37395699      -0.10059897      -0.34696116
C        0.86526486      -0.08535242       0.93900577
H        0.05643776       1.80707427      -1.12310611
H       -1.34032727       0.76042996       1.51784079
H       -1.40074299      -0.57616603      -1.26227377
H       -1.84563648      -1.28716627       0.31612581
H        0.53748981      -2.17169385       0.04066836
H        0.97741485       1.22200865      -1.29466016
H        2.37430597      -0.25824332      -0.72160475
H        1.30475882      -0.03475466       1.92172151
14
Frame=13 idx=000652 GeodesicLength=0.8669998407237565 rxn_smarts="[O:1]([C@@:2]1([H:8])[C:3]([H:9])([H:10])[C@@:4]2([H:11])[C:5]([H:12])([H:13])[C@@:6]12[H:14])[H:7]>>[H:7][H:12].[O:1]=[C:2]([C:3]([C:4]1([H:11])[C:5]([H:13])=[C:6]1[H:14])([H:9])[H:10])[H:8]"
O       -1.09541747       1.78894758      -0.22781420
C       -1.00537568       0.70587314       0.47938424
C       -1.12080067      -0.65913343      -0.20753304
C        0.31982019      -1.11370703      -0.02353507
C        1.37675927      -0.10542973      -0.35034074
C        0.86394333      -0.08620425       0.93780858
H        0.04191363       1.82805654      -1.12944487
H       -1.34349506       0.75638563       1.51937817
H       -1.39343523      -0.57440162      -1.26205836
H       -1.84647765      -1.28579635       0.31495852
H        0.53493040      -2.17551642       0.04844907
H        0.98151086       1.22966110      -1.30576049
H        2.37973865      -0.27194994      -0.71291614
H        1.30638543      -0.03678522       1.91942433
14
Frame=14 idx=000652 GeodesicLength=0.9267027755582169 rxn_smarts="[O:1]([C@@:2]1([H:8])[C:3]([H:9])([H:10])[C@@:4]2([H:11])[C:5]([H:12])([H:13])[C@@:6]12[H:14])[H:7]>>[H:7][H:12].[O:1]=[C:2]([C:3]([C:4]1([H:11])[C:5]([H:13])=[C:6]1[H:14])([H:9])[H:10])[H:8]"
O       -1.10325941       1.79102059      -0.22557071
C       -1.00094486       0.70514161       0.48285552
C       -1.11871044      -0.65913701      -0.20609724
C        0.32249440      -1.11750737      -0.02350851
C        1.37971825      -0.11038814      -0.35368159
C        0.86268441      -0.08709599       0.93659918
H        0.02692355       1.84905547      -1.13570791
H       -1.34660965       0.75237812       1.52078643
H       -1.38602108      -0.57259228      -1.26178818
H       -1.84727483      -1.28434427       0.31373955
H        0.53233768      -2.17930851       0.05625695
H        0.98562067       1.23738824      -1.31683995
H        2.38504366      -0.28573417      -0.70420151
H        1.30799765      -0.03887629       1.91715797
14
Frame=15 idx=000652 GeodesicLength=0.9857482961533308 rxn_smarts="[O:1]([C@@:2]1([H:8])[C:3]([H:9])([H:10])[C@@:4]2([H:11])[C:5]([H:12])([H:13])[C@@:6]12[H:14])[H:7]>>[H:7][H:12].[O:1]=[C:2]([C:3]([C:4]1([H:11])[C:5]([H:13])=[C:6]1[H:14])([H:9])[H:10])[H:8]"
O       -1.11106949       1.79308983      -0.22334522
C       -0.99635809       0.70450606       0.48624189
C       -1.11653988      -0.65908417      -0.20471845
C        0.32522350      -1.12136819      -0.02347338
C        1.38285862      -0.11556751      -0.35703305
C        0.86153675      -0.08803232       0.93536353
H        0.01109316       1.87007185      -1.14187453
H       -1.34964193       0.74842002       1.52209186
H       -1.37847019      -0.57065995      -1.26149299
H       -1.84802936      -1.28279898       0.31241038
H        0.52966995      -2.18311937       0.06409926
H        0.98983454       1.24519535      -1.32788064
H        2.39025053      -0.29971043      -0.69527413
H        1.30964189      -0.04094220       1.91488547
14
Frame=16 idx=000652 GeodesicLength=1.0437274798859115 rxn_smarts="[O:1]([C@@:2]1([H:8])[C:3]([H:9])([H:10])[C@@:4]2([H:11])[C:5]([H:12])([H:13])[C@@:6]12[H:14])[H:7]>>[H:7][H:12].[O:1]=[C:2]([C:3]([C:4]1([H:11])[C:5]([H:13])=[C:6]1[H:14])([H:9])[H:10])[H:8]"
O       -1.11873316       1.79511622      -0.22119783
C       -0.99166636       0.70401323       0.48950300
C       -1.11431175      -0.65899298      -0.20333967
C        0.32795091      -1.12533398      -0.02335622
C        1.38613389      -0.12092867      -0.36031381
C        0.86045005      -0.08906857       0.93414785
H       -0.00542866       1.89107040      -1.14793224
H       -1.35258623       0.74455154       1.52326626
H       -1.37082825      -0.56862910      -1.26117906
H       -1.84874093      -1.28116259       0.31105649
H        0.52703609      -2.18687040       0.07181103
H        0.99403244       1.25306412      -1.33890836
H        2.39540999      -0.31379455      -0.68619872
H        1.31128195      -0.04303468       1.91264129
