17
Frame=0 idx=008387 GeodesicLength=0.0 rxn_smarts="[C:1]([C:2]12[C:3]([H:11])([H:12])[C:4]([H:13])([C:5]1([H:14])[H:15])[C:6]([H:16])=[C:7]2[H:17])([H:8])([H:9])[H:10]>>[C:1]([C@@:2]12[C:3]([H:11])([H:12])[C@:7]1([H:17])[C:6]([H:16])=[C:4]([H:13])[C:5]2([H:14])[H:15])([H:8])([H:9])[H:10]"
C        1.96345978      -0.07674615      -0.11960196
C        0.45518339      -0.02746183      -0.01307142
C       -0.12813929      -0.70738012       1.23660013
C       -1.68565686      -0.23094157      -0.48848423
C       -0.37343274      -0.64486503      -1.12017237
C       -1.54874655       1.07353753       0.00468587
C       -0.21139252       1.28079623       0.26650768
H        2.30747214       0.41986030      -1.02813501
H        2.43739609       0.40568552       0.73811522
H        2.30780655      -1.11310904      -0.15238353
H       -0.83580930      -0.20192623       1.86778771
H        0.52374198      -1.40917355       1.77025677
H       -2.63982848      -0.69387690      -0.71169986
H       -0.23754168      -0.19825695      -2.11752910
H       -0.22417221      -1.72200994      -1.18033019
H       -2.36591154       1.71725779       0.30082005
H        0.25557118       2.12860991       0.74663418
17
Frame=1 idx=008387 GeodesicLength=0.04991112334033783 rxn_smarts="[C:1]([C:2]12[C:3]([H:11])([H:12])[C:4]([H:13])([C:5]1([H:14])[H:15])[C:6]([H:16])=[C:7]2[H:17])([H:8])([H:9])[H:10]>>[C:1]([C@@:2]12[C:3]([H:11])([H:12])[C@:7]1([H:17])[C:6]([H:16])=[C:4]([H:13])[C:5]2([H:14])[H:15])([H:8])([H:9])[H:10]"
C        1.96762863      -0.07546049      -0.12334009
C        0.46025963      -0.02803668      -0.01588766
C       -0.13516583      -0.69577037       1.23232676
C       -1.68291813      -0.23656787      -0.47763728
C       -0.37372039      -0.64647484      -1.11996080
C       -1.54680238       1.07511433       0.00068774
C       -0.21078355       1.27454967       0.28184305
H        2.30952815       0.42742146      -1.02935254
H        2.44211983       0.40198269       0.73684667
H        2.31392921      -1.11096481      -0.16230161
H       -0.84850360      -0.21365130       1.87590526
H        0.51326836      -1.40158755       1.76406388
H       -2.63770234      -0.69842407      -0.70102946
H       -0.23927800      -0.19953918      -2.11672683
H       -0.22584963      -1.72412723      -1.18045116
H       -2.36408391       1.72514347       0.28233105
H        0.25807395       2.12639277       0.75268302
17
Frame=2 idx=008387 GeodesicLength=0.09981550275114932 rxn_smarts="[C:1]([C:2]12[C:3]([H:11])([H:12])[C:4]([H:13])([C:5]1([H:14])[H:15])[C:6]([H:16])=[C:7]2[H:17])([H:8])([H:9])[H:10]>>[C:1]([C@@:2]12[C:3]([H:11])([H:12])[C@:7]1([H:17])[C:6]([H:16])=[C:4]([H:13])[C:5]2([H:14])[H:15])([H:8])([H:9])[H:10]"
C        1.97167303      -0.07404838      -0.12700350
C        0.46519509      -0.02853933      -0.01851930
C       -0.14216193      -0.68416059       1.22818355
C       -1.68020052      -0.24187475      -0.46701232
C       -0.37404122      -0.64816599      -1.11957759
C       -1.54470172       1.07674994      -0.00333510
C       -0.21022262       1.26837717       0.29688263
H        2.31142293       0.43518338      -1.03041216
H        2.44671452       0.39833820       0.73565681
H        2.32001122      -1.10861698      -0.17230201
H       -0.86099766      -0.22594396       1.88368230
H        0.50281788      -1.39418028       1.75774000
H       -2.63563173      -0.70263166      -0.69046530
H       -0.24082641      -0.20118009      -2.11584924
H       -0.22770037      -1.72635394      -1.18017730
H       -2.36187716       1.73283353       0.26417409
H        0.26052669       2.12421374       0.75833446
17
Frame=3 idx=008387 GeodesicLength=0.14970639344502476 rxn_smarts="[C:1]([C:2]12[C:3]([H:11])([H:12])[C:4]([H:13])([C:5]1([H:14])[H:15])[C:6]([H:16])=[C:7]2[H:17])([H:8])([H:9])[H:10]>>[C:1]([C@@:2]12[C:3]([H:11])([H:12])[C@:7]1([H:17])[C:6]([H:16])=[C:4]([H:13])[C:5]2([H:14])[H:15])([H:8])([H:9])[H:10]"
C        1.97559378      -0.07252155      -0.13058775
C        0.46999069      -0.02897475      -0.02097032
C       -0.14914125      -0.67255030       1.22416309
C       -1.67750780      -0.24687359      -0.45661151
C       -0.37438896      -0.64993923      -1.11903342
C       -1.54245363       1.07844542      -0.00739152
C       -0.20970479       1.26229992       0.31158873
H        2.31316543       0.44310600      -1.03131986
H        2.45117761       0.39475781       0.73454127
H        2.32604628      -1.10607783      -0.18235108
H       -0.87324124      -0.23874511       1.89110660
H        0.49238133      -1.38693041       1.75129387
H       -2.63361922      -0.70649124      -0.68005520
H       -0.24218454      -0.20317421      -2.11490572
H       -0.22971150      -1.72868919      -1.17952238
H       -2.35932420       1.74028920       0.24644946
H        0.26292201       2.12206906       0.76360573
17
Frame=4 idx=008387 GeodesicLength=0.19957729786551567 rxn_smarts="[C:1]([C:2]12[C:3]([H:11])([H:12])[C:4]([H:13])([C:5]1([H:14])[H:15])[C:6]([H:16])=[C:7]2[H:17])([H:8])([H:9])[H:10]>>[C:1]([C@@:2]12[C:3]([H:11])([H:12])[C@:7]1([H:17])[C:6]([H:16])=[C:4]([H:13])[C:5]2([H:14])[H:15])([H:8])([H:9])[H:10]"
C        1.97939263      -0.07089254      -0.13408875
C        0.47464831      -0.02934887      -0.02324564
C       -0.15611602      -0.66093754       1.22025737
C       -1.67484315      -0.25157533      -0.44643718
C       -0.37475750      -0.65179449      -1.11833970
C       -1.54006739       1.08020188      -0.01149236
C       -0.20922507       1.25633801       0.32592756
H        2.31476545       0.45114794      -1.03208329
H        2.45550746       0.39124779       0.73349512
H        2.33202901      -1.10336125      -0.19241391
H       -0.88518776      -0.25199592       1.89816715
H        0.48194964      -1.37981679       1.74473244
H       -2.63166582      -0.70999859      -0.66984128
H       -0.24335016      -0.20551415      -2.11390571
H       -0.23187027      -1.73113120      -1.17850177
H       -2.35646313       1.74747577       0.22925269
H        0.26525378       2.11995529       0.76851727
17
Frame=5 idx=008387 GeodesicLength=0.24942161653971834 rxn_smarts="[C:1]([C:2]12[C:3]([H:11])([H:12])[C:4]([H:13])([C:5]1([H:14])[H:15])[C:6]([H:16])=[C:7]2[H:17])([H:8])([H:9])[H:10]>>[C:1]([C@@:2]12[C:3]([H:11])([H:12])[C@:7]1([H:17])[C:6]([H:16])=[C:4]([H:13])[C:5]2([H:14])[H:15])([H:8])([H:9])[H:10]"
C        1.98307199      -0.06917484      -0.13750214
C        0.47917076      -0.02966875      -0.02535106
C       -0.16309741      -0.64931827       1.21645770
C       -1.67220954      -0.25598995      -0.43649233
C       -0.37514069      -0.65373085      -1.11750880
C       -1.53755261       1.08202081      -0.01565064
C       -0.20877907       1.25051095       0.33986919
H        2.31623377       0.45926581      -1.03271109
H        2.45970280       0.38781497       0.73251364
H        2.33795453      -1.10048265      -0.20245308
H       -0.89679313      -0.26563768       1.90485319
H        0.47151333      -1.37281889       1.73806010
H       -2.62977143      -0.71315307      -0.65986101
H       -0.24432032      -0.20819040      -2.11285910
H       -0.23416400      -1.73367759      -1.17713242
H       -2.35333722       1.75435955       0.21267946
H        0.26751823       2.11787083       0.77308838
17
Frame=6 idx=008387 GeodesicLength=0.2992321881970885 rxn_smarts="[C:1]([C:2]12[C:3]([H:11])([H:12])[C:4]([H:13])([C:5]1([H:14])[H:15])[C:6]([H:16])=[C:7]2[H:17])([H:8])([H:9])[H:10]>>[C:1]([C@@:2]12[C:3]([H:11])([H:12])[C@:7]1([H:17])[C:6]([H:16])=[C:4]([H:13])[C:5]2([H:14])[H:15])([H:8])([H:9])[H:10]"
C        1.98663533      -0.06738242      -0.14082318
C        0.48356158      -0.02994186      -0.02729249
C       -0.17009678      -0.63768685       1.21275568
C       -1.66960982      -0.26012637      -0.42678000
C       -0.37553236      -0.65574704      -1.11655350
C       -1.53491910       1.08390464      -0.01988049
C       -0.20836336       1.24483784       0.35338780
H        2.31758265       0.46741528      -1.03321291
H        2.46376305       0.38446731       0.73159240
H        2.34381919      -1.09745920      -0.21242912
H       -0.90801588      -0.27961525       1.91115277
H        0.46106357      -1.36591867       1.73127812
H       -2.62793530      -0.71595677      -0.65014673
H       -0.24509151      -0.21119270      -2.11177636
H       -0.23658039      -1.73632594      -1.17543200
H       -2.34999390       1.76091003       0.19682389
H        0.26971302       2.11581797       0.77733613
17
Frame=7 idx=008387 GeodesicLength=0.34899972738210594 rxn_smarts="[C:1]([C:2]12[C:3]([H:11])([H:12])[C:4]([H:13])([C:5]1([H:14])[H:15])[C:6]([H:16])=[C:7]2[H:17])([H:8])([H:9])[H:10]>>[C:1]([C@@:2]12[C:3]([H:11])([H:12])[C@:7]1([H:17])[C:6]([H:16])=[C:4]([H:13])[C:5]2([H:14])[H:15])([H:8])([H:9])[H:10]"
C        1.99008597      -0.06553075      -0.14404665
C        0.48782467      -0.03017974      -0.02907670
C       -0.17712269      -0.62603885       1.20914175
C       -1.66704906      -0.26399320      -0.41730281
C       -0.37592467      -0.65784158      -1.11548819
C       -1.53217795       1.08585692      -0.02419534
C       -0.20797716       1.23933908       0.36646421
H        2.31882361       0.47554998      -1.03359911
H        2.46768719       0.38121317       0.73072767
H        2.34961939      -1.09430879      -0.22229994
H       -0.91881233      -0.29386846       1.91705533
H        0.45059019      -1.35909868       1.72438480
H       -2.62615858      -0.71841558      -0.64072675
H       -0.24565456      -0.21450530      -2.11066934
H       -0.23910548      -1.73907681      -1.17342175
H       -2.34648520       1.76709974       0.18177964
H        0.27183664       2.11379886       0.78127317
17
Frame=8 idx=008387 GeodesicLength=0.39871603633100466 rxn_smarts="[C:1]([C:2]12[C:3]([H:11])([H:12])[C:4]([H:13])([C:5]1([H:14])[H:15])[C:6]([H:16])=[C:7]2[H:17])([H:8])([H:9])[H:10]>>[C:1]([C@@:2]12[C:3]([H:11])([H:12])[C@:7]1([H:17])[C:6]([H:16])=[C:4]([H:13])[C:5]2([H:14])[H:15])([H:8])([H:9])[H:10]"
C        1.99342935      -0.06363514      -0.14718669
C        0.49196408      -0.03035318      -0.03071422
C       -0.18416260      -0.61441773       1.20558620
C       -1.66449307      -0.26760851      -0.40807487
C       -0.37631576      -0.65998824      -1.11432612
C       -1.52932355       1.08785766      -0.02857564
C       -0.20758404       1.23399131       0.37906715
H        2.31997766       0.48361312      -1.03390805
H        2.47148791       0.37806174       0.72988977
H        2.35534050      -1.09106053      -0.23203901
H       -0.92928996      -0.30830578       1.92261932
H        0.44013369      -1.35230340       1.71745125
H       -2.62440356      -0.72053614      -0.63164375
H       -0.24603182      -0.21809905      -2.10952383
H       -0.24173296      -1.74188244      -1.17114777
H       -2.34283915       1.77290587       0.16760914
H        0.27384328       2.11176045       0.78491713
17
Frame=9 idx=008387 GeodesicLength=0.4484015604728263 rxn_smarts="[C:1]([C:2]12[C:3]([H:11])([H:12])[C:4]([H:13])([C:5]1([H:14])[H:15])[C:6]([H:16])=[C:7]2[H:17])([H:8])([H:9])[H:10]>>[C:1]([C@@:2]12[C:3]([H:11])([H:12])[C@:7]1([H:17])[C:6]([H:16])=[C:4]([H:13])[C:5]2([H:14])[H:15])([H:8])([H:9])[H:10]"
C        1.99666832      -0.06169659      -0.15023310
C        0.49598545      -0.03050495      -0.03219823
C       -0.19123321      -0.60279059       1.20211342
C       -1.66197926      -0.27098366      -0.39906555
C       -0.37670675      -0.66220679      -1.11306441
C       -1.52637841       1.08992037      -0.03304303
C       -0.20721614       1.22881633       0.39124099
H        2.32103366       0.49163849      -1.03411400
H        2.47516402       0.37499617       0.72910037
H        2.36099750      -1.08770781      -0.24166644
H       -0.93932383      -0.32298311       1.92778447
H        0.42967318      -1.34557603       1.71041545
H       -2.62270564      -0.72235484      -0.62282859
H       -0.24622201      -0.22197274      -2.10835148
H       -0.24445649      -1.74477520      -1.16859543
H       -2.33909055       1.77840968       0.15417534
H        0.27579017       2.10977123       0.78833021
17
Frame=10 idx=008387 GeodesicLength=0.49806458593226177 rxn_smarts="[C:1]([C:2]12[C:3]([H:11])([H:12])[C:4]([H:13])([C:5]1([H:14])[H:15])[C:6]([H:16])=[C:7]2[H:17])([H:8])([H:9])[H:10]>>[C:1]([C@@:2]12[C:3]([H:11])([H:12])[C@:7]1([H:17])[C:6]([H:16])=[C:4]([H:13])[C:5]2([H:14])[H:15])([H:8])([H:9])[H:10]"
C        1.99980491      -0.05971531      -0.15319291
C        0.49989316      -0.03064951      -0.03352614
C       -0.19832540      -0.59118462       1.19871324
C       -1.65950807      -0.27412823      -0.39025138
C       -0.37709987      -0.66449339      -1.11170315
C       -1.52334727       1.09203274      -0.03757968
C       -0.20687004       1.22381525       0.40301541
H        2.32198214       0.49965296      -1.03420894
H        2.47872519       0.37199055       0.72836166
H        2.36659316      -1.08424315      -0.25122128
H       -0.94892002      -0.33786559       1.93256638
H        0.41922439      -1.33891650       1.70328838
H       -2.62106215      -0.72389860      -0.61423058
H       -0.24623492      -0.22610534      -2.10714578
H       -0.24727498      -1.74775079      -1.16578185
H       -2.33524771       1.78367232       0.14133820
H        0.27766750       2.10778719       0.79155842
17
Frame=11 idx=008387 GeodesicLength=0.5477093337302276 rxn_smarts="[C:1]([C:2]12[C:3]([H:11])([H:12])[C:4]([H:13])([C:5]1([H:14])[H:15])[C:6]([H:16])=[C:7]2[H:17])([H:8])([H:9])[H:10]>>[C:1]([C@@:2]12[C:3]([H:11])([H:12])[C@:7]1([H:17])[C:6]([H:16])=[C:4]([H:13])[C:5]2([H:14])[H:15])([H:8])([H:9])[H:10]"
C        2.00284052      -0.05768929      -0.15607265
C        0.50368733      -0.03078845      -0.03468939
C       -0.20544138      -0.57960784       1.19539921
C       -1.65708109      -0.27705799      -0.38161639
C       -0.37749948      -0.66684636      -1.11023461
C       -1.52023508       1.09419146      -0.04217100
C       -0.20654158       1.21897720       0.41441213
H        2.32281647       0.50766506      -1.03420477
H        2.48218010       0.36904338       0.72766714
H        2.37213178      -1.08066689      -0.26072020
H       -0.95806154      -0.35298588       1.93696480
H        0.40879608      -1.33233099       1.69606859
H       -2.61947746      -0.72518326      -0.60582814
H       -0.24608515      -0.23048813      -2.10589056
H       -0.25019187      -1.75080356      -1.16270824
H       -2.33131169       1.78875504       0.12897237
H        0.27947403       2.10581650       0.79465169
17
Frame=12 idx=008387 GeodesicLength=0.5973450258784282 rxn_smarts="[C:1]([C:2]12[C:3]([H:11])([H:12])[C:4]([H:13])([C:5]1([H:14])[H:15])[C:6]([H:16])=[C:7]2[H:17])([H:8])([H:9])[H:10]>>[C:1]([C@@:2]12[C:3]([H:11])([H:12])[C@:7]1([H:17])[C:6]([H:16])=[C:4]([H:13])[C:5]2([H:14])[H:15])([H:8])([H:9])[H:10]"
C        2.00577398      -0.05561745      -0.15887721
C        0.50737197      -0.03093205      -0.03567951
C       -0.21258203      -0.56806914       1.19218129
C       -1.65470456      -0.27978472      -0.37314245
C       -0.37791131      -0.66926887      -1.10864981
C       -1.51704568       1.09639120      -0.04681336
C       -0.20624093       1.21428641       0.42546214
H        2.32352273       0.51571085      -1.03408629
H        2.48553581       0.36612882       0.72701792
H        2.37761447      -1.07697122      -0.27020575
H       -0.96675022      -0.36836060       1.94095587
H        0.39841654      -1.32581679       1.68874999
H       -2.61795647      -0.72622584      -0.59757797
H       -0.24578799      -0.23511999      -2.10457506
H       -0.25321036      -1.75393218      -1.15936674
H       -2.32727572       1.79371395       0.11694216
H        0.28122977       2.10386761       0.79766478
17
Frame=13 idx=008387 GeodesicLength=0.6469621963445236 rxn_smarts="[C:1]([C:2]12[C:3]([H:11])([H:12])[C:4]([H:13])([C:5]1([H:14])[H:15])[C:6]([H:16])=[C:7]2[H:17])([H:8])([H:9])[H:10]>>[C:1]([C@@:2]12[C:3]([H:11])([H:12])[C@:7]1([H:17])[C:6]([H:16])=[C:4]([H:13])[C:5]2([H:14])[H:15])([H:8])([H:9])[H:10]"
C        2.00860823      -0.05351300      -0.16160934
C        0.51094857      -0.03108553      -0.03651256
C       -0.21974329      -0.55658048       1.18902648
C       -1.65236909      -0.28230995      -0.36483571
C       -0.37832582      -0.67174999      -1.10696877
C       -1.51378148       1.09862926      -0.05151308
C       -0.20594852       1.20976428       0.43615154
H        2.32411336       0.52373031      -1.03388126
H        2.48878957       0.36326515       0.72640031
H        2.38303781      -1.07317284      -0.27962748
H       -0.97498753      -0.38389226       1.94458089
H        0.38807944      -1.31934400       1.68136919
H       -2.61648637      -0.72702160      -0.58952631
H       -0.24533849      -0.23997366      -2.10320990
H       -0.25631464      -1.75712566      -1.15579710
H       -2.32317651       1.79850126       0.10535887
H        0.28289478       2.10187871       0.80059422
17
Frame=14 idx=008387 GeodesicLength=0.6965709999143507 rxn_smarts="[C:1]([C:2]12[C:3]([H:11])([H:12])[C:4]([H:13])([C:5]1([H:14])[H:15])[C:6]([H:16])=[C:7]2[H:17])([H:8])([H:9])[H:10]>>[C:1]([C@@:2]12[C:3]([H:11])([H:12])[C@:7]1([H:17])[C:6]([H:16])=[C:4]([H:13])[C:5]2([H:14])[H:15])([H:8])([H:9])[H:10]"
C        2.01134598      -0.05137319      -0.16427155
C        0.51442197      -0.03125748      -0.03717830
C       -0.22693363      -0.54514400       1.18595700
C       -1.65008665      -0.28464979      -0.35668124
C       -0.37875055      -0.67429693      -1.10518368
C       -1.51044916       1.10090286      -0.05626606
C       -0.20568070       1.20538892       0.44651382
H        2.32458386       0.53175637      -1.03357915
H        2.49195002       0.36043691       0.72581884
H        2.38840931      -1.06926507      -0.28902246
H       -0.98277293      -0.39961316       1.94781021
H        0.37779990      -1.31291921       1.67391251
H       -2.61507993      -0.72759244      -0.58164383
H       -0.24474800      -0.24505372      -2.10178672
H       -0.25951396      -1.76038868      -1.15199234
H       -2.31900727       1.80316818       0.09411589
H        0.28451173       2.09990042       0.80347706
17
Frame=15 idx=008387 GeodesicLength=0.7461786767806527 rxn_smarts="[C:1]([C:2]12[C:3]([H:11])([H:12])[C:4]([H:13])([C:5]1([H:14])[H:15])[C:6]([H:16])=[C:7]2[H:17])([H:8])([H:9])[H:10]>>[C:1]([C@@:2]12[C:3]([H:11])([H:12])[C@:7]1([H:17])[C:6]([H:16])=[C:4]([H:13])[C:5]2([H:14])[H:15])([H:8])([H:9])[H:10]"
C        2.01398509      -0.04919520      -0.16686976
C        0.51779162      -0.03145835      -0.03767448
C       -0.23415031      -0.53377828       1.18296890
C       -1.64785732      -0.28681092      -0.34866394
C       -0.37918881      -0.67690948      -1.10329099
C       -1.50704946       1.10320577      -0.06106319
C       -0.20543392       1.20115385       0.45658085
H        2.32492028       0.53981698      -1.03317196
H        2.49502122       0.35762564       0.72527381
H        2.39372762      -1.06523857      -0.29842485
H       -0.99009818      -0.41551590       1.95065860
H        0.36759401      -1.30654445       1.66639188
H       -2.61373643      -0.72794930      -0.57390457
H       -0.24402614      -0.25035275      -2.10029649
H       -0.26281293      -1.76372011      -1.14795796
H       -2.31475578       1.80776081       0.08309685
H        0.28606944       2.09791024       0.80634730
17
Frame=16 idx=008387 GeodesicLength=0.7957895671030788 rxn_smarts="[C:1]([C:2]12[C:3]([H:11])([H:12])[C:4]([H:13])([C:5]1([H:14])[H:15])[C:6]([H:16])=[C:7]2[H:17])([H:8])([H:9])[H:10]>>[C:1]([C@@:2]12[C:3]([H:11])([H:12])[C@:7]1([H:17])[C:6]([H:16])=[C:4]([H:13])[C:5]2([H:14])[H:15])([H:8])([H:9])[H:10]"
C        2.01652447      -0.04697523      -0.16941061
C        0.52105909      -0.03169647      -0.03799440
C       -0.24139110      -0.52250022       1.18006811
C       -1.64568556      -0.28880328      -0.34076701
C       -0.37964563      -0.67958876      -1.10128439
C       -1.50358315       1.10553114      -0.06589193
C       -0.20521219       1.19704515       0.46638621
H        2.32510938       0.54794429      -1.03265025
H        2.49800903       0.35481313       0.72476429
H        2.39899435      -1.06108170      -0.30787068
H       -0.99696865      -0.43160860       1.95312242
H        0.35748152      -1.30021956       1.65881446
H       -2.61246134      -0.72810523      -0.56627992
H       -0.24318303      -0.25586514      -2.09872923
H       -0.26621817      -1.76711931      -1.14369433
H       -2.31040241       1.81232756       0.07218180
H        0.28757341       2.09590222       0.80923546
