15
Frame=0 idx=007153 GeodesicLength=0.0 rxn_smarts="[O:1]([C:2]1([C:3]([C:4](=[O:5])[H:11])([H:9])[H:10])[C:6]([H:12])([H:13])[C:7]1([H:14])[H:15])[H:8]>>[O:1]([C:2][C:7]([C:6]([C:3]([C:4](=[O:5])[H:11])([H:9])[H:10])([H:12])[H:13])([H:14])[H:15])[H:8]"
O        0.06789103       0.19185371      -1.83724948
C       -0.13663835       0.80175702      -0.65655854
C        0.58921856      -0.22573732       0.76585409
C        2.03842781      -0.23016641       0.33281487
O        2.49682069      -0.01308850      -0.75716107
C       -1.27320096      -0.46676386       0.32493061
C       -1.61635937       0.78530154      -0.35440827
H        1.03236036       0.13400068      -1.92724178
H        0.54599862       0.45566874       1.61783663
H        0.55110232      -1.24464188       1.21390317
H        2.72037748      -0.51670854       1.16200156
H       -1.55433421      -0.59466337       1.36222699
H       -1.30224841      -1.36419166      -0.27929223
H       -2.21310968       0.69201518      -1.25566454
H       -1.94630585       1.59536463       0.28800803
15
Frame=1 idx=007153 GeodesicLength=0.06385201669828862 rxn_smarts="[O:1]([C:2]1([C:3]([C:4](=[O:5])[H:11])([H:9])[H:10])[C:6]([H:12])([H:13])[C:7]1([H:14])[H:15])[H:8]>>[O:1]([C:2][C:7]([C:6]([C:3]([C:4](=[O:5])[H:11])([H:9])[H:10])([H:12])[H:13])([H:14])[H:15])[H:8]"
O        0.05888746       0.20069399      -1.85739785
C       -0.13532719       0.78644205      -0.66291719
C        0.58925245      -0.23274685       0.77061309
C        2.03920216      -0.22462692       0.34189530
O        2.50047589      -0.05975492      -0.75579919
C       -1.27016551      -0.47457934       0.31853598
C       -1.61016151       0.78797254      -0.34878044
H        1.02203223       0.14537359      -1.95723789
H        0.53580118       0.45216530       1.61955466
H        0.55864810      -1.24772303       1.22642732
H        2.72536537      -0.46173766       1.18330372
H       -1.56646266      -0.60865121       1.35106489
H       -1.31048849      -1.36931258      -0.28930212
H       -2.21876870       0.70736491      -1.24344767
H       -1.91829078       1.59912013       0.30348739
15
Frame=2 idx=007153 GeodesicLength=0.12769672741670224 rxn_smarts="[O:1]([C:2]1([C:3]([C:4](=[O:5])[H:11])([H:9])[H:10])[C:6]([H:12])([H:13])[C:7]1([H:14])[H:15])[H:8]>>[O:1]([C:2][C:7]([C:6]([C:3]([C:4](=[O:5])[H:11])([H:9])[H:10])([H:12])[H:13])([H:14])[H:15])[H:8]"
O        0.05026941       0.21050199      -1.87735639
C       -0.13396730       0.77078284      -0.66922420
C        0.58923416      -0.23958186       0.77597582
C        2.03958738      -0.21943345       0.35062483
O        2.50297193      -0.10960502      -0.75292374
C       -1.26693139      -0.48267247       0.31222732
C       -1.60365299       0.79015332      -0.34323032
H        1.01207333       0.15981112      -1.98739568
H        0.52584888       0.44932732       1.62132879
H        0.56610332      -1.25008541       1.24045434
H        2.72943754      -0.40617976       1.20176045
H       -1.57867153      -0.62252751       1.33968528
H       -1.31832170      -1.37460472      -0.29917832
H       -2.22382717       0.72207434      -1.23111170
H       -1.89015388       1.60203929       0.31836352
15
Frame=3 idx=007153 GeodesicLength=0.19155151843621573 rxn_smarts="[O:1]([C:2]1([C:3]([C:4](=[O:5])[H:11])([H:9])[H:10])[C:6]([H:12])([H:13])[C:7]1([H:14])[H:15])[H:8]>>[O:1]([C:2][C:7]([C:6]([C:3]([C:4](=[O:5])[H:11])([H:9])[H:10])([H:12])[H:13])([H:14])[H:15])[H:8]"
O        0.04210114       0.22118114      -1.89709074
C       -0.13256216       0.75469727      -0.67552646
C        0.58914330      -0.24628724       0.78194260
C        2.03954178      -0.21498914       0.35884948
O        2.50430543      -0.16162244      -0.74823076
C       -1.26352559      -0.49102690       0.30605460
C       -1.59683701       0.79182966      -0.33781050
H        1.00252252       0.17717417      -2.01751843
H        0.51624935       0.44720541       1.62308619
H        0.57334995      -1.25170902       1.25606620
H        2.73266826      -0.35043454       1.21703757
H       -1.59096143      -0.63619074       1.32815004
H       -1.32582055      -1.38009026      -0.30882589
H       -2.22828203       0.73608259      -1.21872562
H       -1.86189297       1.60418006       0.33254171
15
Frame=4 idx=007153 GeodesicLength=0.25544533193964297 rxn_smarts="[O:1]([C:2]1([C:3]([C:4](=[O:5])[H:11])([H:9])[H:10])[C:6]([H:12])([H:13])[C:7]1([H:14])[H:15])[H:8]>>[O:1]([C:2][C:7]([C:6]([C:3]([C:4](=[O:5])[H:11])([H:9])[H:10])([H:12])[H:13])([H:14])[H:15])[H:8]"
O        0.03439947       0.23251803      -1.91659959
C       -0.13109575       0.73806543      -0.68190255
C        0.58896407      -0.25294313       0.78847865
C        2.03908632      -0.21165308       0.36651150
O        2.50468683      -0.21442184      -0.74152976
C       -1.26002381      -0.49961693       0.30009531
C       -1.58970189       0.79301048      -0.33256374
H        0.99336475       0.19719661      -2.04750857
H        0.50708311       0.44577019       1.62477756
H        0.58025487      -1.25265961       1.27321325
H        2.73510702      -0.29498041       1.22897429
H       -1.60336925      -0.64949999       1.31657803
H       -1.33317606      -1.38580180      -0.31811099
H       -2.23214427       0.74935206      -1.20634356
H       -1.83343540       1.60566399       0.34593017
15
Frame=5 idx=007153 GeodesicLength=0.31924560190761553 rxn_smarts="[O:1]([C:2]1([C:3]([C:4](=[O:5])[H:11])([H:9])[H:10])[C:6]([H:12])([H:13])[C:7]1([H:14])[H:15])[H:8]>>[O:1]([C:2][C:7]([C:6]([C:3]([C:4](=[O:5])[H:11])([H:9])[H:10])([H:12])[H:13])([H:14])[H:15])[H:8]"
O        0.02709653       0.24430103      -1.93575216
C       -0.12959826       0.72073559      -0.68839261
C        0.58869837      -0.25961341       0.79548971
C        2.03824029      -0.20960833       0.37366798
O        2.50429764      -0.26705916      -0.73267180
C       -1.25642426      -0.50837960       0.29437895
C       -1.58222863       0.79369958      -0.32752827
H        0.98445385       0.21970686      -2.07718423
H        0.49834924       0.44491910       1.62625519
H        0.58681275      -1.25296307       1.29170416
H        2.73672948      -0.24020271       1.23753217
H       -1.61582658      -0.66229846       1.30495848
H       -1.34045602      -1.39167065      -0.32690001
H       -2.23542193       0.76188598      -1.19394857
H       -1.80472247       1.60654727       0.35839100
15
Frame=6 idx=007153 GeodesicLength=0.3830833399722409 rxn_smarts="[O:1]([C:2]1([C:3]([C:4](=[O:5])[H:11])([H:9])[H:10])[C:6]([H:12])([H:13])[C:7]1([H:14])[H:15])[H:8]>>[O:1]([C:2][C:7]([C:6]([C:3]([C:4](=[O:5])[H:11])([H:9])[H:10])([H:12])[H:13])([H:14])[H:15])[H:8]"
O        0.02017988       0.25627763      -1.95464739
C       -0.12802448       0.70257978      -0.69510177
C        0.58832336      -0.26639286       0.80294654
C        2.03707970      -0.20890102       0.38044749
O        2.50351819      -0.31884160      -0.72178912
C       -1.25284705      -0.51733621       0.28898684
C       -1.57437427       0.79393127      -0.32271557
H        0.97572407       0.24470689      -2.10666858
H        0.49001577       0.44453508       1.62758224
H        0.59293107      -1.25278427       1.31139484
H        2.73753446      -0.18617035       1.24284274
H       -1.62841736      -0.67452579       1.29346487
H       -1.34793961      -1.39778556      -0.33509755
H       -2.23811718       0.77373737      -1.18158040
H       -1.77558655       1.60696963       0.36993484
15
Frame=7 idx=007153 GeodesicLength=0.44692772261338076 rxn_smarts="[O:1]([C:2]1([C:3]([C:4](=[O:5])[H:11])([H:9])[H:10])[C:6]([H:12])([H:13])[C:7]1([H:14])[H:15])[H:8]>>[O:1]([C:2][C:7]([C:6]([C:3]([C:4](=[O:5])[H:11])([H:9])[H:10])([H:12])[H:13])([H:14])[H:15])[H:8]"
O        0.01359901       0.26825085      -1.97325645
C       -0.12638080       0.68346136      -0.70208654
C        0.58784099      -0.27332964       0.81078994
C        2.03565600      -0.20947558       0.38699454
O        2.50257269      -0.36950931      -0.70894579
C       -1.24931915      -0.52647601       0.28396029
C       -1.56610301       0.79370674      -0.31815560
H        0.96701205       0.27238983      -2.13594225
H        0.48203060       0.44451345       1.62871729
H        0.59863035      -1.25218740       1.33211241
H        2.73747213      -0.13301225       1.24502879
H       -1.64112351      -0.68609045       1.28215019
H       -1.35573367      -1.40415311      -0.34259657
H       -2.24022356       0.78491874      -1.16924569
H       -1.74593011       1.60699278       0.38047545
15
Frame=8 idx=007153 GeodesicLength=0.510793274228069 rxn_smarts="[O:1]([C:2]1([C:3]([C:4](=[O:5])[H:11])([H:9])[H:10])[C:6]([H:12])([H:13])[C:7]1([H:14])[H:15])[H:8]>>[O:1]([C:2][C:7]([C:6]([C:3]([C:4](=[O:5])[H:11])([H:9])[H:10])([H:12])[H:13])([H:14])[H:15])[H:8]"
O        0.00733238       0.28007284      -1.99158457
C       -0.12466477       0.66326000      -0.70940218
C        0.58725732      -0.28044639       0.81898623
C        2.03403336      -0.21122364       0.39343738
O        2.50164647      -0.41908060      -0.69422431
C       -1.24587628      -0.53580928       0.27933778
C       -1.55738524       0.79301155      -0.31388319
H        0.95814982       0.30309704      -2.16500583
H        0.47435281       0.44479058       1.62964987
H        0.60393087      -1.25120546       1.35374422
H        2.73653285      -0.08080737       1.24421680
H       -1.65395929      -0.69693193       1.27107701
H       -1.36393859      -1.41080322      -0.34931263
H       -2.24173758       0.79541968      -1.15697294
H       -1.71567413       1.60665621       0.38993637
15
Frame=9 idx=007153 GeodesicLength=0.5746236528200559 rxn_smarts="[O:1]([C:2]1([C:3]([C:4](=[O:5])[H:11])([H:9])[H:10])[C:6]([H:12])([H:13])[C:7]1([H:14])[H:15])[H:8]>>[O:1]([C:2][C:7]([C:6]([C:3]([C:4](=[O:5])[H:11])([H:9])[H:10])([H:12])[H:13])([H:14])[H:15])[H:8]"
O        0.00137620       0.29153372      -2.00961929
C       -0.12288131       0.64181196      -0.71711112
C        0.58657489      -0.28779202       0.82746555
C        2.03223281      -0.21402923       0.39987010
O        2.50089946      -0.46763949      -0.67765416
C       -1.24253370      -0.54534412       0.27515643
C       -1.54815996       0.79183137      -0.30993750
H        0.94891931       0.33724968      -2.19370846
H        0.46692451       0.44526333       1.63031785
H        0.60888415      -1.24990017       1.37612476
H        2.73458152      -0.02952578       1.24049031
H       -1.66688193      -0.70695896       1.26030156
H       -1.37264875      -1.41776318      -0.35513367
H       -2.24261431       0.80525573      -1.14477634
H       -1.68467289       1.60600715       0.39821400
15
Frame=10 idx=007153 GeodesicLength=0.6384633433246935 rxn_smarts="[O:1]([C:2]1([C:3]([C:4](=[O:5])[H:11])([H:9])[H:10])[C:6]([H:12])([H:13])[C:7]1([H:14])[H:15])[H:8]>>[O:1]([C:2][C:7]([C:6]([C:3]([C:4](=[O:5])[H:11])([H:9])[H:10])([H:12])[H:13])([H:14])[H:15])[H:8]"
O       -0.00423901       0.30259506      -2.02738830
C       -0.12102723       0.61902764      -0.72525929
C        0.58581034      -0.29533069       0.83623139
C        2.03032325      -0.21777471       0.40636802
O        2.50041961      -0.51546786      -0.65926712
C       -1.23930924      -0.55510969       0.27143788
C       -1.53841282       0.79012167      -0.30637821
H        0.93907262       0.37532916      -2.22197961
H        0.45973997       0.44597305       1.63071649
H        0.61351235      -1.24820418       1.39926657
H        2.73168748       0.02066828       1.23391593
H       -1.67992265      -0.71614490       1.24986762
H       -1.38188917      -1.42508023      -0.36001017
H       -2.24284866       0.81436013      -1.13273115
H       -1.65291683       1.60503727       0.40520995
15
Frame=11 idx=007153 GeodesicLength=0.702295440039462 rxn_smarts="[O:1]([C:2]1([C:3]([C:4](=[O:5])[H:11])([H:9])[H:10])[C:6]([H:12])([H:13])[C:7]1([H:14])[H:15])[H:8]>>[O:1]([C:2][C:7]([C:6]([C:3]([C:4](=[O:5])[H:11])([H:9])[H:10])([H:12])[H:13])([H:14])[H:15])[H:8]"
O       -0.00945355       0.31317398      -2.04489228
C       -0.11909344       0.59477141      -0.73389513
C        0.58497061      -0.30307132       0.84525379
C        2.02832461      -0.22239399       0.41297556
O        2.50027574      -0.56284025      -0.63902705
C       -1.23619982      -0.56513256       0.26819510
C       -1.52808272       0.78784469      -0.30326571
H        0.92827202       0.41781404      -2.24958141
H        0.45278073       0.44690498       1.63079026
H        0.61784301      -1.24609239       1.42313322
H        2.72779954       0.06979489       1.22448574
H       -1.69306446      -0.72444249       1.23979662
H       -1.39168631      -1.43279141      -0.36388092
H       -2.24237855       0.82271085      -1.12089482
H       -1.62030742       1.60374957       0.41080704
15
Frame=12 idx=007153 GeodesicLength=0.766118150977813 rxn_smarts="[O:1]([C:2]1([C:3]([C:4](=[O:5])[H:11])([H:9])[H:10])[C:6]([H:12])([H:13])[C:7]1([H:14])[H:15])[H:8]>>[O:1]([C:2][C:7]([C:6]([C:3]([C:4](=[O:5])[H:11])([H:9])[H:10])([H:12])[H:13])([H:14])[H:15])[H:8]"
O       -0.01418530       0.32322932      -2.06213896
C       -0.11706560       0.56891847      -0.74306921
C        0.58406945      -0.31100985       0.85451149
C        2.02626557      -0.22783328       0.41972626
O        2.50053292      -0.61002706      -0.61685569
C       -1.23319692      -0.57544013       0.26542760
C       -1.51710739       0.78496031      -0.30067430
H        0.91607921       0.46514103      -2.27621316
H        0.44604699       0.44806660       1.63048737
H        0.62190096      -1.24351621       1.44771461
H        2.72290150       0.11783622       1.21217064
H       -1.70629457      -0.73181299       1.23009335
H       -1.40205036      -1.44093129      -0.36670776
H       -2.24113821       0.83028156      -1.10934964
H       -1.58675825       1.60213730       0.41487740
15
Frame=13 idx=007153 GeodesicLength=0.8299243953853047 rxn_smarts="[O:1]([C:2]1([C:3]([C:4](=[O:5])[H:11])([H:9])[H:10])[C:6]([H:12])([H:13])[C:7]1([H:14])[H:15])[H:8]>>[O:1]([C:2][C:7]([C:6]([C:3]([C:4](=[O:5])[H:11])([H:9])[H:10])([H:12])[H:13])([H:14])[H:15])[H:8]"
O       -0.01831237       0.33274503      -2.07912491
C       -0.11491682       0.54134748      -0.75282932
C        0.58312184      -0.31914515       0.86398167
C        2.02417896      -0.23406516       0.42664718
O        2.50126697      -0.65729734      -0.59262230
C       -1.23028981      -0.58605908       0.26311749
C       -1.50541440       0.78143260      -0.29868301
H        0.90195594       0.51768025      -2.30147415
H        0.43954473       0.44946452       1.62974992
H        0.62570260      -1.24042241       1.47300254
H        2.71697762       0.16481915       1.19687206
H       -1.71960682      -0.73822387       1.22073504
H       -1.41298710      -1.44952758      -0.36847853
H       -2.23904639       0.83706193      -1.09818658
H       -1.55217497       1.60018963       0.41729290
15
Frame=14 idx=007153 GeodesicLength=0.8936990653275946 rxn_smarts="[O:1]([C:2]1([C:3]([C:4](=[O:5])[H:11])([H:9])[H:10])[C:6]([H:12])([H:13])[C:7]1([H:14])[H:15])[H:8]>>[O:1]([C:2][C:7]([C:6]([C:3]([C:4](=[O:5])[H:11])([H:9])[H:10])([H:12])[H:13])([H:14])[H:15])[H:8]"
O       -0.02168015       0.34174091      -2.09583343
C       -0.11261509       0.51196174      -0.76322447
C        0.58214670      -0.32745115       0.87363895
C        2.02209301      -0.24105211       0.43375480
O        2.50253894      -0.70488497      -0.56615055
C       -1.22744328      -0.59700933       0.26123030
C       -1.49291975       0.77722139      -0.29738405
H        0.88522385       0.57572128      -2.32487351
H        0.43328926       0.45113065       1.62850685
H        0.62926136      -1.23671898       1.49899651
H        2.71000683       0.21066839       1.17847261
H       -1.73297224      -0.74364769       1.21167214
H       -1.42446023      -1.45859331      -0.36920107
H       -2.23599798       0.84303598      -1.08751747
H       -1.51647122       1.59787721       0.41791236
15
Frame=15 idx=007153 GeodesicLength=0.9574310189301691 rxn_smarts="[O:1]([C:2]1([C:3]([C:4](=[O:5])[H:11])([H:9])[H:10])[C:6]([H:12])([H:13])[C:7]1([H:14])[H:15])[H:8]>>[O:1]([C:2][C:7]([C:6]([C:3]([C:4](=[O:5])[H:11])([H:9])[H:10])([H:12])[H:13])([H:14])[H:15])[H:8]"
O       -0.02405871       0.35026064      -2.11221604
C       -0.11010341       0.48068902      -0.77428559
C        0.58115689      -0.33591468       0.88345992
C        2.02003255      -0.24881666       0.44106818
O        2.50441285      -0.75303746      -0.53721376
C       -1.22461431      -0.60830377       0.25970612
C       -1.47952061       0.77229525      -0.29686216
H        0.86509556       0.63943672      -2.34580259
H        0.42729807       0.45307990       1.62669062
H        0.63256071      -1.23231486       1.52569752
H        2.70192855       0.25543411       1.15671354
H       -1.74636698      -0.74806847       1.20281500
H       -1.43641958      -1.46811667      -0.36893211
H       -2.23184912       0.84821849      -1.07746033
H       -1.47955245       1.59515844       0.41662168
15
Frame=16 idx=007153 GeodesicLength=1.0211307174221218 rxn_smarts="[O:1]([C:2]1([C:3]([C:4](=[O:5])[H:11])([H:9])[H:10])[C:6]([H:12])([H:13])[C:7]1([H:14])[H:15])[H:8]>>[O:1]([C:2][C:7]([C:6]([C:3]([C:4](=[O:5])[H:11])([H:9])[H:10])([H:12])[H:13])([H:14])[H:15])[H:8]"
O       -0.02517422       0.35839899      -2.12817747
C       -0.10731772       0.44755636      -0.78602263
C        0.58017668      -0.34448566       0.89342852
C        2.01803904      -0.25738727       0.44860599
O        2.50693613      -0.80200303      -0.50552602
C       -1.22173832      -0.61995225       0.25844910
C       -1.46513843       0.76664305      -0.29721219
H        0.84064967       0.70883725      -2.36355755
H        0.42161596       0.45537867       1.62422352
H        0.63558276      -1.22708153       1.55312656
H        2.69275503       0.29905869       1.13128549
H       -1.75976052      -0.75151072       1.19401130
H       -1.44875480      -1.47808480      -0.36778346
H       -2.22647048       0.85263492      -1.06816594
H       -1.44140078       1.59199734       0.41331479
