8
Frame=0 idx=001017 GeodesicLength=0.0 rxn_smarts="[N:1]#[C:2][C@@:3]1([H:6])[C:4]([H:7])([H:8])[O:5]1>>[N:1]#[C:2][C@@:3]([C:4][H:7])([O:5][H:8])[H:6]"
N        2.48352645      -0.22422867       0.85697671
C        1.46189056      -0.00695042       0.38538231
C        0.17669041       0.28315209      -0.24220553
C       -0.83318673      -0.78905667      -0.39250104
O       -0.88038816       0.61691630       0.65783391
H        0.25752643       1.04942444      -1.00789625
H       -1.52399866      -0.52162610      -1.19803451
H       -1.14206028      -0.40763096       0.94044443
8
Frame=1 idx=001017 GeodesicLength=0.0463011632344773 rxn_smarts="[N:1]#[C:2][C@@:3]1([H:6])[C:4]([H:7])([H:8])[O:5]1>>[N:1]#[C:2][C@@:3]([C:4][H:7])([O:5][H:8])[H:6]"
N        2.47966961      -0.22497420       0.86171070
C        1.46040192      -0.00642212       0.38551432
C        0.17843197       0.28576745      -0.24688899
C       -0.83635742      -0.78195198      -0.39053405
O       -0.88263564       0.61568965       0.65025306
H        0.26198373       1.05102523      -1.01327165
H       -1.52725567      -0.52014981      -1.19750899
H       -1.13423850      -0.41898423       0.95072561
8
Frame=2 idx=001017 GeodesicLength=0.0926010371753048 rxn_smarts="[N:1]#[C:2][C@@:3]1([H:6])[C:4]([H:7])([H:8])[O:5]1>>[N:1]#[C:2][C@@:3]([C:4][H:7])([O:5][H:8])[H:6]"
N        2.47585567      -0.22566955       0.86632345
C        1.45890375      -0.00591740       0.38566182
C        0.18015659       0.28835750      -0.25149705
C       -0.83949521      -0.77486112      -0.38848909
O       -0.88476332       0.61452829       0.64285649
H        0.26641624       1.05257828      -1.01858330
H       -1.53043999      -0.51874505      -1.19691915
H       -1.12663373      -0.43027095       0.96064684
8
Frame=3 idx=001017 GeodesicLength=0.1389012765636431 rxn_smarts="[N:1]#[C:2][C@@:3]1([H:6])[C:4]([H:7])([H:8])[O:5]1>>[N:1]#[C:2][C@@:3]([C:4][H:7])([O:5][H:8])[H:6]"
N        2.47209095      -0.22630705       0.87081909
C        1.45739439      -0.00544111       0.38583097
C        0.18186527       0.29092204      -0.25603311
C       -0.84260146      -0.76777972      -0.38637209
O       -0.88678022       0.61344928       0.63563117
H        0.27083222       1.05407801      -1.02384316
H       -1.53355961      -0.51739974      -1.19626491
H       -1.11924154      -0.44152171       0.97023203
8
Frame=4 idx=001017 GeodesicLength=0.18519747194942127 rxn_smarts="[N:1]#[C:2][C@@:3]1([H:6])[C:4]([H:7])([H:8])[O:5]1>>[N:1]#[C:2][C@@:3]([C:4][H:7])([O:5][H:8])[H:6]"
N        2.46838171      -0.22687544       0.87520642
C        1.45587334      -0.00499806       0.38602785
C        0.18355863       0.29346035      -0.26049904
C       -0.84568411      -0.76070423      -0.38418934
O       -0.88868682       0.61246897       0.62856237
H        0.27523865       1.05551738      -1.02905737
H       -1.53663065      -0.51610386      -1.19554625
H       -1.11205075      -0.45276510       0.97949537
8
Frame=5 idx=001017 GeodesicLength=0.23148114018678345 rxn_smarts="[N:1]#[C:2][C@@:3]1([H:6])[C:4]([H:7])([H:8])[O:5]1>>[N:1]#[C:2][C@@:3]([C:4][H:7])([O:5][H:8])[H:6]"
N        2.46470367      -0.22739177       0.87949405
C        1.45433340      -0.00457035       0.38624775
C        0.18523815       0.29597831      -0.26490497
C       -0.84873397      -0.75362696      -0.38194056
O       -0.89049257       0.61159401       0.62163775
H        0.27964359       1.05689681      -1.03424227
H       -1.53965031      -0.51485168      -1.19474713
H       -1.10504196      -0.46402837       0.98845538
8
Frame=6 idx=001017 GeodesicLength=0.2777721752788206 rxn_smarts="[N:1]#[C:2][C@@:3]1([H:6])[C:4]([H:7])([H:8])[O:5]1>>[N:1]#[C:2][C@@:3]([C:4][H:7])([O:5][H:8])[H:6]"
N        2.46109152      -0.22786702       0.88360151
C        1.45275478      -0.00413097       0.38654863
C        0.18690485       0.29847824      -0.26922569
C       -0.85175197      -0.74653857      -0.37961650
O       -0.89222599       0.61084265       0.61481926
H        0.28407104       1.05819146      -1.03937116
H       -1.54259754      -0.51365023      -1.19386676
H       -1.09824670      -0.47532557       0.99711071
8
Frame=7 idx=001017 GeodesicLength=0.32405622054727895 rxn_smarts="[N:1]#[C:2][C@@:3]1([H:6])[C:4]([H:7])([H:8])[O:5]1>>[N:1]#[C:2][C@@:3]([C:4][H:7])([O:5][H:8])[H:6]"
N        2.45754382      -0.22829797       0.88759249
C        1.45115066      -0.00369858       0.38691439
C        0.18855624       0.30096263      -0.27348351
C       -0.85474360      -0.73944758      -0.37723202
O       -0.89387734       0.61023698       0.60812170
H        0.28850343       1.05942160      -1.04448664
H       -1.54550452      -0.51249099      -1.19292255
H       -1.09162868      -0.48668609       1.00549613
8
Frame=8 idx=001017 GeodesicLength=0.37032995648457384 rxn_smarts="[N:1]#[C:2][C@@:3]1([H:6])[C:4]([H:7])([H:8])[O:5]1>>[N:1]#[C:2][C@@:3]([C:4][H:7])([O:5][H:8])[H:6]"
N        2.45403148      -0.22867428       0.89149648
C        1.44952252      -0.00327128       0.38732024
C        0.19019574       0.30343082      -0.27768722
C       -0.85771299      -0.73233960      -0.37478660
O       -0.89544375       0.60977663       0.60152631
H        0.29295226       1.06057559      -1.04958967
H       -1.54838672      -0.51135940      -1.19188779
H       -1.08515855      -0.49813849       1.01360824
8
Frame=9 idx=001017 GeodesicLength=0.4166048676758207 rxn_smarts="[N:1]#[C:2][C@@:3]1([H:6])[C:4]([H:7])([H:8])[O:5]1>>[N:1]#[C:2][C@@:3]([C:4][H:7])([O:5][H:8])[H:6]"
N        2.45053864      -0.22898867       0.89534577
C        1.44787337      -0.00285183       0.38775112
C        0.19182431       0.30588439      -0.28184793
C       -0.86066468      -0.72520908      -0.37228546
O       -0.89692244       0.60946983       0.59502771
H        0.29742135       1.06164957      -1.05469890
H       -1.55126004      -0.51024078      -1.19075724
H       -1.07881051      -0.50971342       1.02146493
8
Frame=10 idx=001017 GeodesicLength=0.4628880211226518 rxn_smarts="[N:1]#[C:2][C@@:3]1([H:6])[C:4]([H:7])([H:8])[O:5]1>>[N:1]#[C:2][C@@:3]([C:4][H:7])([O:5][H:8])[H:6]"
N        2.44705489      -0.22922503       0.89917409
C        1.44620612      -0.00245122       0.38819580
C        0.19344325       0.30832147      -0.28597604
C       -0.86360566      -0.71805065      -0.36973316
O       -0.89830916       0.60932758       0.58862008
H        0.30191441       1.06263836      -1.05983063
H       -1.55414739      -0.50911841      -1.18952297
H       -1.07255645      -0.52144210       1.02907283
8
Frame=11 idx=001017 GeodesicLength=0.5091591628320422 rxn_smarts="[N:1]#[C:2][C@@:3]1([H:6])[C:4]([H:7])([H:8])[O:5]1>>[N:1]#[C:2][C@@:3]([C:4][H:7])([O:5][H:8])[H:6]"
N        2.44357121      -0.22937412       0.90298662
C        1.44451828      -0.00206428       0.38865258
C        0.19505453       0.31074026      -0.29007323
C       -0.86654018      -0.71085257      -0.36712875
O       -0.89960328       0.60934858       0.58229483
H        0.30644155       1.06352620      -1.06498820
H       -1.55705509      -0.50798061      -1.18817149
H       -1.06638702      -0.53334347       1.03642763
8
Frame=12 idx=001017 GeodesicLength=0.5554343226721005 rxn_smarts="[N:1]#[C:2][C@@:3]1([H:6])[C:4]([H:7])([H:8])[O:5]1>>[N:1]#[C:2][C@@:3]([C:4][H:7])([O:5][H:8])[H:6]"
N        2.44009659      -0.22945592       0.90675263
C        1.44280151      -0.00166968       0.38914599
C        0.19665755       0.31314643      -0.29413037
C       -0.86946656      -0.70361279      -0.36446200
O       -0.90082041       0.60955296       0.57603588
H        0.31100589       1.06430654      -1.07017109
H       -1.55996648      -0.50683353      -1.18670633
H       -1.06030808      -0.54543401       1.04353529
8
Frame=13 idx=001017 GeodesicLength=0.6017111576348741 rxn_smarts="[N:1]#[C:2][C@@:3]1([H:6])[C:4]([H:7])([H:8])[O:5]1>>[N:1]#[C:2][C@@:3]([C:4][H:7])([O:5][H:8])[H:6]"
N        2.43662429      -0.22947235       0.91050516
C        1.44106181      -0.00126939       0.38966769
C        0.19825136       0.31554327      -0.29815818
C       -0.87238778      -0.69632805      -0.36173461
O       -0.90195863       0.60995625       0.56984562
H        0.31560197       1.06498224      -1.07540224
H       -1.56289789      -0.50567212      -1.18512824
H       -1.05429512      -0.55773986       1.05040481
8
Frame=14 idx=001017 GeodesicLength=0.6479916921049738 rxn_smarts="[N:1]#[C:2][C@@:3]1([H:6])[C:4]([H:7])([H:8])[O:5]1>>[N:1]#[C:2][C@@:3]([C:4][H:7])([O:5][H:8])[H:6]"
N        2.43314419      -0.22941688       0.91426682
C        1.43930271      -0.00086445       0.39020874
C        0.19983634       0.31793047      -0.30216318
C       -0.87530786      -0.68898795      -0.35894394
O       -0.90302114       0.61056556       0.56371624
H        0.32023249       1.06554341      -1.08069274
H       -1.56586116      -0.50448384      -1.18342736
H       -1.04832558      -0.57028631       1.05703540
8
Frame=15 idx=001017 GeodesicLength=0.694269236230686 rxn_smarts="[N:1]#[C:2][C@@:3]1([H:6])[C:4]([H:7])([H:8])[O:5]1>>[N:1]#[C:2][C@@:3]([C:4][H:7])([O:5][H:8])[H:6]"
N        2.42963883      -0.22927823       0.91804508
C        1.43751794      -0.00045340       0.39076478
C        0.20141548       0.32030676      -0.30614730
C       -0.87823271      -0.68158590      -0.35608918
O       -0.90399614       0.61138744       0.55764079
H        0.32490799       1.06598098      -1.08604536
H       -1.56886378      -0.50326238      -1.18158988
H       -1.04238761      -0.58309528       1.06342107
8
Frame=16 idx=001017 GeodesicLength=0.7405408175893701 rxn_smarts="[N:1]#[C:2][C@@:3]1([H:6])[C:4]([H:7])([H:8])[O:5]1>>[N:1]#[C:2][C@@:3]([C:4][H:7])([O:5][H:8])[H:6]"
N        2.42614026      -0.22905573       0.92178488
C        1.43569209      -0.00002448       0.39137815
C        0.20298829       0.32266924      -0.31009387
C       -0.88116807      -0.67411365      -0.35315534
O       -0.90490075       0.61243750       0.55159788
H        0.32964170       1.06627590      -1.09144072
H       -1.57189048      -0.50201366      -1.17961775
H       -1.03650304      -0.59617513       1.06954677
