19
Frame=0 idx=010055 GeodesicLength=0.0 rxn_smarts="[C:1]([C:2]([C@@:3]1([H:13])[C:4]([H:14])([H:15])[C@:5]1([C:6]([O:7][H:19])([H:17])[H:18])[H:16])([H:11])[H:12])([H:8])([H:9])[H:10]>>[C:1]([C:2]([C:3][C@@:5]([C:4]([H:13])([H:14])[H:15])([C:6]([O:7][H:19])([H:17])[H:18])[H:16])([H:11])[H:12])([H:8])([H:9])[H:10]"
C       -2.19181396      -0.15575644       0.96074768
C       -1.30529472       0.77652216       0.13090697
C       -0.69452934      -0.07559482      -0.96519590
C        0.96071922       0.68333119      -1.40065149
C        0.65053048      -0.63144587      -0.68337901
C        1.23517503      -0.79734362       0.70531794
O        2.62460467      -1.06857108       0.67306792
H       -2.91367035      -0.66871798       0.32383811
H       -2.73825997       0.41020621       1.71617081
H       -1.60292162      -0.91706683       1.47661561
H       -0.60118673       1.28969977       0.79944119
H       -1.93799900       1.54511704      -0.31880335
H       -0.09555428       0.96805146      -1.83392041
H        1.50731583       0.57067043      -2.33187404
H        1.31465141       1.48133609      -0.75398968
H        0.90712363      -1.49559076      -1.29500972
H        1.02434680       0.07258841       1.33648891
H        0.78381717      -1.66775847       1.18442623
H        3.07294577      -0.31967683       0.27580216
19
Frame=1 idx=010055 GeodesicLength=0.05249686395138313 rxn_smarts="[C:1]([C:2]([C@@:3]1([H:13])[C:4]([H:14])([H:15])[C@:5]1([C:6]([O:7][H:19])([H:17])[H:18])[H:16])([H:11])[H:12])([H:8])([H:9])[H:10]>>[C:1]([C:2]([C:3][C@@:5]([C:4]([H:13])([H:14])[H:15])([C:6]([O:7][H:19])([H:17])[H:18])[H:16])([H:11])[H:12])([H:8])([H:9])[H:10]"
C       -2.19538929      -0.15681334       0.96024880
C       -1.30657665       0.77920128       0.13649654
C       -0.69179054      -0.06682773      -0.95948895
C        0.96198069       0.68259851      -1.40111350
C        0.65067443      -0.63067632      -0.68187332
C        1.23800140      -0.79643662       0.70550852
O        2.62731314      -1.06758495       0.66923922
H       -2.91715629      -0.66547901       0.31979389
H       -2.74198178       0.40584760       1.71802097
H       -1.60744583      -0.92106880       1.47285432
H       -0.60271905       1.28873282       0.80776113
H       -1.93810387       1.55002527      -0.31114237
H       -0.10347588       0.95615343      -1.85831069
H        1.52579511       0.56539351      -2.32138907
H        1.30992771       1.48439237      -0.75560708
H        0.90028281      -1.49611997      -1.29437232
H        1.02901800       0.07382758       1.33690992
H        0.78730099      -1.66636191       1.18616266
H        3.07434489      -0.31880373       0.27030133
19
Frame=2 idx=010055 GeodesicLength=0.10498951800278568 rxn_smarts="[C:1]([C:2]([C@@:3]1([H:13])[C:4]([H:14])([H:15])[C@:5]1([C:6]([O:7][H:19])([H:17])[H:18])[H:16])([H:11])[H:12])([H:8])([H:9])[H:10]>>[C:1]([C:2]([C:3][C@@:5]([C:4]([H:13])([H:14])[H:15])([C:6]([O:7][H:19])([H:17])[H:18])[H:16])([H:11])[H:12])([H:8])([H:9])[H:10]"
C       -2.19898073      -0.15786311       0.95963435
C       -1.30779898       0.78195571       0.14220272
C       -0.68895092      -0.05782448      -0.95374393
C        0.96327293       0.68192514      -1.40158778
C        0.65081373      -0.62983480      -0.68032373
C        1.24086796      -0.79547975       0.70571443
O        2.63003405      -1.06662157       0.66537153
H       -2.92060918      -0.66210443       0.31552622
H       -2.74576351       0.40138081       1.71978810
H       -1.61201936      -0.92513157       1.46887531
H       -0.60421762       1.28772258       0.81628438
H       -1.93807531       1.55508718      -0.30331019
H       -0.11149947       0.94320585      -1.88276922
H        1.54390014       0.56037512      -2.31072507
H        1.30530062       1.48746975      -0.75729773
H        0.89336062      -1.49654830      -1.29367963
H        1.03379564       0.07513689       1.33733632
H        0.79079344      -1.66488766       1.18793022
H        3.07577595      -0.31796336       0.26477370
19
Frame=3 idx=010055 GeodesicLength=0.15748171258121246 rxn_smarts="[C:1]([C:2]([C@@:3]1([H:13])[C:4]([H:14])([H:15])[C@:5]1([C:6]([O:7][H:19])([H:17])[H:18])[H:16])([H:11])[H:12])([H:8])([H:9])[H:10]>>[C:1]([C:2]([C:3][C@@:5]([C:4]([H:13])([H:14])[H:15])([C:6]([O:7][H:19])([H:17])[H:18])[H:16])([H:11])[H:12])([H:8])([H:9])[H:10]"
C       -2.20258317      -0.15890495       0.95889380
C       -1.30896061       0.78478702       0.14802583
C       -0.68600847      -0.04857159      -0.94796342
C        0.96459575       0.68131551      -1.40207062
C        0.65094583      -0.62891345      -0.67872799
C        1.24377567      -0.79447003       0.70593632
O        2.63276663      -1.06568325       0.66146754
H       -2.92402102      -0.65858905       0.31102197
H       -2.74960147       0.39680049       1.72146017
H       -1.61663471      -0.92925386       1.46466397
H       -0.60568202       1.28666627       0.82501257
H       -1.93791701       1.56030463      -0.29529854
H       -0.11964376       0.92917552      -1.90725390
H        1.56161407       0.55561326      -2.29990294
H        1.30078528       1.49056527      -0.75905590
H        0.88635096      -1.49686750      -1.29292636
H        1.03868393       0.07651779       1.33776846
H        0.79429485      -1.66333079       1.18972708
H        3.07723926      -0.31716130       0.25922196
19
Frame=4 idx=010055 GeodesicLength=0.2099486253744441 rxn_smarts="[C:1]([C:2]([C@@:3]1([H:13])[C:4]([H:14])([H:15])[C@:5]1([C:6]([O:7][H:19])([H:17])[H:18])[H:16])([H:11])[H:12])([H:8])([H:9])[H:10]>>[C:1]([C:2]([C:3][C@@:5]([C:4]([H:13])([H:14])[H:15])([C:6]([O:7][H:19])([H:17])[H:18])[H:16])([H:11])[H:12])([H:8])([H:9])[H:10]"
C       -2.20618519      -0.15994318       0.95803037
C       -1.31006269       0.78769756       0.15396125
C       -0.68295238      -0.03905298      -0.94215788
C        0.96596620       0.68078064      -1.40256282
C        0.65107103      -0.62790240      -0.67709099
C        1.24670865      -0.79340570       0.70617326
O        2.63549043      -1.06478076       0.65753280
H       -2.92736089      -0.65496397       0.30629096
H       -2.75350015       0.39210012       1.72303205
H       -1.62127496      -0.93342133       1.46023701
H       -0.60711944       1.28557718       0.83393329
H       -1.93764369       1.56566690      -0.28710902
H       -0.12790554       0.91405293      -1.93170895
H        1.57892386       0.55110811      -2.28896736
H        1.29641621       1.49368162      -0.76087725
H        0.87925792      -1.49706520      -1.29211868
H        1.04366778       0.07797315       1.33820545
H        0.79777681      -1.66168861       1.19154917
H        3.07872604      -0.31641408       0.25364733
19
Frame=5 idx=010055 GeodesicLength=0.2624078189976457 rxn_smarts="[C:1]([C:2]([C@@:3]1([H:13])[C:4]([H:14])([H:15])[C@:5]1([C:6]([O:7][H:19])([H:17])[H:18])[H:16])([H:11])[H:12])([H:8])([H:9])[H:10]>>[C:1]([C:2]([C:3][C@@:5]([C:4]([H:13])([H:14])[H:15])([C:6]([O:7][H:19])([H:17])[H:18])[H:16])([H:11])[H:12])([H:8])([H:9])[H:10]"
C       -2.20979586      -0.16097635       0.95702266
C       -1.31110273       0.79068771       0.16001895
C       -0.67978371      -0.02925386      -0.93631935
C        0.96738104       0.68031820      -1.40306029
C        0.65118589      -0.62679283      -0.67540287
C        1.24967998      -0.79227657       0.70642377
O        2.63822065      -1.06390063       0.65355701
H       -2.93064969      -0.65119048       0.30130186
H       -2.75745917       0.38726595       1.72449215
H       -1.62595420      -0.93765173       1.45554393
H       -0.60852568       1.28443618       0.84306463
H       -1.93724669       1.57118701      -0.27871257
H       -0.13631506       0.89778739      -1.95608622
H        1.59582539       0.54683264      -2.27792692
H        1.29220527       1.49681238      -0.76276242
H        0.87206536      -1.49713776      -1.29123588
H        1.04876383       0.07950965       1.33864451
H        0.80125869      -1.65994784       1.19339532
H        3.08024669      -0.31570905       0.24804172
19
Frame=6 idx=010055 GeodesicLength=0.31486150610186336 rxn_smarts="[C:1]([C:2]([C@@:3]1([H:13])[C:4]([H:14])([H:15])[C@:5]1([C:6]([O:7][H:19])([H:17])[H:18])[H:16])([H:11])[H:12])([H:8])([H:9])[H:10]>>[C:1]([C:2]([C:3][C@@:5]([C:4]([H:13])([H:14])[H:15])([C:6]([O:7][H:19])([H:17])[H:18])[H:16])([H:11])[H:12])([H:8])([H:9])[H:10]"
C       -2.21341231      -0.16200866       0.95586512
C       -1.31207941       0.79376156       0.16619896
C       -0.67649613      -0.01916253      -0.93045771
C        0.96884633       0.67993681      -1.40357001
C        0.65128968      -0.62558023      -0.67366541
C        1.25268752      -0.79108139       0.70669377
O        2.64095269      -1.06304766       0.64954766
H       -2.93388075      -0.64726943       0.29604276
H       -2.76147768       0.38228952       1.72584034
H       -1.63066973      -0.94195440       1.45057559
H       -0.60990344       1.28324730       0.85241220
H       -1.93672806       1.57687375      -0.27010261
H       -0.14488904       0.88035908      -1.98034148
H        1.61231125       0.54278384      -2.26682379
H        1.28817298       1.49996606      -0.76471225
H        0.86476949      -1.49708667      -1.29027900
H        1.05397162       0.08113357       1.33909395
H        0.80473528      -1.65811005       1.19527489
H        3.08179969      -0.31505046       0.24240701
19
Frame=7 idx=010055 GeodesicLength=0.367306301367516 rxn_smarts="[C:1]([C:2]([C@@:3]1([H:13])[C:4]([H:14])([H:15])[C@:5]1([C:6]([O:7][H:19])([H:17])[H:18])[H:16])([H:11])[H:12])([H:8])([H:9])[H:10]>>[C:1]([C:2]([C:3][C@@:5]([C:4]([H:13])([H:14])[H:15])([C:6]([O:7][H:19])([H:17])[H:18])[H:16])([H:11])[H:12])([H:8])([H:9])[H:10]"
C       -2.21703185      -0.16304140       0.95454568
C       -1.31299153       0.79691878       0.17250200
C       -0.67308479      -0.00876438      -0.92457446
C        0.97036797       0.67963909      -1.40408989
C        0.65138036      -0.62425505      -0.67187538
C        1.25573044      -0.78981300       0.70698213
O        2.64368379      -1.06222049       0.64550282
H       -2.93704837      -0.64319432       0.29050065
H       -2.76555455       0.37715976       1.72706522
H       -1.63541839      -0.94633092       1.44531018
H       -0.61125417       1.28200525       0.86197673
H       -1.93609064       1.58272629      -0.26126591
H       -0.15364964       0.86174388      -2.00440891
H        1.62837505       0.53894608      -2.25568357
H        1.28434167       1.50313944      -0.76672470
H        0.85736274      -1.49690360      -1.28923813
H        1.05929362       0.08285097       1.33955044
H        0.80820263      -1.65616413       1.19718668
H        3.08338565      -0.31444227       0.23673841
19
Frame=8 idx=010055 GeodesicLength=0.41974172141878435 rxn_smarts="[C:1]([C:2]([C@@:3]1([H:13])[C:4]([H:14])([H:15])[C@:5]1([C:6]([O:7][H:19])([H:17])[H:18])[H:16])([H:11])[H:12])([H:8])([H:9])[H:10]>>[C:1]([C:2]([C:3][C@@:5]([C:4]([H:13])([H:14])[H:15])([C:6]([O:7][H:19])([H:17])[H:18])[H:16])([H:11])[H:12])([H:8])([H:9])[H:10]"
C       -2.22065159      -0.16407650       0.95305293
C       -1.31383801       0.80015987       0.17892783
C       -0.66954443       0.00195411      -0.91867357
C        0.97195188       0.67942877      -1.40462060
C        0.65145635      -0.62280918      -0.67003090
C        1.25880810      -0.78846574       0.70728963
O        2.64641134      -1.06141979       0.64142318
H       -2.94014627      -0.63896072       0.28466199
H       -2.76968887       0.37186632       1.72815680
H       -1.64019644      -0.95078442       1.43972809
H       -0.61257995       1.28070704       0.87175950
H       -1.93533769       1.58874599      -0.25219124
H       -0.16262290       0.84192332      -2.02822186
H        1.64401238       0.53530468      -2.24453614
H        1.28073327       1.50633252      -0.76879883
H        0.84983847      -1.49658347      -1.28810566
H        1.06473216       0.08466835       1.34001359
H        0.81165699      -1.65410208       1.19913251
H        3.08500520      -0.31388909       0.23103273
19
Frame=9 idx=010055 GeodesicLength=0.47216757171516544 rxn_smarts="[C:1]([C:2]([C@@:3]1([H:13])[C:4]([H:14])([H:15])[C@:5]1([C:6]([O:7][H:19])([H:17])[H:18])[H:16])([H:11])[H:12])([H:8])([H:9])[H:10]>>[C:1]([C:2]([C:3][C@@:5]([C:4]([H:13])([H:14])[H:15])([C:6]([O:7][H:19])([H:17])[H:18])[H:16])([H:11])[H:12])([H:8])([H:9])[H:10]"
C       -2.22426852      -0.16511594       0.95137462
C       -1.31461765       0.80348469       0.18547539
C       -0.66586961       0.01300554      -0.91275908
C        0.97360412       0.67930888      -1.40516314
C        0.65151625      -0.62123480      -0.66812998
C        1.26192018      -0.78703368       0.70761724
O        2.64913292      -1.06064625       0.63730968
H       -2.94316831      -0.63456357       0.27851262
H       -2.77387918       0.36639868       1.72910435
H       -1.64500005      -0.95531826       1.43380821
H       -0.61388302       1.27934906       0.88176101
H       -1.93447231       1.59493361      -0.24286784
H       -0.17183913       0.82088345      -2.05170837
H        1.65922052       0.53184358      -2.23341133
H        1.27736957       1.50954519      -0.77093420
H        0.84219016      -1.49612168      -1.28687326
H        1.07029003       0.08659277       1.34048274
H        0.81509481      -1.65191524       1.20111504
H        3.08665922      -0.31339604       0.22528631
19
Frame=10 idx=010055 GeodesicLength=0.5245840877892677 rxn_smarts="[C:1]([C:2]([C@@:3]1([H:13])[C:4]([H:14])([H:15])[C@:5]1([C:6]([O:7][H:19])([H:17])[H:18])[H:16])([H:11])[H:12])([H:8])([H:9])[H:10]>>[C:1]([C:2]([C:3][C@@:5]([C:4]([H:13])([H:14])[H:15])([C:6]([O:7][H:19])([H:17])[H:18])[H:16])([H:11])[H:12])([H:8])([H:9])[H:10]"
C       -2.22788000      -0.16616167       0.94949732
C       -1.31532877       0.80689238       0.19214334
C       -0.66205451       0.02440129      -0.90683457
C        0.97533090       0.67928173      -1.40571866
C        0.65155922      -0.61952440      -0.66617035
C        1.26506704      -0.78551068       0.70796622
O        2.65184674      -1.05990034       0.63316359
H       -2.94610872      -0.62999678       0.27203693
H       -2.77812474       0.36074637       1.72989536
H       -1.64982596      -0.95993589       1.42752784
H       -0.61516545       1.27792639       0.89198199
H       -1.93349635       1.60128966      -0.23328497
H       -0.18133393       0.79861443      -2.07479098
H        1.67399681       0.52854519      -2.22234014
H        1.27427252       1.51277737      -0.77313101
H        0.83441210      -1.49551409      -1.28553180
H        1.07597083       0.08863180       1.34095721
H        0.81851320      -1.64959437       1.20313777
H        3.08834909      -0.31296839       0.21949492
19
Frame=11 idx=010055 GeodesicLength=0.5769916936010706 rxn_smarts="[C:1]([C:2]([C@@:3]1([H:13])[C:4]([H:14])([H:15])[C@:5]1([C:6]([O:7][H:19])([H:17])[H:18])[H:16])([H:11])[H:12])([H:8])([H:9])[H:10]>>[C:1]([C:2]([C:3][C@@:5]([C:4]([H:13])([H:14])[H:15])([C:6]([O:7][H:19])([H:17])[H:18])[H:16])([H:11])[H:12])([H:8])([H:9])[H:10]"
C       -2.23148328      -0.16721561       0.94740679
C       -1.31596951       0.81038135       0.19892939
C       -0.65809308       0.03615149      -0.90090357
C        0.97713852       0.67934883      -1.40628851
C        0.65158473      -0.61767088      -0.66414969
C        1.26824936      -0.78389037       0.70833796
O        2.65455125      -1.05918265       0.62898640
H       -2.94896177      -0.62525355       0.26521885
H       -2.78242425       0.35489888       1.73051645
H       -1.65467078      -0.96464074       1.42086282
H       -0.61642950       1.27643339       0.90242223
H       -1.93241139       1.60781381      -0.22343262
H       -0.19114810       0.77511163      -2.09738717
H        1.68834084       0.52539067      -2.21135271
H        1.27146348       1.51602883      -0.77539003
H        0.82649895      -1.49475710      -1.28407152
H        1.08177860       0.09079346       1.34143595
H        0.82190951      -1.64712956       1.20520499
H        3.09007641      -0.31261190       0.21365399
19
Frame=12 idx=010055 GeodesicLength=0.6293912520327193 rxn_smarts="[C:1]([C:2]([C@@:3]1([H:13])[C:4]([H:14])([H:15])[C@:5]1([C:6]([O:7][H:19])([H:17])[H:18])[H:16])([H:11])[H:12])([H:8])([H:9])[H:10]>>[C:1]([C:2]([C:3][C@@:5]([C:4]([H:13])([H:14])[H:15])([C:6]([O:7][H:19])([H:17])[H:18])[H:16])([H:11])[H:12])([H:8])([H:9])[H:10]"
C       -2.23507535      -0.16827955       0.94508804
C       -1.31653789       0.81394919       0.20583028
C       -0.65397898       0.04826494      -0.89496959
C        0.97903355       0.67951091      -1.40687418
C        0.65159266      -0.61566754      -0.66206572
C        1.27146818      -0.78216639       0.70873390
O        2.65724515      -1.05849384       0.62477988
H       -2.95172174      -0.62032666       0.25804218
H       -2.78677590       0.34884590       1.73095330
H       -1.65953085      -0.96943592       1.41378795
H       -0.61767756       1.27486379       0.91308037
H       -1.93121878       1.61450465      -0.21330189
H       -0.20132818       0.75037604      -2.11940964
H        1.70225456       0.52235992      -2.20047811
H        1.26896317       1.51929934      -0.77771255
H        0.81844594      -1.49384760      -1.28248221
H        1.08771767       0.09308602       1.34191759
H        0.82528139      -1.64451058       1.20732150
H        3.09184298      -0.31233264       0.20775890
19
Frame=13 idx=010055 GeodesicLength=0.6817840911310173 rxn_smarts="[C:1]([C:2]([C@@:3]1([H:13])[C:4]([H:14])([H:15])[C@:5]1([C:6]([O:7][H:19])([H:17])[H:18])[H:16])([H:11])[H:12])([H:8])([H:9])[H:10]>>[C:1]([C:2]([C:3][C@@:5]([C:4]([H:13])([H:14])[H:15])([C:6]([O:7][H:19])([H:17])[H:18])[H:16])([H:11])[H:12])([H:8])([H:9])[H:10]"
C       -2.23865312      -0.16935517       0.94252534
C       -1.31703174       0.81759265       0.21284173
C       -0.64970563       0.06074888      -0.88903598
C        0.98102271       0.67976790      -1.40747723
C        0.65158340      -0.61350822      -0.65991617
C        1.27472491      -0.78033231       0.70915562
O        2.65992742      -1.05783478       0.62054607
H       -2.95438282      -0.61520843       0.25049036
H       -2.79117767       0.34257734       1.73119038
H       -1.66440234      -0.97432413       1.40627703
H       -0.61891220       1.27321052       0.92395408
H       -1.92991936       1.62135979      -0.20288488
H       -0.21192679       0.72441418      -2.14076671
H        1.71574231       0.51943198      -2.18974386
H        1.26679133       1.52258867      -0.78010041
H        0.81024902      -1.49278301      -1.28075327
H        1.09379285       0.09551805       1.34240042
H        0.82862683      -1.64172663       1.20949279
H        3.09365091      -0.31213730       0.20180470
19
Frame=14 idx=010055 GeodesicLength=0.734172016218721 rxn_smarts="[C:1]([C:2]([C@@:3]1([H:13])[C:4]([H:14])([H:15])[C@:5]1([C:6]([O:7][H:19])([H:17])[H:18])[H:16])([H:11])[H:12])([H:8])([H:9])[H:10]>>[C:1]([C:2]([C:3][C@@:5]([C:4]([H:13])([H:14])[H:15])([C:6]([O:7][H:19])([H:17])[H:18])[H:16])([H:11])[H:12])([H:8])([H:9])[H:10]"
C       -2.24221323      -0.17044381       0.93970243
C       -1.31744867       0.82130766       0.21995833
C       -0.64526614       0.07360873      -0.88310593
C        0.98311287       0.68011909      -1.40809918
C        0.65155797      -0.61118732      -0.65769901
C        1.27802130      -0.77838203       0.70960464
O        2.66259736      -1.05720643       0.61628740
H       -2.95693903      -0.60989080       0.24254705
H       -2.79562703       0.33608385       1.73121120
H       -1.66928112      -0.97930728       1.39830327
H       -0.62013603       1.27146585       0.93503968
H       -1.92851359       1.62837559      -0.19217533
H       -0.22300292       0.69723771      -2.16136289
H        1.72881074       0.51658558      -2.17917570
H        1.26496661       1.52589663      -0.78255575
H        0.80190532      -1.49156111      -1.27887415
H        1.10000899       0.09809783       1.34288252
H        0.83194418      -1.63876716       1.21172450
H        3.09550242      -0.31203260       0.19578691
19
Frame=15 idx=010055 GeodesicLength=0.7865574723497134 rxn_smarts="[C:1]([C:2]([C@@:3]1([H:13])[C:4]([H:14])([H:15])[C@:5]1([C:6]([O:7][H:19])([H:17])[H:18])[H:16])([H:11])[H:12])([H:8])([H:9])[H:10]>>[C:1]([C:2]([C:3][C@@:5]([C:4]([H:13])([H:14])[H:15])([C:6]([O:7][H:19])([H:17])[H:18])[H:16])([H:11])[H:12])([H:8])([H:9])[H:10]"
C       -2.24575221      -0.17154653       0.93660241
C       -1.31778605       0.82508926       0.22717359
C       -0.64065335       0.08684808      -0.87718239
C        0.98531093       0.68056307      -1.40874149
C        0.65151809      -0.60869986      -0.65541234
C        1.28135955      -0.77630962       0.71008255
O        2.66525469      -1.05660985       0.61200661
H       -2.95938469      -0.60436470       0.23419587
H       -2.80012082       0.32935662       1.73099838
H       -1.67416301      -0.98438695       1.38983869
H       -0.62135174       1.26962122       0.94633235
H       -1.92700125       1.63554730      -0.18116837
H       -0.23462218       0.66886291      -2.18109925
H        1.74146910       0.51379935      -2.16879685
H        1.26350620       1.52922310      -0.78508117
H        0.79341317      -1.49018012      -1.27683421
H        1.10637125       0.10083360       1.34336165
H        0.83523233      -1.63562147       1.21402271
H        3.09740000      -0.31202542       0.18970127
19
Frame=16 idx=010055 GeodesicLength=0.8389437440908465 rxn_smarts="[C:1]([C:2]([C@@:3]1([H:13])[C:4]([H:14])([H:15])[C@:5]1([C:6]([O:7][H:19])([H:17])[H:18])[H:16])([H:11])[H:12])([H:8])([H:9])[H:10]>>[C:1]([C:2]([C:3][C@@:5]([C:4]([H:13])([H:14])[H:15])([C:6]([O:7][H:19])([H:17])[H:18])[H:16])([H:11])[H:12])([H:8])([H:9])[H:10]"
C       -2.24926652      -0.17266405       0.93320770
C       -1.31804101       0.82893176       0.23448011
C       -0.63585980       0.10046881      -0.87126793
C        0.98762389       0.68109796      -1.40940553
C        0.65146620      -0.60604137      -0.65305442
C        1.28474235      -0.77410925       0.71059098
O        2.66789957      -1.05604614       0.60770675
H       -2.96171432      -0.59862011       0.22542026
H       -2.80465547       0.32238715       1.73053368
H       -1.67904389      -0.98956438       1.38085398
H       -0.62256203       1.26766718       0.95782642
H       -1.92538135       1.64286921      -0.16986046
H       -0.24685677       0.63930963      -2.19987389
H        1.75372887       0.51105203      -2.15862811
H        1.26242589       1.53256818      -0.78767963
H        0.78477209      -1.48863858      -1.27462279
H        1.11288515       0.10373356       1.34383543
H        0.83849069      -1.63227877       1.21639384
H        3.09934647      -0.31212281       0.18354362
