11
Frame=0 idx=004110 GeodesicLength=0.0 rxn_smarts="[C:1]([c:2]1[c:3]([H:10])[n:4][n:5][n:6]1[H:11])([H:7])([H:8])[H:9]>>[C:1]([C@@:2]1([H:11])[C:3]([H:10])=[N:4][N:5]=[N:6]1)([H:7])([H:8])[H:9]"
C       -1.47621558      -0.15889443       0.10861206
C        0.00825604      -0.07173510      -0.03430984
C        0.89195166       1.00819174      -0.02513563
N        2.12242612       0.55408173       0.16443362
N        2.08729858      -0.76380953       0.24540119
N        0.85304745      -1.21436635       0.18114900
H       -1.97500742       0.56586757      -0.53368518
H       -1.82799619      -1.15788840      -0.14635092
H       -1.75846219       0.04361170       1.14236264
H        0.68283887       2.05953980      -0.14530138
H        0.39186261      -0.86459873      -0.95717561
11
Frame=1 idx=004110 GeodesicLength=0.04413139074384405 rxn_smarts="[C:1]([c:2]1[c:3]([H:10])[n:4][n:5][n:6]1[H:11])([H:7])([H:8])[H:9]>>[C:1]([C@@:2]1([H:11])[C:3]([H:10])=[N:4][N:5]=[N:6]1)([H:7])([H:8])[H:9]"
C       -1.47428566      -0.15741908       0.10974907
C        0.00887006      -0.07377162      -0.04926567
C        0.89103553       1.00934414      -0.03482481
N        2.11934057       0.56130870       0.17702410
N        2.08559690      -0.75914495       0.26359301
N        0.85416499      -1.20872713       0.18584223
H       -1.97626816       0.58538852      -0.50899702
H       -1.83563557      -1.14724784      -0.16681793
H       -1.74499706       0.02083591       1.15104573
H        0.68042916       2.05969274      -0.16170113
H        0.39174924      -0.89025937      -0.96564758
11
Frame=2 idx=004110 GeodesicLength=0.08826316440090504 rxn_smarts="[C:1]([c:2]1[c:3]([H:10])[n:4][n:5][n:6]1[H:11])([H:7])([H:8])[H:9]>>[C:1]([C@@:2]1([H:11])[C:3]([H:10])=[N:4][N:5]=[N:6]1)([H:7])([H:8])[H:9]"
C       -1.47216372      -0.15592293       0.11085014
C        0.00957278      -0.07595278      -0.06423697
C        0.89005673       1.01048350      -0.04416742
N        2.11585543       0.56879913       0.18995923
N        2.08369756      -0.75426371       0.28135168
N        0.85531480      -1.20307016       0.18995233
H       -1.97678864       0.60432703      -0.48408362
H       -1.84342087      -1.13598021      -0.18674911
H       -1.73147003      -0.00182763       1.15890413
H        0.67798332       2.05975753      -0.17804146
H        0.39136265      -0.91634978      -0.97373893
11
Frame=3 idx=004110 GeodesicLength=0.13237721705019903 rxn_smarts="[C:1]([c:2]1[c:3]([H:10])[n:4][n:5][n:6]1[H:11])([H:7])([H:8])[H:9]>>[C:1]([C@@:2]1([H:11])[C:3]([H:10])=[N:4][N:5]=[N:6]1)([H:7])([H:8])[H:9]"
C       -1.46984542      -0.15440150       0.11189339
C        0.01037233      -0.07826759      -0.07920743
C        0.88902429       1.01161564      -0.05320787
N        2.11198106       0.57653897       0.20311640
N        2.08162572      -0.74918975       0.29861859
N        0.85651857      -1.19740831       0.19347798
H       -1.97655434       0.62258273      -0.45914532
H       -1.85131134      -1.12415428      -0.20600779
H       -1.71793615      -0.02420007       1.16590609
H        0.67547454       2.05977164      -0.19402598
H        0.39065074      -0.94288747      -0.98141806
11
Frame=4 idx=004110 GeodesicLength=0.1764725286388327 rxn_smarts="[C:1]([c:2]1[c:3]([H:10])[n:4][n:5][n:6]1[H:11])([H:7])([H:8])[H:9]>>[C:1]([C@@:2]1([H:11])[C:3]([H:10])=[N:4][N:5]=[N:6]1)([H:7])([H:8])[H:9]"
C       -1.46732954      -0.15284836       0.11285470
C        0.01127483      -0.08071104      -0.09416069
C        0.88795008       1.01273763      -0.06197797
N        2.10773425       0.58450706       0.21640020
N        2.07941201      -0.74394463       0.31533374
N        0.85780145      -1.19174405       0.19640306
H       -1.97556290       0.64006305      -0.43439602
H       -1.85926998      -1.11185901      -0.22444920
H       -1.70443876      -0.04609043       1.17203178
H        0.67287168       2.05977267      -0.20937195
H        0.38955688      -0.96988289      -0.98866764
11
Frame=5 idx=004110 GeodesicLength=0.22043887876171325 rxn_smarts="[C:1]([c:2]1[c:3]([H:10])[n:4][n:5][n:6]1[H:11])([H:7])([H:8])[H:9]>>[C:1]([C@@:2]1([H:11])[C:3]([H:10])=[N:4][N:5]=[N:6]1)([H:7])([H:8])[H:9]"
C       -1.46461775      -0.15127285       0.11372527
C        0.01229360      -0.08328328      -0.10911274
C        0.88685338       1.01384314      -0.07049937
N        2.10315379       0.59265669       0.22967423
N        2.07705557      -0.73853553       0.33144125
N        0.85913690      -1.18604298       0.19872301
H       -1.97385093       0.65671083      -0.41006165
H       -1.86722752      -1.09920501      -0.24198796
H       -1.69100617      -0.06730992       1.17732000
H        0.67014020       2.05978725      -0.22379003
H        0.38806892      -0.99734834      -0.99543202
11
Frame=6 idx=004110 GeodesicLength=0.26443850733812213 rxn_smarts="[C:1]([c:2]1[c:3]([H:10])[n:4][n:5][n:6]1[H:11])([H:7])([H:8])[H:9]>>[C:1]([C@@:2]1([H:11])[C:3]([H:10])=[N:4][N:5]=[N:6]1)([H:7])([H:8])[H:9]"
C       -1.46170510      -0.14966978       0.11451708
C        0.01340690      -0.08592767      -0.12400111
C        0.88571263       1.01497891      -0.07870626
N        2.09818821       0.60102233       0.24313221
N        2.07459264      -0.73299929       0.34702344
N        0.86060176      -1.18038061       0.20041845
H       -1.97140679       0.67265492      -0.38593434
H       -1.87520577      -1.08613412      -0.25878947
H       -1.67764952      -0.08813449       1.18181939
H        0.66734902       2.05981784      -0.23774785
H        0.38611603      -1.02522804      -1.00173155
11
Frame=7 idx=004110 GeodesicLength=0.30835163913706476 rxn_smarts="[C:1]([c:2]1[c:3]([H:10])[n:4][n:5][n:6]1[H:11])([H:7])([H:8])[H:9]>>[C:1]([C@@:2]1([H:11])[C:3]([H:10])=[N:4][N:5]=[N:6]1)([H:7])([H:8])[H:9]"
C       -1.45860222      -0.14804483       0.11521290
C        0.01463864      -0.08865747      -0.13885116
C        0.88454378       1.01613429      -0.08660945
N        2.09288715       0.60954806       0.25661668
N        2.07202785      -0.72735225       0.36201190
N        0.86216130      -1.17470935       0.20149175
H       -1.96828735       0.68783943      -0.36225701
H       -1.88313566      -1.07276894      -0.27476163
H       -1.66439047      -0.10834524       1.18557575
H        0.66444564       2.05988922      -0.25092041
H        0.38371135      -1.05353293      -1.00750931
11
Frame=8 idx=004110 GeodesicLength=0.35228993632625294 rxn_smarts="[C:1]([c:2]1[c:3]([H:10])[n:4][n:5][n:6]1[H:11])([H:7])([H:8])[H:9]>>[C:1]([C@@:2]1([H:11])[C:3]([H:10])=[N:4][N:5]=[N:6]1)([H:7])([H:8])[H:9]"
C       -1.45529968      -0.14639934       0.11583662
C        0.01597503      -0.09143798      -0.15363570
C        0.88334517       1.01733411      -0.09417942
N        2.08720145       0.61826756       0.27029499
N        2.06935707      -0.72158317       0.37652426
N        0.86386158      -1.16905505       0.20190613
H       -1.96450815       0.70239486      -0.33880567
H       -1.89102500      -1.05905013      -0.29009511
H       -1.65121519      -0.12821827       1.18864567
H        0.66151942       2.05998954      -0.26372447
H        0.38078830      -1.08224211      -1.01276730
11
Frame=9 idx=004110 GeodesicLength=0.39609335592566464 rxn_smarts="[C:1]([c:2]1[c:3]([H:10])[n:4][n:5][n:6]1[H:11])([H:7])([H:8])[H:9]>>[C:1]([C@@:2]1([H:11])[C:3]([H:10])=[N:4][N:5]=[N:6]1)([H:7])([H:8])[H:9]"
C       -1.45180918      -0.14474128       0.11635139
C        0.01742473      -0.09424725      -0.16837631
C        0.88211889       1.01858009      -0.10145290
N        2.08118795       0.62711365       0.28397867
N        2.06660233      -0.71573390       0.39048644
N        0.86569128      -1.16341169       0.20170387
H       -1.96009913       0.71623181      -0.31581629
H       -1.89881459      -1.04507283      -0.30467232
H       -1.63815248      -0.14753990       1.19102838
H        0.65849817       2.06015170      -0.27579993
H        0.37735203      -1.11133040      -1.01743100
11
Frame=10 idx=004110 GeodesicLength=0.4399359783299856 rxn_smarts="[C:1]([c:2]1[c:3]([H:10])[n:4][n:5][n:6]1[H:11])([H:7])([H:8])[H:9]>>[C:1]([C@@:2]1([H:11])[C:3]([H:10])=[N:4][N:5]=[N:6]1)([H:7])([H:8])[H:9]"
C       -1.44812143      -0.14306761       0.11677988
C        0.01898651      -0.09709108      -0.18307902
C        0.88087744       1.01988609      -0.10843859
N        2.07479802       0.63613032       0.29782429
N        2.06375321      -0.70979425       0.40399592
N        0.86767486      -1.15777978       0.20081866
H       -1.95509186       0.72947881      -0.29315789
H       -1.90651541      -1.03083364      -0.31862308
H       -1.62515852      -0.16648063       1.19280263
H        0.65543984       2.06038809      -0.28740516
H        0.37335734      -1.14083632      -1.02151763
11
Frame=11 idx=004110 GeodesicLength=0.48370825412075885 rxn_smarts="[C:1]([c:2]1[c:3]([H:10])[n:4][n:5][n:6]1[H:11])([H:7])([H:8])[H:9]>>[C:1]([C@@:2]1([H:11])[C:3]([H:10])=[N:4][N:5]=[N:6]1)([H:7])([H:8])[H:9]"
C       -1.44423974      -0.14138973       0.11713895
C        0.02065981      -0.09991276      -0.19773168
C        0.87960039       1.02126541      -0.11510947
N        2.06798589       0.64529062       0.31191286
N        2.06079923      -0.70373051       0.41712471
N        0.86983287      -1.15214900       0.19926916
H       -1.94948929       0.74221069      -0.27057372
H       -1.91411759      -1.01620396      -0.33214289
H       -1.61224562      -0.18532050       1.19397271
H        0.65241522       2.06064198      -0.29890769
H        0.36879880      -1.17070224      -1.02495295
11
Frame=12 idx=004110 GeodesicLength=0.5274962597807935 rxn_smarts="[C:1]([c:2]1[c:3]([H:10])[n:4][n:5][n:6]1[H:11])([H:7])([H:8])[H:9]>>[C:1]([C@@:2]1([H:11])[C:3]([H:10])=[N:4][N:5]=[N:6]1)([H:7])([H:8])[H:9]"
C       -1.44016247      -0.13971147       0.11741407
C        0.02244326      -0.10272407      -0.21236692
C        0.87830373       1.02273238      -0.12151787
N        2.06076639       0.65460535       0.32619820
N        2.05773521      -0.69757414       0.42990409
N        0.87217464      -1.14653068       0.19703086
H       -1.94331859       0.75443590      -0.24816751
H       -1.92160723      -1.00126849      -0.34519848
H       -1.59938292      -0.20397709       1.19457810
H        0.64940465       2.06097265      -0.31014970
H        0.36364333      -1.20096035      -1.02772483
11
Frame=13 idx=004110 GeodesicLength=0.5712756324674347 rxn_smarts="[C:1]([c:2]1[c:3]([H:10])[n:4][n:5][n:6]1[H:11])([H:7])([H:8])[H:9]>>[C:1]([C@@:2]1([H:11])[C:3]([H:10])=[N:4][N:5]=[N:6]1)([H:7])([H:8])[H:9]"
C       -1.43588472      -0.13802900       0.11759000
C        0.02433988      -0.10551548      -0.22700940
C        0.87699661       1.02427289      -0.12770272
N        2.05314678       0.66404457       0.34060841
N        2.05454365      -0.69133192       0.44236346
N        0.87471393      -1.14090696       0.19407024
H       -1.93660632       0.76612323      -0.22602663
H       -1.92894997      -0.98607052      -0.35773689
H       -1.58655136      -0.22236451       1.19461389
H        0.64637627       2.06137889      -0.32097220
H        0.35787525      -1.23160119      -1.02979815
11
Frame=14 idx=004110 GeodesicLength=0.615050658702556 rxn_smarts="[C:1]([c:2]1[c:3]([H:10])[n:4][n:5][n:6]1[H:11])([H:7])([H:8])[H:9]>>[C:1]([C@@:2]1([H:11])[C:3]([H:10])=[N:4][N:5]=[N:6]1)([H:7])([H:8])[H:9]"
C       -1.43140477      -0.13635151       0.11767929
C        0.02635112      -0.10825535      -0.24167151
C        0.87567988       1.02590781      -0.13369697
N        2.04508030       0.67361112       0.35521769
N        2.05120747      -0.68498036       0.45459212
N        0.87747337      -1.13528097       0.19038470
H       -1.92935102       0.77735376      -0.20394056
H       -1.93615395      -0.97052155      -0.36992391
H       -1.57373667      -0.24071848       1.19409627
H        0.64338468       2.06186330      -0.33163094
H        0.35146958      -1.26262778      -1.03110619
11
Frame=15 idx=004110 GeodesicLength=0.6588591106653241 rxn_smarts="[C:1]([c:2]1[c:3]([H:10])[n:4][n:5][n:6]1[H:11])([H:7])([H:8])[H:9]>>[C:1]([C@@:2]1([H:11])[C:3]([H:10])=[N:4][N:5]=[N:6]1)([H:7])([H:8])[H:9]"
C       -1.42671247      -0.13468549       0.11768464
C        0.02847305      -0.11094617      -0.25639078
C        0.87435978       1.02763653      -0.13956329
N        2.03651317       0.68332487       0.37009540
N        2.04768503      -0.67851051       0.46667790
N        0.88047656      -1.12964657       0.18592493
H       -1.92154319       0.78817128      -0.18179829
H       -1.94322257      -0.95458157      -0.38181944
H       -1.56088701      -0.25913689       1.19303062
H        0.64044864       2.06241735      -0.34222608
H        0.34440902      -1.29404282      -1.03161562
11
Frame=16 idx=004110 GeodesicLength=0.7026744257724322 rxn_smarts="[C:1]([c:2]1[c:3]([H:10])[n:4][n:5][n:6]1[H:11])([H:7])([H:8])[H:9]>>[C:1]([C@@:2]1([H:11])[C:3]([H:10])=[N:4][N:5]=[N:6]1)([H:7])([H:8])[H:9]"
C       -1.42180960      -0.13303015       0.11758257
C        0.03070917      -0.11356186      -0.27118293
C        0.87305247       1.02946180      -0.14530688
N        2.02750748       0.69312790       0.38505728
N        2.04394607      -0.67194814       0.47865930
N        0.88373223      -1.12399962       0.18065887
H       -1.91322067       0.79850602      -0.15977151
H       -1.95011236      -0.93834609      -0.39332888
H       -1.54800603      -0.27747477       1.19141002
H        0.63752588       2.06308325      -0.35249674
H        0.33667537      -1.32581834      -1.03128109
