13
Frame=0 idx=010202 GeodesicLength=0.0 rxn_smarts="[C:1]([C:2](=[O:3])[C@@:4]([O:5][H:12])([C:6](=[O:7])[H:13])[H:11])([H:8])([H:9])[H:10]>>[C:1]([C@@:2]1([O:3][H:12])[C@@:4]([C:6](=[O:7])[H:13])([H:11])[O:5]1)([H:8])([H:9])[H:10]"
C       -1.66436132       0.09195174      -0.73347814
C       -0.55222433      -0.10094354       0.21068297
O       -0.77112168      -0.79195271       1.26522553
C        0.78329365       0.56675603       0.13443698
O        0.70470361       1.12825324       1.35558266
C        1.90048113      -0.47180260      -0.09200580
O        2.46083992      -1.02512315       0.80777115
H       -1.92028683       1.15541072      -0.70248203
H       -1.33526370      -0.12516109      -1.75114072
H       -2.53606427      -0.49850535      -0.46144602
H        0.79888249       1.25324421      -0.73597416
H       -0.01570304      -0.48228579       1.85599851
H        2.14682433      -0.69984166      -1.15317089
13
Frame=1 idx=010202 GeodesicLength=0.12818969821979787 rxn_smarts="[C:1]([C:2](=[O:3])[C@@:4]([O:5][H:12])([C:6](=[O:7])[H:13])[H:11])([H:8])([H:9])[H:10]>>[C:1]([C@@:2]1([O:3][H:12])[C@@:4]([C:6](=[O:7])[H:13])([H:11])[O:5]1)([H:8])([H:9])[H:10]"
C       -1.68065463       0.10910815      -0.72319625
C       -0.54514482      -0.11976253       0.18567647
O       -0.74854389      -0.82374935       1.23610984
C        0.78759522       0.55481297       0.10217591
O        0.66837265       1.13272051       1.31617135
C        1.91996272      -0.47377429      -0.06855518
O        2.46183477      -0.99670372       0.86110552
H       -1.96752935       1.15985555      -0.62062903
H       -1.36667663      -0.03139654      -1.75878050
H       -2.53118515      -0.52253930      -0.47771508
H        0.81525686       1.22350301      -0.77978591
H        0.01079006      -0.46375826       1.84311675
H        2.17592219      -0.74831618      -1.11569389
13
Frame=2 idx=010202 GeodesicLength=0.25583117758247437 rxn_smarts="[C:1]([C:2](=[O:3])[C@@:4]([O:5][H:12])([C:6](=[O:7])[H:13])[H:11])([H:8])([H:9])[H:10]>>[C:1]([C@@:2]1([O:3][H:12])[C@@:4]([C:6](=[O:7])[H:13])([H:11])[O:5]1)([H:8])([H:9])[H:10]"
C       -1.69562316       0.12535383      -0.71245130
C       -0.53865166      -0.13739178       0.16089922
O       -0.72723828      -0.85373593       1.20706427
C        0.79210863       0.54236978       0.07030658
O        0.63390621       1.13549170       1.27639633
C        1.93776320      -0.47493451      -0.04630332
O        2.46057545      -0.96775614       0.91112361
H       -2.01118737       1.15826951      -0.53969937
H       -1.39696660       0.06158674      -1.75990336
H       -2.52520188      -0.54426296      -0.49765314
H        0.83170886       1.19359958      -0.82230729
H        0.03597253      -0.44391026       1.83012239
H        2.20283409      -0.79467957      -1.07759463
13
Frame=3 idx=010202 GeodesicLength=0.38303003383900847 rxn_smarts="[C:1]([C:2](=[O:3])[C@@:4]([O:5][H:12])([C:6](=[O:7])[H:13])[H:11])([H:8])([H:9])[H:10]>>[C:1]([C@@:2]1([O:3][H:12])[C@@:4]([C:6](=[O:7])[H:13])([H:11])[O:5]1)([H:8])([H:9])[H:10]"
C       -1.70936218       0.14075170      -0.70135331
C       -0.53279508      -0.15381085       0.13655590
O       -0.70725174      -0.88212272       1.17819223
C        0.79680005       0.52947220       0.03889438
O        0.60133566       1.13682067       1.23641106
C        1.95386989      -0.47551768      -0.02523574
O        2.45745355      -0.93828014       0.95793696
H       -2.05170856       1.15090746      -0.46014461
H       -1.42585934       0.15365501      -1.75468809
H       -2.51825209      -0.56353903      -0.52115911
H        0.84816050       1.16350133      -0.86360603
H        0.06011469      -0.42274783       1.81719103
H        2.22749467      -0.83909013      -1.03899466
13
Frame=4 idx=010202 GeodesicLength=0.509959413657499 rxn_smarts="[C:1]([C:2](=[O:3])[C@@:4]([O:5][H:12])([C:6](=[O:7])[H:13])[H:11])([H:8])([H:9])[H:10]>>[C:1]([C@@:2]1([O:3][H:12])[C@@:4]([C:6](=[O:7])[H:13])([H:11])[O:5]1)([H:8])([H:9])[H:10]"
C       -1.72209152       0.15540111      -0.69000386
C       -0.52760573      -0.16911235       0.11275378
O       -0.68855666      -0.90928388       1.14954392
C        0.80168977       0.51615162       0.00793185
O        0.57066770       1.13696682       1.19627586
C        1.96845276      -0.47568104      -0.00527344
O        2.45290230      -0.90828657       1.00180096
H       -2.08955487       1.13803701      -0.38228129
H       -1.45333535       0.24479141      -1.74335551
H       -2.51063265      -0.58018755      -0.54810765
H        0.86459054       1.13315360      -0.90388295
H        0.08341789      -0.40023791       1.80452889
H        2.25005581      -0.88171227      -0.99993055
13
Frame=5 idx=010202 GeodesicLength=0.6365343863735016 rxn_smarts="[C:1]([C:2](=[O:3])[C@@:4]([O:5][H:12])([C:6](=[O:7])[H:13])[H:11])([H:8])([H:9])[H:10]>>[C:1]([C@@:2]1([O:3][H:12])[C@@:4]([C:6](=[O:7])[H:13])([H:11])[O:5]1)([H:8])([H:9])[H:10]"
C       -1.73359477       0.16933971      -0.67841163
C       -0.52301308      -0.18329991       0.08960788
O       -0.67117192      -0.93526223       1.12098592
C        0.80659140       0.50239614      -0.02242382
O        0.54169398       1.13602714       1.15624355
C        1.98122859      -0.47556028       0.01356012
O        2.44712598      -0.87736585       1.04263577
H       -2.12468797       1.11987237      -0.30651700
H       -1.47902208       0.33462783      -1.72589378
H       -2.50197504      -0.59396587      -0.57833248
H        0.88074511       1.10239089      -0.94293984
H        0.10613679      -0.37637824       1.79204414
H        2.26994301      -0.92282168      -0.96055882
13
Frame=6 idx=010202 GeodesicLength=0.7628784580504222 rxn_smarts="[C:1]([C:2](=[O:3])[C@@:4]([O:5][H:12])([C:6](=[O:7])[H:13])[H:11])([H:8])([H:9])[H:10]>>[C:1]([C@@:2]1([O:3][H:12])[C@@:4]([C:6](=[O:7])[H:13])([H:11])[O:5]1)([H:8])([H:9])[H:10]"
C       -1.74423479       0.18266109      -0.66667828
C       -0.51907678      -0.19657122       0.06716503
O       -0.65504430      -0.96061359       1.09252217
C        0.81155439       0.48824652      -0.05221429
O        0.51435340       1.13417723       1.11632392
C        1.99257895      -0.47519701       0.03135944
O        2.44046723      -0.84583327       1.08070009
H       -2.15736541       1.09691364      -0.23336823
H       -1.50305453       0.42266791      -1.70264595
H       -2.49304169      -0.60437632      -0.61125385
H        0.89662101       1.07128966      -0.98099633
H        0.12835426      -0.35119497       1.77997723
H        2.28788825      -0.96216968      -0.92089096
13
Frame=7 idx=010202 GeodesicLength=0.8890120761847723 rxn_smarts="[C:1]([C:2](=[O:3])[C@@:4]([O:5][H:12])([C:6](=[O:7])[H:13])[H:11])([H:8])([H:9])[H:10]>>[C:1]([C@@:2]1([O:3][H:12])[C@@:4]([C:6](=[O:7])[H:13])([H:11])[O:5]1)([H:8])([H:9])[H:10]"
C       -1.75398832       0.19542109      -0.65479124
C       -0.51574094      -0.20904346       0.04543252
O       -0.64011962      -0.98559840       1.06395100
C        0.81646960       0.47368803      -0.08138519
O        0.48842447       1.13149331       1.07661559
C        2.00247754      -0.47463485       0.04817221
O        2.43308853      -0.81348689       1.11606111
H       -2.18757836       1.06954671      -0.16311799
H       -1.52528392       0.50856110      -1.67375608
H       -2.48384900      -0.61116548      -0.64648922
H        0.91206526       1.03973045      -1.01801618
H        0.15019940      -0.32465176       1.76828194
H        2.30383536      -0.99985987      -0.88095849
13
Frame=8 idx=010202 GeodesicLength=1.0150364489672208 rxn_smarts="[C:1]([C:2](=[O:3])[C@@:4]([O:5][H:12])([C:6](=[O:7])[H:13])[H:11])([H:8])([H:9])[H:10]>>[C:1]([C@@:2]1([O:3][H:12])[C@@:4]([C:6](=[O:7])[H:13])([H:11])[O:5]1)([H:8])([H:9])[H:10]"
C       -1.76301577       0.20769082      -0.64280603
C       -0.51300145      -0.22085383       0.02439993
O       -0.62637066      -1.01061079       1.03512648
C        0.82133653       0.45874913      -0.10991809
O        0.46380670       1.12805815       1.03720283
C        2.01109186      -0.47389493       0.06409206
O        2.42530066      -0.78025526       1.14891176
H       -2.21544324       1.03822441      -0.09606096
H       -1.54576073       0.59198044      -1.63957235
H       -2.47476011      -0.61410673      -0.68359772
H        0.92705719       1.00773869      -1.05406611
H        0.17180626      -0.29677078       1.75704037
H        2.31795276      -1.03594933      -0.84075217
13
Frame=9 idx=010202 GeodesicLength=1.1408715026379124 rxn_smarts="[C:1]([C:2](=[O:3])[C@@:4]([O:5][H:12])([C:6](=[O:7])[H:13])[H:11])([H:8])([H:9])[H:10]>>[C:1]([C@@:2]1([O:3][H:12])[C@@:4]([C:6](=[O:7])[H:13])([H:11])[O:5]1)([H:8])([H:9])[H:10]"
C       -1.77119396       0.21950089      -0.63066248
C       -0.51078969      -0.23201178       0.00409869
O       -0.61375757      -1.03585697       1.00569282
C        0.82600233       0.44348682      -0.13764693
O        0.44022985       1.12382871       0.99836330
C        2.01831448      -0.47298387       0.07911837
O        2.41730508      -0.74589988       1.17915139
H       -2.24086383       1.00364326      -0.03269481
H       -1.56426065       0.67218968      -1.60033402
H       -2.46555802      -0.61305950      -0.72201161
H        0.94137593       0.97537983      -1.08888617
H        0.19328981      -0.26761735       1.74615049
H        2.32990624      -1.07059985      -0.80033904
13
Frame=10 idx=010202 GeodesicLength=1.2666299448725618 rxn_smarts="[C:1]([C:2](=[O:3])[C@@:4]([O:5][H:12])([C:6](=[O:7])[H:13])[H:11])([H:8])([H:9])[H:10]>>[C:1]([C@@:2]1([O:3][H:12])[C@@:4]([C:6](=[O:7])[H:13])([H:11])[O:5]1)([H:8])([H:9])[H:10]"
C       -1.77873542       0.23089083      -0.61847857
C       -0.50911852      -0.24264963      -0.01549074
O       -0.60226212      -1.06177373       0.97547134
C        0.83051565       0.42795787      -0.16455341
O        0.41765372       1.11886339       0.96018918
C        2.02435686      -0.47190118       0.09335700
O        2.40921710      -0.71065329       1.20698555
H       -2.26384618       0.96638459       0.02678478
H       -1.58088842       0.74865985      -1.55681101
H       -2.45693205      -0.60785512      -0.76097080
H        0.95511915       0.94284291      -1.12250537
H        0.21475805      -0.23719077       1.73578047
H        2.34016217      -1.10357571      -0.75975842
13
Frame=11 idx=010202 GeodesicLength=1.392334451050664 rxn_smarts="[C:1]([C:2](=[O:3])[C@@:4]([O:5][H:12])([C:6](=[O:7])[H:13])[H:11])([H:8])([H:9])[H:10]>>[C:1]([C@@:2]1([O:3][H:12])[C@@:4]([C:6](=[O:7])[H:13])([H:11])[O:5]1)([H:8])([H:9])[H:10]"
C       -1.78563699       0.24188467      -0.60621187
C       -0.50793286      -0.25279634      -0.03439611
O       -0.59182791      -1.08863142       0.94406539
C        0.83482953       0.41221567      -0.19057225
O        0.39591112       1.11318892       0.92281847
C        2.02922456      -0.47067140       0.10686640
O        2.40118924      -0.67435390       1.23245589
H       -2.28445951       0.92698294       0.08233675
H       -1.59560427       0.82109676      -1.50942356
H       -2.44883693      -0.59859865      -0.80004790
H        0.96827249       0.91019664      -1.15483527
H        0.23628787      -0.20541953       1.72590978
H        2.34858366      -1.13509436      -0.71896574
13
Frame=12 idx=010202 GeodesicLength=1.5180332740315583 rxn_smarts="[C:1]([C:2](=[O:3])[C@@:4]([O:5][H:12])([C:6](=[O:7])[H:13])[H:11])([H:8])([H:9])[H:10]>>[C:1]([C@@:2]1([O:3][H:12])[C@@:4]([C:6](=[O:7])[H:13])([H:11])[O:5]1)([H:8])([H:9])[H:10]"
C       -1.79203373       0.25253063      -0.59387584
C       -0.50722037      -0.26246423      -0.05261294
O       -0.58249502      -1.11676490       0.91113446
C        0.83895997       0.39632100      -0.21564191
O        0.37491986       1.10686258       0.88632852
C        2.03304527      -0.46939251       0.11975683
O        2.39345902      -0.63710268       1.25564392
H       -2.30293587       0.88604055       0.13388115
H       -1.60851130       0.88924481      -1.45879759
H       -2.44149767      -0.58546039      -0.83868842
H        0.98089245       0.87759258      -1.18578761
H        0.25802024      -0.17221704       1.71657116
H        2.35539717      -1.16519042      -0.67791171
13
Frame=13 idx=010202 GeodesicLength=1.6438331996370132 rxn_smarts="[C:1]([C:2](=[O:3])[C@@:4]([O:5][H:12])([C:6](=[O:7])[H:13])[H:11])([H:8])([H:9])[H:10]>>[C:1]([C@@:2]1([O:3][H:12])[C@@:4]([C:6](=[O:7])[H:13])([H:11])[O:5]1)([H:8])([H:9])[H:10]"
C       -1.79783131       0.26279270      -0.58141855
C       -0.50691270      -0.27160679      -0.07014306
O       -0.57419092      -1.14635005       0.87617039
C        0.84282581       0.38033888      -0.23966236
O        0.35464839       1.09983397       0.85097043
C        2.03564433      -0.46807491       0.13208544
O        2.38606178      -0.59876437       1.27658524
H       -2.31915020       0.84404615       0.18148631
H       -1.61965689       0.95276434      -1.40548379
H       -2.43466263      -0.56865532      -0.87660541
H        0.99289455       0.84512502      -1.21525038
H        0.28015554      -0.13744609       1.70784718
H        2.36017424      -1.19400352      -0.63658144
13
Frame=14 idx=010202 GeodesicLength=1.7696842961030015 rxn_smarts="[C:1]([C:2](=[O:3])[C@@:4]([O:5][H:12])([C:6](=[O:7])[H:13])[H:11])([H:8])([H:9])[H:10]>>[C:1]([C@@:2]1([O:3][H:12])[C@@:4]([C:6](=[O:7])[H:13])([H:11])[O:5]1)([H:8])([H:9])[H:10]"
C       -1.80323106       0.27272339      -0.56884731
C       -0.50699927      -0.28026024      -0.08701434
O       -0.56693840      -1.17773579       0.83864362
C        0.84653010       0.36432270      -0.26262907
O        0.33498161       1.09225837       0.81668710
C        2.03723840      -0.46686610       0.14401098
O        2.37918175      -0.55947624       1.29539121
H       -2.33345194       0.80133047       0.22538083
H       -1.62923249       1.01169693      -1.35007519
H       -2.42868314      -0.54840706      -0.91326070
H        1.00455307       0.81294279      -1.24320122
H        0.30274716      -0.10084502       1.69974636
H        2.36330419      -1.22168420      -0.59483227
13
Frame=15 idx=010202 GeodesicLength=1.8956774050139285 rxn_smarts="[C:1]([C:2](=[O:3])[C@@:4]([O:5][H:12])([C:6](=[O:7])[H:13])[H:11])([H:8])([H:9])[H:10]>>[C:1]([C@@:2]1([O:3][H:12])[C@@:4]([C:6](=[O:7])[H:13])([H:11])[O:5]1)([H:8])([H:9])[H:10]"
C       -1.80822748       0.28230241      -0.55608720
C       -0.50742849      -0.28839948      -0.10322584
O       -0.56071112      -1.21113786       0.79787577
C        0.85005570       0.34830006      -0.28449383
O        0.31587650       1.08417207       0.78355701
C        2.03774429      -0.46586378       0.15566143
O        2.37288351      -0.51917295       1.31211165
H       -2.34590572       0.75815747       0.26582531
H       -1.63736132       1.06603014      -1.29299403
H       -2.42343613      -0.52497959      -0.94841371
H        1.01591700       0.78106993      -1.26958984
H        0.32597765      -0.06207249       1.69230457
H        2.36461561      -1.24840594      -0.55253129
13
Frame=16 idx=010202 GeodesicLength=2.021881769062488 rxn_smarts="[C:1]([C:2](=[O:3])[C@@:4]([O:5][H:12])([C:6](=[O:7])[H:13])[H:11])([H:8])([H:9])[H:10]>>[C:1]([C@@:2]1([O:3][H:12])[C@@:4]([C:6](=[O:7])[H:13])([H:11])[O:5]1)([H:8])([H:9])[H:10]"
C       -1.81288034       0.29152047      -0.54306834
C       -0.50816916      -0.29601363      -0.11876453
O       -0.55551417      -1.24679659       0.75307481
C        0.85342702       0.33229050      -0.30522437
O        0.29730855       1.07565792       0.75159304
C        2.03713243      -0.46521317       0.16721415
O        2.36729490      -0.47782877       1.32681728
H       -2.35666480       0.71465940       0.30313075
H       -1.64423476       1.11587829      -1.23460926
H       -2.41890502      -0.49863025      -0.98183929
H        1.02710336       0.74952351      -1.29439610
H        0.35006175      -0.02067486       1.68554904
H        2.36404024      -1.27437281      -0.50947718
