19
Frame=0 idx=011017 GeodesicLength=0.0 rxn_smarts="[C:1]([C@@:2]1([H:11])[C:3]([H:12])([H:13])[O:4][C@:5]([C:6]([H:15])([H:16])[H:17])([H:14])[C:7]1([H:18])[H:19])([H:8])([H:9])[H:10]>>[C:1]([C@@:2]1([H:11])[C@@:5]([O:4][C:3]([H:12])([H:13])[H:14])([C:6]([H:15])([H:16])[H:17])[C:7]1([H:18])[H:19])([H:8])([H:9])[H:10]"
C       -2.16286939       0.60466862       0.09790653
C       -1.12366638      -0.03437949       0.95172473
C       -0.36402566      -1.45375309      -0.77137521
O        0.35515429      -0.34920249      -1.27740021
C        1.11034802      -0.12848892      -0.13945397
C        2.43426753       0.50035418      -0.43746290
C        0.22210681       0.49877578       0.99966027
H       -3.06742277      -0.00425729       0.04127597
H       -1.78130088       0.76432431      -0.91968187
H       -2.46130212       1.58861373       0.47535599
H       -1.47213258      -0.63277161       1.78698603
H        0.07474498      -2.36954437      -1.17897889
H       -1.42786363      -1.44116032      -1.00972596
H        0.38733510      -1.45173892       0.24619412
H        3.03047090      -0.17713906      -1.05056746
H        2.97656601       0.71003649       0.48515555
H        2.32174214       1.43621368      -0.99741558
H        0.20528295       1.56713741       0.74934681
H        0.74256466       0.37231142       1.94845614
19
Frame=1 idx=011017 GeodesicLength=0.1088279323475195 rxn_smarts="[C:1]([C@@:2]1([H:11])[C:3]([H:12])([H:13])[O:4][C@:5]([C:6]([H:15])([H:16])[H:17])([H:14])[C:7]1([H:18])[H:19])([H:8])([H:9])[H:10]>>[C:1]([C@@:2]1([H:11])[C@@:5]([O:4][C:3]([H:12])([H:13])[H:14])([C:6]([H:15])([H:16])[H:17])[C:7]1([H:18])[H:19])([H:8])([H:9])[H:10]"
C       -2.15094406       0.63068050       0.08965157
C       -1.11502830      -0.04417903       0.92102546
C       -0.36410791      -1.47875732      -0.75533829
O        0.36196276      -0.38468359      -1.27300816
C        1.09995222      -0.12636461      -0.13018960
C        2.41257044       0.52043232      -0.44569649
C        0.22926051       0.48991574       1.01789132
H       -3.07092811       0.04461818       0.04045519
H       -1.78174187       0.78830173      -0.93235654
H       -2.41998692       1.61824113       0.47857793
H       -1.47316437      -0.66254458       1.73772324
H        0.06141765      -2.40317914      -1.15704704
H       -1.42276205      -1.45879108      -1.01880198
H        0.41919994      -1.47391508       0.26222936
H        3.02357458      -0.16260603      -1.03772528
H        2.95433892       0.77183388       0.46666721
H        2.28353548       1.43780724      -1.03163528
H        0.21916309       1.56443782       0.79797098
H        0.73368798       0.32875192       1.96960639
19
Frame=2 idx=011017 GeodesicLength=0.21772501713224193 rxn_smarts="[C:1]([C@@:2]1([H:11])[C:3]([H:12])([H:13])[O:4][C@:5]([C:6]([H:15])([H:16])[H:17])([H:14])[C:7]1([H:18])[H:19])([H:8])([H:9])[H:10]>>[C:1]([C@@:2]1([H:11])[C@@:5]([O:4][C:3]([H:12])([H:13])[H:14])([C:6]([H:15])([H:16])[H:17])[C:7]1([H:18])[H:19])([H:8])([H:9])[H:10]"
C       -2.13811920       0.65673934       0.08158318
C       -1.10578073      -0.05295158       0.88968874
C       -0.36419447      -1.50379764      -0.73981863
O        0.37004548      -0.42095868      -1.26864220
C        1.08924553      -0.12477650      -0.12134978
C        2.38988653       0.54056676      -0.45372783
C        0.23617546       0.48014763       1.03600690
H       -3.07272974       0.09355618       0.04115568
H       -1.78199601       0.81281947      -0.94487350
H       -2.37772614       1.64710942       0.48150522
H       -1.47418104      -0.68899297       1.68841838
H        0.04795084      -2.43725409      -1.13410921
H       -1.41699580      -1.47680253      -1.02846220
H        0.45120162      -1.49552900       0.27779111
H        3.01657200      -0.14602770      -1.02493092
H        2.92956397       0.83279702       0.44759050
H        2.24408886       1.43897040      -1.06423989
H        0.23285041       1.55999243       0.84704987
H        0.72414244       0.28439203       1.98936458
19
Frame=3 idx=011017 GeodesicLength=0.3267363226390101 rxn_smarts="[C:1]([C@@:2]1([H:11])[C:3]([H:12])([H:13])[O:4][C@:5]([C:6]([H:15])([H:16])[H:17])([H:14])[C:7]1([H:18])[H:19])([H:8])([H:9])[H:10]>>[C:1]([C@@:2]1([H:11])[C@@:5]([O:4][C:3]([H:12])([H:13])[H:14])([C:6]([H:15])([H:16])[H:17])[C:7]1([H:18])[H:19])([H:8])([H:9])[H:10]"
C       -2.12443984       0.68285651       0.07376708
C       -1.09590475      -0.06072371       0.85770670
C       -0.36427596      -1.52879611      -0.72483525
O        0.37956733      -0.45804695      -1.26420100
C        1.07835469      -0.12383193      -0.11287358
C        2.36625541       0.56069991      -0.46153607
C        0.24280640       0.46947479       1.05387376
H       -3.07285362       0.14252732       0.04347075
H       -1.78219001       0.83792965      -0.95716859
H       -2.33454251       1.67524809       0.48421511
H       -1.47508864      -0.71232784       1.63910646
H        0.03426531      -2.47167732      -1.11017181
H       -1.41050767      -1.49503642      -1.03881284
H        0.48332553      -1.51663222       0.29294087
H        3.00950126      -0.12749332      -1.01212085
H        2.90217230       0.89300639       0.42804474
H        2.20346956       1.43960382      -1.09535558
H        0.24627607       1.55373770       0.89625818
H        0.71380913       0.23948165       2.00769192
19
Frame=4 idx=011017 GeodesicLength=0.43589378936503265 rxn_smarts="[C:1]([C@@:2]1([H:11])[C:3]([H:12])([H:13])[O:4][C@:5]([C:6]([H:15])([H:16])[H:17])([H:14])[C:7]1([H:18])[H:19])([H:8])([H:9])[H:10]>>[C:1]([C@@:2]1([H:11])[C@@:5]([O:4][C:3]([H:12])([H:13])[H:14])([C:6]([H:15])([H:16])[H:17])[C:7]1([H:18])[H:19])([H:8])([H:9])[H:10]"
C       -2.10997290       0.70902512       0.06627567
C       -1.08538854      -0.06752554       0.82506543
C       -0.36434447      -1.55366040      -0.71041368
O        0.39068306      -0.49593320      -1.25957103
C        1.06742189      -0.12363612      -0.10469212
C        2.34175108       0.58076076      -0.46909858
C        0.24910708       0.45793060       1.07135314
H       -3.07132846       0.19145523       0.04752049
H       -1.78248912       0.86368372      -0.96916360
H       -2.29050438       1.70265025       0.48680438
H       -1.47579006      -0.73273671       1.58980706
H        0.02029351      -2.50632657      -1.08526371
H       -1.40323217      -1.51333303      -1.04998386
H        0.51554106      -1.53726963       0.30775172
H        3.00240668      -0.10710830      -0.99924233
H        2.87212721       0.95247119       0.40813701
H        2.16179025       1.43957747      -1.12509294
H        0.25936942       1.54565766       0.94523873
H        0.70255886       0.19431750       2.02456824
19
Frame=5 idx=011017 GeodesicLength=0.5453133279761462 rxn_smarts="[C:1]([C@@:2]1([H:11])[C:3]([H:12])([H:13])[O:4][C@:5]([C:6]([H:15])([H:16])[H:17])([H:14])[C:7]1([H:18])[H:19])([H:8])([H:9])[H:10]>>[C:1]([C@@:2]1([H:11])[C@@:5]([O:4][C:3]([H:12])([H:13])[H:14])([C:6]([H:15])([H:16])[H:17])[C:7]1([H:18])[H:19])([H:8])([H:9])[H:10]"
C       -2.09486751       0.73517565       0.05920499
C       -1.07424257      -0.07343049       0.79175001
C       -0.36435098      -1.57823621      -0.69662082
O        0.40348294      -0.53456133      -1.25457864
C        1.05659045      -0.12421809      -0.09671099
C        2.31648323       0.60062858      -0.47636997
C        0.25503732       0.44568691       1.08829543
H       -3.06823948       0.24021606       0.05335191
H       -1.78318478       0.89013544      -0.98070683
H       -2.24580953       1.72922546       0.48945291
H       -1.47612438      -0.75051649       1.54047974
H        0.00594746      -2.54098778      -1.05944423
H       -1.39503502      -1.53151890      -1.06214974
H        0.54781347      -1.55746943       0.32235510
H        2.99523278      -0.08502974      -0.98615497
H        2.83949570       1.01102747       0.38794135
H        2.11935914       1.43868436      -1.15363209
H        0.27210142       1.53590743       0.99356119
H        0.69031032       0.14928110       2.03997567
19
Frame=6 idx=011017 GeodesicLength=0.6549717412722138 rxn_smarts="[C:1]([C@@:2]1([H:11])[C:3]([H:12])([H:13])[O:4][C@:5]([C:6]([H:15])([H:16])[H:17])([H:14])[C:7]1([H:18])[H:19])([H:8])([H:9])[H:10]>>[C:1]([C@@:2]1([H:11])[C@@:5]([O:4][C:3]([H:12])([H:13])[H:14])([C:6]([H:15])([H:16])[H:17])[C:7]1([H:18])[H:19])([H:8])([H:9])[H:10]"
C       -2.07914864       0.76131514       0.05262641
C       -1.06244589      -0.07843101       0.75773204
C       -0.36430381      -1.60245078      -0.68347078
O        0.41811742      -0.57389874      -1.24911183
C        1.04604169      -0.12571811      -0.08885358
C        2.29052099       0.62022520      -0.48337884
C        0.26054580       0.43273819       1.10458323
H       -3.06356278       0.28868611       0.06111607
H       -1.78440301       0.91737586      -0.99171967
H       -2.20050489       1.75498172       0.49222287
H       -1.47606501      -0.76578975       1.49113625
H       -0.00882911      -2.57554026      -1.03276362
H       -1.38581301      -1.54941933      -1.07544837
H        0.58009118      -1.57729375       0.33686028
H        2.98808022      -0.06138145      -0.97283953
H        2.80420079       1.06879883       0.36747717
H        2.07621192       1.43674591      -1.18109944
H        0.28439928       1.52447974       1.04096462
H        0.67686686       0.10457646       2.05396672
19
Frame=7 idx=011017 GeodesicLength=0.7648829745518932 rxn_smarts="[C:1]([C@@:2]1([H:11])[C:3]([H:12])([H:13])[O:4][C@:5]([C:6]([H:15])([H:16])[H:17])([H:14])[C:7]1([H:18])[H:19])([H:8])([H:9])[H:10]>>[C:1]([C@@:2]1([H:11])[C@@:5]([O:4][C:3]([H:12])([H:13])[H:14])([C:6]([H:15])([H:16])[H:17])[C:7]1([H:18])[H:19])([H:8])([H:9])[H:10]"
C       -2.06288800       0.78740188       0.04662495
C       -1.04998908      -0.08255549       0.72297921
C       -0.36416782      -1.62619047      -0.67100898
O        0.43467198      -0.61387969      -1.24300805
C        1.03595620      -0.12821050      -0.08102098
C        2.26395137       0.63943336      -0.49013658
C        0.26558397       0.41917033       1.12011102
H       -3.05732015       0.33672651       0.07092374
H       -1.78634326       0.94550076      -1.00208010
H       -2.15470268       1.77987996       0.49521839
H       -1.47553032      -0.77873272       1.44173292
H       -0.02408409      -2.60979844      -1.00529638
H       -1.37541438      -1.56687990      -1.09004010
H        0.61231990      -1.59677854       0.35140865
H        2.98097699      -0.03629502      -0.95922591
H        2.76617435       1.12573689       0.34671733
H        2.03251068       1.43352684      -1.20765309
H        0.29621728       1.51148500       1.08716231
H        0.66207707       0.06045925       2.06659166
19
Frame=8 idx=011017 GeodesicLength=0.8750706536670176 rxn_smarts="[C:1]([C@@:2]1([H:11])[C:3]([H:12])([H:13])[O:4][C@:5]([C:6]([H:15])([H:16])[H:17])([H:14])[C:7]1([H:18])[H:19])([H:8])([H:9])[H:10]>>[C:1]([C@@:2]1([H:11])[C@@:5]([O:4][C:3]([H:12])([H:13])[H:14])([C:6]([H:15])([H:16])[H:17])[C:7]1([H:18])[H:19])([H:8])([H:9])[H:10]"
C       -2.04617686       0.81338043       0.04128050
C       -1.03685857      -0.08581171       0.68745874
C       -0.36392714      -1.64933111      -0.65928402
O        0.45320398      -0.65441175      -1.23612677
C        1.02649587      -0.13173645      -0.07313384
C        2.23688026       0.65812984      -0.49666612
C        0.27010488       0.40510628       1.13477584
H       -3.04951969       0.38412330       0.08286804
H       -1.78922671       0.97459540      -1.01163939
H       -2.10858794       1.80384905       0.49855824
H       -1.47444075      -0.78951883       1.39221886
H       -0.03988619      -2.64354750      -0.97715366
H       -1.36368430      -1.58375813      -1.10605894
H        0.64444572      -1.61595207       0.36617187
H        2.97394105      -0.00993409      -0.94527272
H        2.72543975       1.18172707       0.32564616
H        1.98849603       1.42879575      -1.23342436
H        0.30751870       1.49708348       1.13187547
H        0.64578191       0.01721106       2.07790610
19
Frame=9 idx=011017 GeodesicLength=0.9856832160066142 rxn_smarts="[C:1]([C@@:2]1([H:11])[C:3]([H:12])([H:13])[O:4][C@:5]([C:6]([H:15])([H:16])[H:17])([H:14])[C:7]1([H:18])[H:19])([H:8])([H:9])[H:10]>>[C:1]([C@@:2]1([H:11])[C@@:5]([O:4][C:3]([H:12])([H:13])[H:14])([C:6]([H:15])([H:16])[H:17])[C:7]1([H:18])[H:19])([H:8])([H:9])[H:10]"
C       -2.02924128       0.83911242       0.03667337
C       -1.02308309      -0.08824996       0.65113001
C       -0.36349736      -1.67166648      -0.64843597
O        0.47361744      -0.69536682      -1.22823254
C        1.01771520      -0.13616604      -0.06506303
C        2.20948469       0.67613548      -0.50292673
C        0.27409248       0.39086277       1.14850622
H       -3.04026898       0.43062582       0.09690037
H       -1.79347326       1.00466870      -1.02012410
H       -2.06253188       1.82670453       0.50246160
H       -1.47262646      -0.79844994       1.34247357
H       -0.05631527      -2.67645164      -0.94853334
H       -1.35040100      -1.59997767      -1.12366087
H        0.67638002      -1.63475632       0.38136512
H        2.96684699       0.01740991      -0.93081890
H        2.68226744       1.23636954       0.30418562
H        1.94470333       1.42232366      -1.25859565
H        0.31834656       1.48166492       1.17479387
H        0.62798443      -0.02479287       2.08790137
19
Frame=10 idx=011017 GeodesicLength=1.0965778227735627 rxn_smarts="[C:1]([C@@:2]1([H:11])[C:3]([H:12])([H:13])[O:4][C@:5]([C:6]([H:15])([H:16])[H:17])([H:14])[C:7]1([H:18])[H:19])([H:8])([H:9])[H:10]>>[C:1]([C@@:2]1([H:11])[C@@:5]([O:4][C:3]([H:12])([H:13])[H:14])([C:6]([H:15])([H:16])[H:17])[C:7]1([H:18])[H:19])([H:8])([H:9])[H:10]"
C       -2.01200322       0.86460237       0.03284513
C       -1.00858920      -0.08980702       0.61396072
C       -0.36292311      -1.69317169      -0.63843723
O        0.49600374      -0.73665804      -1.21926400
C        1.00983827      -0.14163617      -0.05676909
C        2.18180216       0.69337505      -0.50902900
C        0.27747551       0.37638500       1.16126190
H       -3.02945790       0.47601317       0.11319909
H       -1.79903486       1.03586295      -1.02748150
H       -2.01651583       1.84850342       0.50687156
H       -1.47012461      -0.80548255       1.29249894
H       -0.07340749      -2.70840858      -0.91951926
H       -1.33546581      -1.61542594      -1.14292251
H        0.70807550      -1.65326154       0.39715192
H        2.95981765       0.04569533      -0.91598312
H        2.63641878       1.28981672       0.28226487
H        1.90105688       1.41389564      -1.28325117
H        0.32865114       1.46521661       1.21587827
H        0.60838241      -0.06551475       2.09672448
19
Frame=11 idx=011017 GeodesicLength=1.2077683967498731 rxn_smarts="[C:1]([C@@:2]1([H:11])[C:3]([H:12])([H:13])[O:4][C@:5]([C:6]([H:15])([H:16])[H:17])([H:14])[C:7]1([H:18])[H:19])([H:8])([H:9])[H:10]>>[C:1]([C@@:2]1([H:11])[C@@:5]([O:4][C:3]([H:12])([H:13])[H:14])([C:6]([H:15])([H:16])[H:17])[C:7]1([H:18])[H:19])([H:8])([H:9])[H:10]"
C       -1.99452835       0.88977132       0.02984554
C       -0.99334008      -0.09046389       0.57592234
C       -0.36218734      -1.71373167      -0.62934438
O        0.52029050      -0.77816400      -1.20908043
C        1.00296794      -0.14809290      -0.04817863
C        2.15393852       0.70972735      -0.51502408
C        0.28021519       0.36181881       1.17301643
H       -3.01707355       0.52001534       0.13177431
H       -1.80606980       1.06824406      -1.03352624
H       -1.97074897       1.86918352       0.51187639
H       -1.46686242      -0.81074773       1.24221572
H       -0.09122320      -2.73918133      -0.89028286
H       -1.31868919      -1.63001206      -1.16391432
H        0.73946936      -1.67144867       0.41373463
H        2.95283305       0.07472463      -0.90073067
H        2.58792849       1.34189475       0.25975885
H        1.85779240       1.40328609      -1.30751674
H        0.33844652       1.44795507       1.25501932
H        0.58684095      -0.10477869       2.10443483
19
Frame=12 idx=011017 GeodesicLength=1.3192336748109503 rxn_smarts="[C:1]([C@@:2]1([H:11])[C:3]([H:12])([H:13])[O:4][C@:5]([C:6]([H:15])([H:16])[H:17])([H:14])[C:7]1([H:18])[H:19])([H:8])([H:9])[H:10]>>[C:1]([C@@:2]1([H:11])[C@@:5]([O:4][C:3]([H:12])([H:13])[H:14])([C:6]([H:15])([H:16])[H:17])[C:7]1([H:18])[H:19])([H:8])([H:9])[H:10]"
C       -1.97689840       0.91451469       0.02772016
C       -0.97730109      -0.09019312       0.53700949
C       -0.36129859      -1.73322451      -0.62121511
O        0.54636093      -0.81973195      -1.19758971
C        0.99716001      -0.15544058      -0.03926318
C        2.12603188       0.72506675      -0.52095112
C        0.28227034       0.34732972       1.18374466
H       -3.00310500       0.56229773       0.15260581
H       -1.81472139       1.10182095      -1.03805957
H       -1.92546445       1.88867683       0.51754073
H       -1.46275084      -0.81435047       1.19157801
H       -0.10983906      -2.76852799      -0.86101049
H       -1.29998739      -1.64371125      -1.18665714
H        0.77051039      -1.68926374       0.43128818
H        2.94586901       0.10429016      -0.88505128
H        2.53692352       1.39237105       0.23659283
H        1.81524025       1.39035478      -1.33146932
H        0.34774690       1.43011865       1.29211931
H        0.56325296      -0.14239770       2.11106774
19
Frame=13 idx=011017 GeodesicLength=1.4309319667214604 rxn_smarts="[C:1]([C@@:2]1([H:11])[C:3]([H:12])([H:13])[O:4][C@:5]([C:6]([H:15])([H:16])[H:17])([H:14])[C:7]1([H:18])[H:19])([H:8])([H:9])[H:10]>>[C:1]([C@@:2]1([H:11])[C@@:5]([O:4][C:3]([H:12])([H:13])[H:14])([C:6]([H:15])([H:16])[H:17])[C:7]1([H:18])[H:19])([H:8])([H:9])[H:10]"
C       -1.95918542       0.93870258       0.02649608
C       -0.96042802      -0.08895506       0.49724688
C       -0.36026712      -1.75151873      -0.61410200
O        0.57404650      -0.86119848      -1.18469448
C        0.99244393      -0.16355312      -0.02999591
C        2.09821070       0.73928391      -0.52686246
C        0.28359304       0.33308897       1.19344497
H       -2.98754966       0.60249550       0.17560970
H       -1.82508515       1.13657800      -1.04086775
H       -1.88093803       1.90690230       0.52392251
H       -1.45769694      -0.81638211       1.14055562
H       -0.12934476      -2.79618083      -0.83192589
H       -1.27925617      -1.65648462      -1.21112433
H        0.80114908      -1.70662813       0.44998035
H        2.93888964       0.13415501      -0.86895741
H        2.48359406       1.44095775       0.21269244
H        1.77370858       1.37497675      -1.35517381
H        0.35656619       1.41195479       1.32710686
H        0.53754955      -0.17819448       2.11664863
19
Frame=14 idx=011017 GeodesicLength=1.5428880910414633 rxn_smarts="[C:1]([C@@:2]1([H:11])[C:3]([H:12])([H:13])[O:4][C@:5]([C:6]([H:15])([H:16])[H:17])([H:14])[C:7]1([H:18])[H:19])([H:8])([H:9])[H:10]>>[C:1]([C@@:2]1([H:11])[C@@:5]([O:4][C:3]([H:12])([H:13])[H:14])([C:6]([H:15])([H:16])[H:17])[C:7]1([H:18])[H:19])([H:8])([H:9])[H:10]"
C       -1.94146115       0.96220817       0.02619426
C       -0.94267615      -0.08670728       0.45668641
C       -0.35911766      -1.76848566      -0.60807035
O        0.60311977      -0.90239809      -1.17030390
C        0.98878254      -0.17226250      -0.02035938
C        2.07062288       0.75226229      -0.53279694
C        0.28415667       0.31928210       1.20215783
H       -2.97041780       0.64021386       0.20064004
H       -1.83719246       1.17246619      -1.04172628
H       -1.83744077       1.92379001       0.53109262
H       -1.45160664      -0.81691364       1.08914926
H       -0.14982962      -2.82189576      -0.80329832
H       -1.25641881      -1.66830869      -1.23728531
H        0.83134287      -1.72343674       0.46997232
H        2.93185741       0.16408241      -0.85243083
H        2.42806641       1.48741556       0.18790553
H        1.73356185       1.35700365      -1.37870891
H        0.36495284       1.39371053       1.35999348
H        0.50969784      -0.21202641       2.12118845
19
Frame=15 idx=011017 GeodesicLength=1.6550836805711486 rxn_smarts="[C:1]([C@@:2]1([H:11])[C:3]([H:12])([H:13])[O:4][C@:5]([C:6]([H:15])([H:16])[H:17])([H:14])[C:7]1([H:18])[H:19])([H:8])([H:9])[H:10]>>[C:1]([C@@:2]1([H:11])[C@@:5]([O:4][C:3]([H:12])([H:13])[H:14])([C:6]([H:15])([H:16])[H:17])[C:7]1([H:18])[H:19])([H:8])([H:9])[H:10]"
C       -1.92381655       0.98486870       0.02682015
C       -0.92401389      -0.08340805       0.41543399
C       -0.35789650      -1.78399116      -0.60317876
O        0.63329308      -0.94312603      -1.15436625
C        0.98609157      -0.18135987      -0.01036750
C        2.04343312       0.76389330      -0.53878685
C        0.28394253       0.30609480       1.20992446
H       -2.95176750       0.67504041       0.22750914
H       -1.85105347       1.20934315      -1.04041386
H       -1.79527305       1.93926394       0.53909798
H       -1.44438849      -0.81601541       1.03742397
H       -0.17139908      -2.84540863      -0.77543540
H       -1.23145453      -1.67917218      -1.26503968
H        0.86106635      -1.73954011       0.49135975
H        2.92475567       0.19380507      -0.83543125
H        2.37056782       1.53146086       0.16212385
H        1.69522184       1.33634520      -1.40212604
H        0.37295574       1.37563763       1.39078135
H        0.47973534      -0.24373163       2.12467097
19
Frame=16 idx=011017 GeodesicLength=1.7674885081817604 rxn_smarts="[C:1]([C@@:2]1([H:11])[C:3]([H:12])([H:13])[O:4][C@:5]([C:6]([H:15])([H:16])[H:17])([H:14])[C:7]1([H:18])[H:19])([H:8])([H:9])[H:10]>>[C:1]([C@@:2]1([H:11])[C@@:5]([O:4][C:3]([H:12])([H:13])[H:14])([C:6]([H:15])([H:16])[H:17])[C:7]1([H:18])[H:19])([H:8])([H:9])[H:10]"
C       -1.90636480       1.00650434       0.02836031
C       -0.90443292      -0.07902065       0.37365385
C       -0.35667578      -1.79789436      -0.59947750
O        0.66420869      -0.98315207      -1.13686859
C        0.98422873      -0.19060269      -0.00006799
C        2.01682723       0.77408784      -0.54486041
C        0.28294844       0.29372500       1.21678792
H       -2.93170777       0.70652588       0.25590780
H       -1.86661288       1.24701330      -1.03671948
H       -1.75478900       1.95323258       0.54799969
H       -1.43596060      -0.81375153       0.98552243
H       -0.19415406      -2.86646972      -0.74864913
H       -1.20442290      -1.68908243      -1.29422407
H        0.89032047      -1.75475412       0.51418686
H        2.91756516       0.22302316      -0.81795535
H        2.31145299       1.57277737       0.13528989
H        1.65915385       1.31299254      -1.42543515
H        0.38063063       1.35799615       1.41948302
H        0.44778451      -0.27315059       2.12706590
