12
Frame=0 idx=002015 GeodesicLength=0.0 rxn_smarts="[C:1]([C:2]#[C:3][C:4]([C:5](=[O:6])[H:12])([H:10])[H:11])([H:7])([H:8])[H:9]>>[C:1]([C:2]([C@:5]1([H:12])[C:3][C:4]1([H:10])[H:11])=[O:6])([H:7])([H:8])[H:9]"
C        1.79040438      -0.55453807       0.11150733
C        0.40495564      -0.06004544       0.37514955
C       -0.17088331       1.02370527      -0.40007580
C       -1.64940817       1.03499470      -0.06158527
C       -1.01162616      -0.19290261      -0.51818156
O       -0.38755803      -0.73593737       1.13635407
H        1.83297249      -1.64088839       0.17799755
H        2.43574975      -0.13937903       0.88900201
H        2.15051564      -0.19782932      -0.85031307
H       -2.23520583       1.60229550      -0.77273350
H       -2.04157014       0.99154110       0.95197917
H       -1.11834627      -1.13101634      -1.03910052
12
Frame=1 idx=002015 GeodesicLength=0.14274461525205182 rxn_smarts="[C:1]([C:2]#[C:3][C:4]([C:5](=[O:6])[H:12])([H:10])[H:11])([H:7])([H:8])[H:9]>>[C:1]([C:2]([C@:5]1([H:12])[C:3][C:4]1([H:10])[H:11])=[O:6])([H:7])([H:8])[H:9]"
C        1.79900013      -0.55731408       0.11654598
C        0.41139560      -0.06942440       0.37799591
C       -0.17633876       1.03555968      -0.38266010
C       -1.65308080       1.03980378      -0.05380993
C       -1.02887988      -0.19674665      -0.51030591
O       -0.42367659      -0.77336722       1.12165815
H        1.86619308      -1.63693383       0.24374030
H        2.45498873      -0.08885016       0.85375199
H        2.14126521      -0.25720436      -0.87103429
H       -2.24095341       1.60607728      -0.76446056
H       -2.03903917       0.99873240       0.96236297
H       -1.11087415      -1.10033243      -1.09378451
12
Frame=2 idx=002015 GeodesicLength=0.2854345954960309 rxn_smarts="[C:1]([C:2]#[C:3][C:4]([C:5](=[O:6])[H:12])([H:10])[H:11])([H:7])([H:8])[H:9]>>[C:1]([C:2]([C@:5]1([H:12])[C:3][C:4]1([H:10])[H:11])=[O:6])([H:7])([H:8])[H:9]"
C        1.80785608      -0.56029498       0.12169459
C        0.41805397      -0.07894351       0.38071392
C       -0.18154665       1.04781457      -0.36409085
C       -1.65667695       1.04380442      -0.04596861
C       -1.04565797      -0.20069509      -0.50380205
O       -0.46049457      -0.81149325       1.10506652
H        1.90042626      -1.62854678       0.31269333
H        2.47364016      -0.03855821       0.81288077
H        2.13138257      -0.32116879      -0.88886871
H       -2.24630446       1.61006053      -0.75557836
H       -2.03725316       1.00335453       0.97239783
H       -1.10342529      -1.06533345      -1.14713839
12
Frame=3 idx=002015 GeodesicLength=0.4280236058198182 rxn_smarts="[C:1]([C:2]#[C:3][C:4]([C:5](=[O:6])[H:12])([H:10])[H:11])([H:7])([H:8])[H:9]>>[C:1]([C:2]([C@:5]1([H:12])[C:3][C:4]1([H:10])[H:11])=[O:6])([H:7])([H:8])[H:9]"
C        1.81699800      -0.56344246       0.12693184
C        0.42502166      -0.08839489       0.38331457
C       -0.18654834       1.06054797      -0.34431909
C       -1.66021419       1.04701074      -0.03810223
C       -1.06187889      -0.20467984      -0.49873566
O       -0.49795236      -0.85017741       1.08645540
H        1.93541872      -1.61510547       0.38413366
H        2.49156269       0.01056732       0.76619179
H        2.12114190      -0.38953719      -0.90307356
H       -2.25130491       1.61419570      -0.74615769
H       -2.03629282       1.00541901       0.98203163
H       -1.09595147      -1.02640349      -1.19867066
12
Frame=4 idx=002015 GeodesicLength=0.5705261926970595 rxn_smarts="[C:1]([C:2]#[C:3][C:4]([C:5](=[O:6])[H:12])([H:10])[H:11])([H:7])([H:8])[H:9]>>[C:1]([C:2]([C@:5]1([H:12])[C:3][C:4]1([H:10])[H:11])=[O:6])([H:7])([H:8])[H:9]"
C        1.82644996      -0.56673271       0.13221747
C        0.43238502      -0.09759801       0.38579731
C       -0.19139724       1.07382427      -0.32328866
C       -1.66371996       1.04945689      -0.03022344
C       -1.07749381      -0.20863415      -0.49515539
O       -0.53599897      -0.88931040       1.06569003
H        1.97100972      -1.59605450       0.45743222
H        2.50862464       0.05761500       0.71353176
H        2.11078178      -0.46209050      -0.91295328
H       -2.25602099       1.61846015      -0.73623169
H       -2.03622215       1.00497339       0.99125105
H       -1.08839800      -0.98390943      -1.24806738
12
Frame=5 idx=002015 GeodesicLength=0.7129190901262579 rxn_smarts="[C:1]([C:2]#[C:3][C:4]([C:5](=[O:6])[H:12])([H:10])[H:11])([H:7])([H:8])[H:9]>>[C:1]([C:2]([C@:5]1([H:12])[C:3][C:4]1([H:10])[H:11])=[O:6])([H:7])([H:8])[H:9]"
C        1.83626214      -0.57006077       0.13753147
C        0.44019946      -0.10634132       0.38809758
C       -0.19618977       1.08764314      -0.30111314
C       -1.66720144       1.05117856      -0.02238687
C       -1.09252608      -0.21256161      -0.49296584
O       -0.57458147      -0.92859363       1.04284365
H        2.00675138      -1.57113479       0.53110178
H        2.52460355       0.10157353       0.65535645
H        2.10090218      -0.53818436      -0.91779506
H       -2.26051196       1.62272911      -0.72590062
H       -2.03698563       1.00225636       1.00002443
H       -1.08072236      -0.93850422      -1.29479384
12
Frame=6 idx=002015 GeodesicLength=0.8551943514130141 rxn_smarts="[C:1]([C:2]#[C:3][C:4]([C:5](=[O:6])[H:12])([H:10])[H:11])([H:7])([H:8])[H:9]>>[C:1]([C:2]([C@:5]1([H:12])[C:3][C:4]1([H:10])[H:11])=[O:6])([H:7])([H:8])[H:9]"
C        1.84643098      -0.57343644       0.14279617
C        0.44855952      -0.11449206       0.39021815
C       -0.20098451       1.10202963      -0.27771802
C       -1.67068272       1.05222524      -0.01459563
C       -1.10695139      -0.21640886      -0.49216313
O       -0.61365611      -0.96792851       1.01784371
H        2.04264222      -1.54006832       0.60460618
H        2.53943552       0.14154726       0.59170535
H        2.09160363      -0.61732551      -0.91706222
H       -2.26485412       1.62697871      -0.71520674
H       -2.03861950       0.99736187       1.00834350
H       -1.07292353      -0.89048300      -1.33876731
12
Frame=7 idx=002015 GeodesicLength=0.9973187987781048 rxn_smarts="[C:1]([C:2]#[C:3][C:4]([C:5](=[O:6])[H:12])([H:10])[H:11])([H:7])([H:8])[H:9]>>[C:1]([C:2]([C@:5]1([H:12])[C:3][C:4]1([H:10])[H:11])=[O:6])([H:7])([H:8])[H:9]"
C        1.85697587      -0.57680994       0.14798111
C        0.45749722      -0.12194717       0.39212249
C       -0.20585459       1.11695848      -0.25307604
C       -1.67416224       1.05264230      -0.00684969
C       -1.12079424      -0.22014693      -0.49268061
O       -0.65326940      -1.00716372       0.99069351
H        2.07855229      -1.50271672       0.67696007
H        2.55296013       0.17679798       0.52288169
H        2.08318770      -0.69900063      -0.91023138
H       -2.26906101       1.63117136      -0.70417155
H       -2.04110357       0.99045411       1.01620079
H       -1.06492817      -0.84023911      -1.37983040
12
Frame=8 idx=002015 GeodesicLength=1.139362575333918 rxn_smarts="[C:1]([C:2]#[C:3][C:4]([C:5](=[O:6])[H:12])([H:10])[H:11])([H:7])([H:8])[H:9]>>[C:1]([C:2]([C@:5]1([H:12])[C:3][C:4]1([H:10])[H:11])=[O:6])([H:7])([H:8])[H:9]"
C        1.86792984      -0.58014485       0.15303413
C        0.46706284      -0.12867243       0.39377380
C       -0.21083142       1.13238253      -0.22714240
C       -1.67762476       1.05248958       0.00085367
C       -1.13411224      -0.22373846      -0.49448098
O       -0.69352307      -1.04622733       0.96134317
H        2.11454585      -1.45897960       0.74729855
H        2.56500755       0.20667505       0.44926745
H        2.07585617      -0.78267049      -0.89682805
H       -2.27313161       1.63533243      -0.69280801
H       -2.04439526       0.98168243       1.02359070
H       -1.05678387      -0.78812886      -1.41790204
12
Frame=9 idx=002015 GeodesicLength=1.2812968057530805 rxn_smarts="[C:1]([C:2]#[C:3][C:4]([C:5](=[O:6])[H:12])([H:10])[H:11])([H:7])([H:8])[H:9]>>[C:1]([C:2]([C@:5]1([H:12])[C:3][C:4]1([H:10])[H:11])=[O:6])([H:7])([H:8])[H:9]"
C        1.87933659      -0.58346949       0.15797120
C        0.47722480      -0.13469318       0.39512613
C       -0.21604562       1.14825477      -0.19979448
C       -1.68109016       1.05184820       0.00856685
C       -1.14695131      -0.22714303      -0.49755101
O       -0.73455726      -1.08510891       0.92968719
H        2.15075370      -1.40881744       0.81500071
H        2.57535244       0.23072738       0.37095631
H        2.06991290      -0.86800516      -0.87640391
H       -2.27709105       1.63957384      -0.68102807
H       -2.04849251       0.97118221       1.03053418
H       -1.04835251      -0.73434919      -1.45306511
12
Frame=10 idx=002015 GeodesicLength=1.423101303088418 rxn_smarts="[C:1]([C:2]#[C:3][C:4]([C:5](=[O:6])[H:12])([H:10])[H:11])([H:7])([H:8])[H:9]>>[C:1]([C:2]([C@:5]1([H:12])[C:3][C:4]1([H:10])[H:11])=[O:6])([H:7])([H:8])[H:9]"
C        1.89118862      -0.58673990       0.16270023
C        0.48803245      -0.14002096       0.39622353
C       -0.22143015       1.16440614      -0.17101889
C       -1.68447158       1.05075096       0.01624469
C       -1.15935632      -0.23036130      -0.50178006
O       -0.77661170      -1.12367945       0.89578326
H        2.18730152      -1.35234437       0.87894462
H        2.58377295       0.24820126       0.28867527
H        2.06546606      -0.95391021      -0.84863517
H       -2.28080812       1.64384233      -0.66895404
H       -2.05333526       0.95915804       1.03696826
H       -1.03974848      -0.67930255      -1.48515170
12
Frame=11 idx=002015 GeodesicLength=1.564725005060991 rxn_smarts="[C:1]([C:2]#[C:3][C:4]([C:5](=[O:6])[H:12])([H:10])[H:11])([H:7])([H:8])[H:9]>>[C:1]([C:2]([C@:5]1([H:12])[C:3][C:4]1([H:10])[H:11])=[O:6])([H:7])([H:8])[H:9]"
C        1.90345809      -0.58990815       0.16721061
C        0.49948295      -0.14472056       0.39713000
C       -0.22695691       1.18068707      -0.14070670
C       -1.68765439       1.04922893       0.02388815
C       -1.17136760      -0.23338146      -0.50711999
O       -0.81996242      -1.16192928       0.85951154
H        2.22439077      -1.28961172       0.93820175
H        2.58999221       0.25863846       0.20293552
H        2.06251498      -1.03963018      -0.81314523
H       -2.28411705       1.64817487      -0.65658664
H       -2.05880257       0.94572283       1.04282691
H       -1.03097807      -0.62327081      -1.51414591
12
Frame=12 idx=002015 GeodesicLength=1.7062068785038937 rxn_smarts="[C:1]([C:2]#[C:3][C:4]([C:5](=[O:6])[H:12])([H:10])[H:11])([H:7])([H:8])[H:9]>>[C:1]([C:2]([C@:5]1([H:12])[C:3][C:4]1([H:10])[H:11])=[O:6])([H:7])([H:8])[H:9]"
C        1.91615608      -0.59296463       0.17147092
C        0.51156722      -0.14888655       0.39794751
C       -0.23257456       1.19692727      -0.10868668
C       -1.69056050       1.04730025       0.03154635
C       -1.18300790      -0.23614734      -0.51359143
O       -0.86498745      -1.19990880       0.82061443
H        2.26235812      -1.22042182       0.99208525
H        2.59376180       0.26152460       0.11403417
H        2.06103567      -1.12462436      -0.76950509
H       -2.28687893       1.65265043      -0.64384881
H       -2.06488600       0.93089092       1.04810292
H       -1.02198356      -0.56633998      -1.54016953
12
Frame=13 idx=002015 GeodesicLength=1.847579215521317 rxn_smarts="[C:1]([C:2]#[C:3][C:4]([C:5](=[O:6])[H:12])([H:10])[H:11])([H:7])([H:8])[H:9]>>[C:1]([C:2]([C@:5]1([H:12])[C:3][C:4]1([H:10])[H:11])=[O:6])([H:7])([H:8])[H:9]"
C        1.92934317      -0.59595973       0.17557523
C        0.52422923      -0.15258458       0.39884995
C       -0.23844920       1.21305340      -0.07484550
C       -1.69320538       1.04508685       0.03924410
C       -1.19428012      -0.23863920      -0.52116856
O       -0.91196699      -1.23761800       0.77897803
H        2.30151667      -1.14526084       1.03980553
H        2.59446623       0.25644565       0.02226329
H        2.06150300      -1.20807316      -0.71752623
H       -2.28910283       1.65745956      -0.63071520
H       -2.07160827       0.91487012       1.05278738
H       -1.01244551      -0.50878007      -1.56324804
12
Frame=14 idx=002015 GeodesicLength=1.989046949758065 rxn_smarts="[C:1]([C:2]#[C:3][C:4]([C:5](=[O:6])[H:12])([H:10])[H:11])([H:7])([H:8])[H:9]>>[C:1]([C:2]([C@:5]1([H:12])[C:3][C:4]1([H:10])[H:11])=[O:6])([H:7])([H:8])[H:9]"
C        1.94303462      -0.59891680       0.17949259
C        0.53750436      -0.15589219       0.40016716
C       -0.24448667       1.22888720      -0.03881775
C       -1.69554176       1.04254941       0.04708702
C       -1.20513175      -0.24073817      -0.52998516
O       -0.96138933      -1.27514631       0.73407855
H        2.34237021      -1.06344456       1.08076392
H        2.59185995       0.24256477      -0.07235318
H        2.06372213      -1.28962743      -0.65663166
H       -2.29065972       1.66266860      -0.61706632
H       -2.07912677       0.89746351       1.05692646
H       -1.00215526      -0.45036804      -1.58366162
12
Frame=15 idx=002015 GeodesicLength=2.1301561339896486 rxn_smarts="[C:1]([C:2]#[C:3][C:4]([C:5](=[O:6])[H:12])([H:10])[H:11])([H:7])([H:8])[H:9]>>[C:1]([C:2]([C@:5]1([H:12])[C:3][C:4]1([H:10])[H:11])=[O:6])([H:7])([H:8])[H:9]"
C        1.95701986      -0.60157517       0.18312633
C        0.55141017      -0.15866227       0.40224645
C       -0.25052734       1.24415595      -0.00098493
C       -1.69721462       1.03960984       0.05485921
C       -1.21549301      -0.24267822      -0.53961951
O       -1.01357317      -1.31210353       0.68619091
H        2.38452025      -0.97655656       1.11267408
H        2.58572962       0.21959207      -0.16730648
H        2.06744514      -1.36663677      -0.58737251
H       -2.29115277       1.66785936      -0.60324454
H       -2.08696036       0.87909232       1.06019910
H       -0.99120377      -0.39209702      -1.60076813
12
Frame=16 idx=002015 GeodesicLength=2.270981089241325 rxn_smarts="[C:1]([C:2]#[C:3][C:4]([C:5](=[O:6])[H:12])([H:10])[H:11])([H:7])([H:8])[H:9]>>[C:1]([C:2]([C@:5]1([H:12])[C:3][C:4]1([H:10])[H:11])=[O:6])([H:7])([H:8])[H:9]"
C        1.97128623      -0.60397151       0.18650027
C        0.56594631      -0.16088445       0.40541692
C       -0.25667544       1.25881694       0.03897406
C       -1.69819635       1.03624170       0.06270522
C       -1.22519814      -0.24431543      -0.55022527
O       -1.06885382      -1.34857312       0.63455117
H        2.42844764      -0.88423972       1.13499186
H        2.57549049       0.18697688      -0.26259166
H        2.07267385      -1.43901629      -0.50915608
H       -2.29055141       1.67315304      -0.58897390
H       -2.09517183       0.85948955       1.06264284
H       -0.97919753      -0.33367759      -1.61483543
