14
Frame=0 idx=008992 GeodesicLength=0.0 rxn_smarts="[C:1]([N:2]([C:3](=[O:4])[N:5](/[C:6](=[N:7]/[H:14])[H:13])[H:12])[H:11])([H:8])([H:9])[H:10]>>[C:1]([H:8])([H:9])([H:10])[H:11].[n:2]1[c:3]([O-:4])[n+:5]([H:12])[c:6]([H:13])[n:7]1[H:14]"
C        2.46973432      -0.30028210       0.54125406
N        0.20140839      -0.33351198       0.53729207
C        0.03102392       0.56249159      -0.48614872
O        0.85501575       1.26173296      -1.05449309
N       -1.31149762       0.64592603      -0.91872151
C       -2.30994975      -0.04305831      -0.31831336
N       -2.00952506      -0.78856505       0.65618265
H        2.44623928      -0.69005803      -0.46606957
H        2.80685618      -1.03187702       1.27271804
H        2.97581775       0.65963837       0.59295869
H        1.39469995      -0.04326628       0.97860684
H       -1.46860105       1.29406897      -1.67073035
H       -3.30627622       0.10585275      -0.73879003
H       -2.77494589      -1.29909196       1.07425430
14
Frame=1 idx=008992 GeodesicLength=0.07464699489549556 rxn_smarts="[C:1]([N:2]([C:3](=[O:4])[N:5](/[C:6](=[N:7]/[H:14])[H:13])[H:12])[H:11])([H:8])([H:9])[H:10]>>[C:1]([H:8])([H:9])([H:10])[H:11].[n:2]1[c:3]([O-:4])[n+:5]([H:12])[c:6]([H:13])[n:7]1[H:14]"
C        2.45989324      -0.30407670       0.53138201
N        0.19816784      -0.30694221       0.54837138
C        0.02230723       0.59865498      -0.46293583
O        0.82450040       1.35947825      -0.97906639
N       -1.29938974       0.59063021      -0.96198530
C       -2.31031059      -0.02149227      -0.30291606
N       -2.00186872      -0.79158691       0.65155351
H        2.44586350      -0.60481224      -0.50663130
H        2.80272320      -1.10246037       1.18717022
H        2.98880583       0.63601976       0.66332811
H        1.39275209      -0.06680825       1.02839963
H       -1.44045149       1.12243746      -1.80311334
H       -3.31250682       0.16152968      -0.69350216
H       -2.77048597      -1.27057138       1.09994552
14
Frame=2 idx=008992 GeodesicLength=0.1533049065348615 rxn_smarts="[C:1]([N:2]([C:3](=[O:4])[N:5](/[C:6](=[N:7]/[H:14])[H:13])[H:12])[H:11])([H:8])([H:9])[H:10]>>[C:1]([H:8])([H:9])([H:10])[H:11].[n:2]1[c:3]([O-:4])[n+:5]([H:12])[c:6]([H:13])[n:7]1[H:14]"
C        2.44733214      -0.30625088       0.51678473
N        0.19271019      -0.27319052       0.56997729
C        0.01124647       0.63502449      -0.43548557
O        0.78587249       1.44944515      -0.90747046
N       -1.28351301       0.54118138      -0.99261814
C       -2.30617116      -0.01513583      -0.30337165
N       -1.99874718      -0.78653978       0.65237966
H        2.43848358      -0.51728319      -0.54364425
H        2.79651573      -1.16394852       1.08990328
H        3.00151023       0.60599629       0.72280843
H        1.39216327      -0.09442864       1.07704586
H       -1.39760693       0.95150580      -1.90274779
H       -3.30861402       0.20641397      -0.67069482
H       -2.77118178      -1.23278972       1.12713343
14
Frame=3 idx=008992 GeodesicLength=0.23404937233989528 rxn_smarts="[C:1]([N:2]([C:3](=[O:4])[N:5](/[C:6](=[N:7]/[H:14])[H:13])[H:12])[H:11])([H:8])([H:9])[H:10]>>[C:1]([H:8])([H:9])([H:10])[H:11].[n:2]1[c:3]([O-:4])[n+:5]([H:12])[c:6]([H:13])[n:7]1[H:14]"
C        2.43287386      -0.30605648       0.49892112
N        0.18668053      -0.24090112       0.59234983
C       -0.00189815       0.66881679      -0.40793768
O        0.74123132       1.53154476      -0.83988844
N       -1.26574285       0.49776080      -1.01488528
C       -2.30019093      -0.02159982      -0.31527981
N       -1.99828107      -0.77376027       0.65928379
H        2.43273688      -0.42237297      -0.57645321
H        2.78522312      -1.21679831       0.98208102
H        3.01112261       0.57100401       0.77969728
H        1.39064702      -0.13125993       1.12045645
H       -1.34099140       0.78568347      -1.97428563
H       -3.29854826       0.23875197      -0.66558826
H       -2.77486268      -1.18081290       1.16152882
14
Frame=4 idx=008992 GeodesicLength=0.3176334022145552 rxn_smarts="[C:1]([N:2]([C:3](=[O:4])[N:5](/[C:6](=[N:7]/[H:14])[H:13])[H:12])[H:11])([H:8])([H:9])[H:10]>>[C:1]([H:8])([H:9])([H:10])[H:11].[n:2]1[c:3]([O-:4])[n+:5]([H:12])[c:6]([H:13])[n:7]1[H:14]"
C        2.41457224      -0.30520944       0.47924869
N        0.17890138      -0.19713932       0.62381291
C       -0.01634375       0.70513671      -0.37960263
O        0.69458083       1.60645217      -0.78253965
N       -1.24485134       0.45852245      -1.03105336
C       -2.29198275      -0.03123703      -0.32939076
N       -1.99696397      -0.76054003       0.66638379
H        2.42097482      -0.32918194      -0.60255871
H        2.76532463      -1.26084662       0.86899185
H        3.02196281       0.52765446       0.82658947
H        1.38901723      -0.16984445       1.16129117
H       -1.27446604       0.62429059      -2.02108764
H       -3.28339138       0.26177204      -0.67139498
H       -2.77733469      -1.12982958       1.19130982
14
Frame=5 idx=008992 GeodesicLength=0.40336826831563466 rxn_smarts="[C:1]([N:2]([C:3](=[O:4])[N:5](/[C:6](=[N:7]/[H:14])[H:13])[H:12])[H:11])([H:8])([H:9])[H:10]>>[C:1]([H:8])([H:9])([H:10])[H:11].[n:2]1[c:3]([O-:4])[n+:5]([H:12])[c:6]([H:13])[n:7]1[H:14]"
C        2.39330845      -0.30297076       0.45886994
N        0.17074784      -0.14824684       0.65765872
C       -0.03154389       0.74105626      -0.35374573
O        0.64585125       1.67567766      -0.73428925
N       -1.22137864       0.42092569      -1.04357474
C       -2.28163056      -0.04297008      -0.34419231
N       -1.99445602      -0.74664436       0.67404639
H        2.40971205      -0.23301309      -0.62134791
H        2.73750181      -1.29593403       0.75022617
H        3.03050874       0.47736156       0.87012563
H        1.38469776      -0.21587660       1.19637274
H       -1.20060307       0.46841309      -2.04631856
H       -3.26458401       0.27627867      -0.68510633
H       -2.77813171      -1.07405719       1.22127523
14
Frame=6 idx=008992 GeodesicLength=0.49143846531032875 rxn_smarts="[C:1]([N:2]([C:3](=[O:4])[N:5](/[C:6](=[N:7]/[H:14])[H:13])[H:12])[H:11])([H:8])([H:9])[H:10]>>[C:1]([H:8])([H:9])([H:10])[H:11].[n:2]1[c:3]([O-:4])[n+:5]([H:12])[c:6]([H:13])[n:7]1[H:14]"
C        2.36858365      -0.29981412       0.43824045
N        0.16265682      -0.09148663       0.69426408
C       -0.04705537       0.77807209      -0.33076368
O        0.59589000       1.74098312      -0.69638680
N       -1.19469808       0.38390918      -1.05279915
C       -2.26829174      -0.05583243      -0.35806237
N       -1.98958974      -0.73099517       0.68354110
H        2.39926790      -0.13385779      -0.63168284
H        2.70019330      -1.32225417       0.62580349
H        3.03638641       0.41814985       0.91097793
H        1.37590474      -0.26987856       1.22396481
H       -1.12090388       0.31763580      -2.05187172
H       -3.24228820       0.28164740      -0.70515206
H       -2.77605582      -1.01627857       1.24992674
14
Frame=7 idx=008992 GeodesicLength=0.5813512910569296 rxn_smarts="[C:1]([N:2]([C:3](=[O:4])[N:5](/[C:6](=[N:7]/[H:14])[H:13])[H:12])[H:11])([H:8])([H:9])[H:10]>>[C:1]([H:8])([H:9])([H:10])[H:11].[n:2]1[c:3]([O-:4])[n+:5]([H:12])[c:6]([H:13])[n:7]1[H:14]"
C        2.34167192      -0.29521377       0.41896432
N        0.15591357      -0.02956027       0.72956273
C       -0.06197231       0.81400991      -0.31365713
O        0.54498784       1.80156884      -0.67103326
N       -1.16574645       0.34622740      -1.05963682
C       -2.25234731      -0.06905456      -0.36976514
N       -1.98208873      -0.71258550       0.69576024
H        2.39433319      -0.02933081      -0.63034173
H        2.65619932      -1.33774079       0.49619255
H        3.03713319       0.34986874       0.95372482
H        1.35948031      -0.33515512       1.23988125
H       -1.03938831       0.17245068      -2.04031895
H       -3.21737333       0.28119378      -0.72729237
H       -2.77080289      -0.95667853       1.27795947
14
Frame=8 idx=008992 GeodesicLength=0.672336044132519 rxn_smarts="[C:1]([N:2]([C:3](=[O:4])[N:5](/[C:6](=[N:7]/[H:14])[H:13])[H:12])[H:11])([H:8])([H:9])[H:10]>>[C:1]([H:8])([H:9])([H:10])[H:11].[n:2]1[c:3]([O-:4])[n+:5]([H:12])[c:6]([H:13])[n:7]1[H:14]"
C        2.31451346      -0.28881885       0.40268414
N        0.15187562       0.03510386       0.76015752
C       -0.07531986       0.84698050      -0.30473345
O        0.49380622       1.85601741      -0.66057624
N       -1.13597845       0.30718521      -1.06453296
C       -2.23475047      -0.08139148      -0.37788713
N       -1.97216481      -0.68987302       0.71179384
H        2.39888372       0.08235198      -0.61270998
H        2.60958377      -1.33965592       0.36194955
H        3.03137994       0.27121362       1.00188775
H        1.33261863      -0.41265228       1.23885378
H       -0.96052538       0.03270148      -2.01417587
H       -3.19102560       0.27782759      -0.74809994
H       -2.76289678      -0.89699011       1.30538898
14
Frame=9 idx=008992 GeodesicLength=0.7629536344903833 rxn_smarts="[C:1]([N:2]([C:3](=[O:4])[N:5](/[C:6](=[N:7]/[H:14])[H:13])[H:12])[H:11])([H:8])([H:9])[H:10]>>[C:1]([H:8])([H:9])([H:10])[H:11].[n:2]1[c:3]([O-:4])[n+:5]([H:12])[c:6]([H:13])[n:7]1[H:14]"
C        2.29118250      -0.27973363       0.39174858
N        0.15206296       0.09377438       0.77998845
C       -0.08612401       0.87155973      -0.30690369
O        0.44224002       1.90038959      -0.66520863
N       -1.10901561       0.26593774      -1.06906820
C       -2.21837270      -0.09180934      -0.38211645
N       -1.96162131      -0.66346043       0.73052038
H        2.41766745       0.20297061      -0.57188289
H        2.57128826      -1.32279349       0.22513653
H        3.01700535       0.18312489       1.05992251
H        1.29411276      -0.50324669       1.21396701
H       -0.89148352      -0.10105500      -1.97795874
H       -3.16592319       0.27756676      -0.76305363
H       -2.75301898      -0.83322511       1.33490877
14
Frame=10 idx=008992 GeodesicLength=0.8527221571024154 rxn_smarts="[C:1]([N:2]([C:3](=[O:4])[N:5](/[C:6](=[N:7]/[H:14])[H:13])[H:12])[H:11])([H:8])([H:9])[H:10]>>[C:1]([H:8])([H:9])([H:10])[H:11].[n:2]1[c:3]([O-:4])[n+:5]([H:12])[c:6]([H:13])[n:7]1[H:14]"
C        2.27229560      -0.26946960       0.38673630
N        0.15637744       0.14695314       0.79087451
C       -0.09396571       0.88942319      -0.31761592
O        0.39329144       1.93456625      -0.68361866
N       -1.08523081       0.22428570      -1.07227686
C       -2.20358882      -0.09831124      -0.38190737
N       -1.95045896      -0.63328366       0.75139943
H        2.44376888       0.32320437      -0.50688027
H        2.54071582      -1.28754899       0.09229698
H        2.99867076       0.08490875       1.11799883
H        1.24801880      -0.59231041       1.16778378
H       -0.83459995      -0.22718008      -1.93345096
H       -3.14257443       0.28073258      -0.77285382
H       -2.74272005      -0.77597001       1.36151402
14
Frame=11 idx=008992 GeodesicLength=0.942883038437083 rxn_smarts="[C:1]([N:2]([C:3](=[O:4])[N:5](/[C:6](=[N:7]/[H:14])[H:13])[H:12])[H:11])([H:8])([H:9])[H:10]>>[C:1]([H:8])([H:9])([H:10])[H:11].[n:2]1[c:3]([O-:4])[n+:5]([H:12])[c:6]([H:13])[n:7]1[H:14]"
C        2.25794152      -0.25901085       0.38645335
N        0.16370588       0.19081072       0.79345680
C       -0.09995606       0.90038154      -0.33375185
O        0.34699388       1.95895766      -0.70958617
N       -1.06515823       0.18291254      -1.07489811
C       -2.19108607      -0.10270293      -0.37977585
N       -1.93977566      -0.60300708       0.77140369
H        2.47155901       0.43741819      -0.42003145
H        2.52064453      -1.23423815      -0.03310412
H        2.97764887      -0.02049122       1.16968971
H        1.19922770      -0.67361062       1.10536253
H       -0.78841820      -0.34481287      -1.88330404
H       -3.12144969       0.28728962      -0.77900325
H       -2.73187747      -0.71989655       1.38708874
14
Frame=12 idx=008992 GeodesicLength=1.0341286028437633 rxn_smarts="[C:1]([N:2]([C:3](=[O:4])[N:5](/[C:6](=[N:7]/[H:14])[H:13])[H:12])[H:11])([H:8])([H:9])[H:10]>>[C:1]([H:8])([H:9])([H:10])[H:11].[n:2]1[c:3]([O-:4])[n+:5]([H:12])[c:6]([H:13])[n:7]1[H:14]"
C        2.24709617      -0.24913012       0.38941331
N        0.17277590       0.22590821       0.78964068
C       -0.10464312       0.90565223      -0.35339594
O        0.30424977       1.97469241      -0.74024063
N       -1.04857061       0.14247770      -1.07725241
C       -2.18072150      -0.10519468      -0.37675956
N       -1.92969326      -0.57380462       0.78947753
H        2.49628366       0.54097821      -0.31534932
H        2.51062897      -1.16476443      -0.14816661
H        2.95508079      -0.13003935       1.20992989
H        1.15171488      -0.74387989       1.03293883
H       -0.75135439      -0.45446183      -1.82853187
H       -3.10226868       0.29730143      -0.78253554
H       -2.72057859      -0.66573527       1.41083164
14
Frame=13 idx=008992 GeodesicLength=1.1265649229181083 rxn_smarts="[C:1]([N:2]([C:3](=[O:4])[N:5](/[C:6](=[N:7]/[H:14])[H:13])[H:12])[H:11])([H:8])([H:9])[H:10]>>[C:1]([H:8])([H:9])([H:10])[H:11].[n:2]1[c:3]([O-:4])[n+:5]([H:12])[c:6]([H:13])[n:7]1[H:14]"
C        2.23811720      -0.24067096       0.39394193
N        0.18239551       0.25404646       0.78200053
C       -0.10876892       0.90721958      -0.37419385
O        0.26488860       1.98421923      -0.77215008
N       -1.03424893       0.10353382      -1.07934593
C       -2.17163313      -0.10690167      -0.37405239
N       -1.91987430      -0.54743607       0.80466153
H        2.51369077       0.62932268      -0.19963317
H        2.50834114      -1.08296167      -0.25022132
H        2.93227852      -0.23932851       1.23483403
H        1.10758688      -0.80255310       0.95692671
H       -0.72050457      -0.55531078      -1.77016914
H       -3.08411738       0.30915496      -0.78519728
H       -2.70815140      -0.61233398       1.43259842
14
Frame=14 idx=008992 GeodesicLength=1.2199982506022768 rxn_smarts="[C:1]([N:2]([C:3](=[O:4])[N:5](/[C:6](=[N:7]/[H:14])[H:13])[H:12])[H:11])([H:8])([H:9])[H:10]>>[C:1]([H:8])([H:9])([H:10])[H:11].[n:2]1[c:3]([O-:4])[n+:5]([H:12])[c:6]([H:13])[n:7]1[H:14]"
C        2.22952742      -0.23418783       0.39882373
N        0.19187018       0.27818058       0.77293904
C       -0.11265265       0.90727834      -0.39446870
O        0.22837547       1.99032389      -0.80311892
N       -1.02064141       0.06659290      -1.08086226
C       -2.16272988      -0.10846367      -0.37218445
N       -1.90978806      -0.52446383       0.81690969
H        2.52228480       0.69969372      -0.08025327
H        2.50925692      -0.99373157      -0.33792136
H        2.91111631      -0.34471303       1.24286684
H        1.06709328      -0.85001571       0.88345597
H       -0.69330368      -0.64650311      -1.70927768
H       -3.06609960       0.32063861      -0.78862234
H       -2.69430911      -0.56062928       1.45171372
14
Frame=15 idx=008992 GeodesicLength=1.31433697478682 rxn_smarts="[C:1]([N:2]([C:3](=[O:4])[N:5](/[C:6](=[N:7]/[H:14])[H:13])[H:12])[H:11])([H:8])([H:9])[H:10]>>[C:1]([H:8])([H:9])([H:10])[H:11].[n:2]1[c:3]([O-:4])[n+:5]([H:12])[c:6]([H:13])[n:7]1[H:14]"
C        2.22041102      -0.22979225       0.40312866
N        0.20090247       0.30043493       0.76395896
C       -0.11653138       0.90730761      -0.41320372
O        0.19342630       1.99529857      -0.83146865
N       -1.00654778       0.03186945      -1.08158164
C       -2.15320641      -0.11056796      -0.37149357
N       -1.89917162      -0.50486806       0.82649482
H        2.52309500       0.75197127       0.03687959
H        2.50986377      -0.90145483      -0.41144878
H        2.89237801      -0.44375295       1.23502024
H        1.02935774      -0.88806197       0.81618877
H       -0.66741116      -0.72785017      -1.64664959
H       -3.04762325       0.33001871      -0.79383434
H       -2.67894271      -0.51055235       1.46800925
14
Frame=16 idx=008992 GeodesicLength=1.4092602762012203 rxn_smarts="[C:1]([N:2]([C:3](=[O:4])[N:5](/[C:6](=[N:7]/[H:14])[H:13])[H:12])[H:11])([H:8])([H:9])[H:10]>>[C:1]([H:8])([H:9])([H:10])[H:11].[n:2]1[c:3]([O-:4])[n+:5]([H:12])[c:6]([H:13])[n:7]1[H:14]"
C        2.21099088      -0.22710572       0.40671569
N        0.20954932       0.32091894       0.75488535
C       -0.12030661       0.90704404      -0.43087445
O        0.15881946       1.99968460      -0.85692948
N       -0.99218145      -0.00098600      -1.08180743
C       -2.14327717      -0.11327600      -0.37186154
N       -1.88818619      -0.48822651       0.83386164
H        2.51822853       0.78852329       0.14978155
H        2.51068575      -0.80824870      -0.47159259
H        2.87562606      -0.53495287       1.21481438
H        0.99382101      -0.91972838       0.75486548
H       -0.64299356      -0.80023724      -1.58359688
H       -3.02885915       0.33786803      -0.80026561
H       -2.66191687      -0.46127747       1.48200389
