10
Frame=0 idx=002216 GeodesicLength=0.0 rxn_smarts="[C:1](#[C:2][C@@:3]1([H:7])[C:4]([H:8])([H:9])[N:5]1[H:10])[H:6]>>[C+:1](=[C:2]=[C:3]([N:5]([C-:4]([H:8])[H:9])[H:10])[H:7])[H:6]"
C        2.31315481       0.02103031       0.28220404
C        1.14945180      -0.28037409       0.36583088
C       -0.18906993      -0.72092269       0.51052215
C       -1.17491917       0.85523631      -0.35491851
N       -1.15381029      -0.48320629      -0.44444149
H        3.33695044       0.29475861       0.19457655
H       -0.40692752      -1.42138991       1.31150122
H       -0.97475587       1.49740240      -1.21027840
H       -1.49055069       1.29680809       0.57699062
H       -1.40952358      -1.05934272      -1.23198707
10
Frame=1 idx=002216 GeodesicLength=0.025133701614835857 rxn_smarts="[C:1](#[C:2][C@@:3]1([H:7])[C:4]([H:8])([H:9])[N:5]1[H:10])[H:6]>>[C+:1](=[C:2]=[C:3]([N:5]([C-:4]([H:8])[H:9])[H:10])[H:7])[H:6]"
C        2.30944060       0.02115248       0.27345369
C        1.15136035      -0.30447081       0.33931432
C       -0.19209006      -0.72083963       0.50707373
C       -1.16672658       0.85323538      -0.34853564
N       -1.17420244      -0.48720414      -0.43165137
H        3.32971999       0.31668479       0.22232236
H       -0.40560602      -1.42158033       1.30873178
H       -0.98324871       1.48177895      -1.21700835
H       -1.46308625       1.31376999       0.58054887
H       -1.40556087      -1.05252668      -1.23424939
10
Frame=2 idx=002216 GeodesicLength=0.050536483605594255 rxn_smarts="[C:1](#[C:2][C@@:3]1([H:7])[C:4]([H:8])([H:9])[N:5]1[H:10])[H:6]>>[C+:1](=[C:2]=[C:3]([N:5]([C-:4]([H:8])[H:9])[H:10])[H:7])[H:6]"
C        2.30444956       0.02590385       0.26446840
C        1.15356864      -0.32675163       0.31270098
C       -0.19379585      -0.72045690       0.50260459
C       -1.15866246       0.85094795      -0.34262495
N       -1.19301737      -0.49093236      -0.41962946
H        3.32279075       0.33269253       0.25183347
H       -0.40288600      -1.42121873       1.30516951
H       -0.99324186       1.46681641      -1.22309577
H       -1.43602106       1.32931355       0.58334692
H       -1.40318436      -1.04631465      -1.23477369
10
Frame=3 idx=002216 GeodesicLength=0.07511179977079077 rxn_smarts="[C:1](#[C:2][C@@:3]1([H:7])[C:4]([H:8])([H:9])[N:5]1[H:10])[H:6]>>[C+:1](=[C:2]=[C:3]([N:5]([C-:4]([H:8])[H:9])[H:10])[H:7])[H:6]"
C        2.30257101       0.02195579       0.25558199
C        1.15506713      -0.34254349       0.29267230
C       -0.19511922      -0.71803924       0.49930594
C       -1.15227683       0.84872550      -0.33696895
N       -1.20866046      -0.49420088      -0.40937686
H        3.31488926       0.34758052       0.27537917
H       -0.40081504      -1.41974656       1.30169230
H       -1.00403165       1.45388829      -1.22725855
H       -1.41518157       1.34254869       0.58513968
H       -1.39644262      -1.04016863      -1.23616701
10
Frame=4 idx=002216 GeodesicLength=0.09944201235521022 rxn_smarts="[C:1](#[C:2][C@@:3]1([H:7])[C:4]([H:8])([H:9])[N:5]1[H:10])[H:6]>>[C+:1](=[C:2]=[C:3]([N:5]([C-:4]([H:8])[H:9])[H:10])[H:7])[H:6]"
C        2.30107808       0.02102745       0.24776902
C        1.15628668      -0.35247736       0.27578201
C       -0.19567958      -0.71391119       0.49612557
C       -1.14817938       0.84623609      -0.33160783
N       -1.22229184      -0.49758626      -0.40046835
H        3.31054131       0.35271264       0.29635115
H       -0.39769319      -1.41728266       1.29776758
H       -1.01717939       1.44212311      -1.23022727
H       -1.39949843       1.35377101       0.58632553
H       -1.38738426      -1.03461282      -1.23781741
10
Frame=5 idx=002216 GeodesicLength=0.12365133642987469 rxn_smarts="[C:1](#[C:2][C@@:3]1([H:7])[C:4]([H:8])([H:9])[N:5]1[H:10])[H:6]>>[C+:1](=[C:2]=[C:3]([N:5]([C-:4]([H:8])[H:9])[H:10])[H:7])[H:6]"
C        2.30038070       0.01817104       0.24097264
C        1.15736055      -0.36104427       0.26086480
C       -0.19613646      -0.70958944       0.49302532
C       -1.14423175       0.84372905      -0.32649624
N       -1.23473437      -0.50083891      -0.39239174
H        3.30563565       0.35815127       0.31489794
H       -0.39506997      -1.41469627       1.29369498
H       -1.02987514       1.43105694      -1.23241510
H       -1.38516483       1.36420384       0.58702026
H       -1.37816438      -1.02914324      -1.23917286
10
Frame=6 idx=002216 GeodesicLength=0.1478032717277229 rxn_smarts="[C:1](#[C:2][C@@:3]1([H:7])[C:4]([H:8])([H:9])[N:5]1[H:10])[H:6]>>[C+:1](=[C:2]=[C:3]([N:5]([C-:4]([H:8])[H:9])[H:10])[H:7])[H:6]"
C        2.30013830       0.01447061       0.23470759
C        1.15838805      -0.36871426       0.24697757
C       -0.19642619      -0.70520436       0.48980453
C       -1.14039215       0.84118153      -0.32162009
N       -1.24635139      -0.50401027      -0.38488976
H        3.30033151       0.36357798       0.33236787
H       -0.39260738      -1.41201672       1.28943526
H       -1.04224811       1.42045225      -1.23404002
H       -1.37149526       1.37409295       0.58731416
H       -1.36933737      -1.02382971      -1.24005711
10
Frame=7 idx=002216 GeodesicLength=0.1719150323473559 rxn_smarts="[C:1](#[C:2][C@@:3]1([H:7])[C:4]([H:8])([H:9])[N:5]1[H:10])[H:6]>>[C+:1](=[C:2]=[C:3]([N:5]([C-:4]([H:8])[H:9])[H:10])[H:7])[H:6]"
C        2.30032315       0.01009870       0.22895612
C        1.15939253      -0.37554955       0.23389368
C       -0.19654868      -0.70075312       0.48644346
C       -1.13670364       0.83859469      -0.31695191
N       -1.25725957      -0.50712768      -0.37788370
H        3.29477072       0.36883482       0.34898428
H       -0.39022278      -1.40919425       1.28503304
H       -1.05447061       1.41024745      -1.23517754
H       -1.35841417       1.38350440       0.58726098
H       -1.36086696      -1.01865545      -1.24055839
10
Frame=8 idx=002216 GeodesicLength=0.19601787728095144 rxn_smarts="[C:1](#[C:2][C@@:3]1([H:7])[C:4]([H:8])([H:9])[N:5]1[H:10])[H:6]>>[C+:1](=[C:2]=[C:3]([N:5]([C-:4]([H:8])[H:9])[H:10])[H:7])[H:6]"
C        2.30088511       0.00486375       0.22360781
C        1.16040916      -0.38204517       0.22126972
C       -0.19653137      -0.69639259       0.48289399
C       -1.13296053       0.83599066      -0.31247317
N       -1.26762801      -0.51016440      -0.37123314
H        3.28854156       0.37469702       0.36509957
H       -0.38793692      -1.40632707       1.28049645
H       -1.06642263       1.40034561      -1.23592747
H       -1.34534843       1.39262017       0.58689576
H       -1.35300794      -1.01358797      -1.24062953
10
Frame=9 idx=002216 GeodesicLength=0.22013940974488974 rxn_smarts="[C:1](#[C:2][C@@:3]1([H:7])[C:4]([H:8])([H:9])[N:5]1[H:10])[H:6]>>[C+:1](=[C:2]=[C:3]([N:5]([C-:4]([H:8])[H:9])[H:10])[H:7])[H:6]"
C        2.30162409      -0.00112850       0.21881939
C        1.16144032      -0.38871110       0.20895499
C       -0.19644036      -0.69233351       0.47913522
C       -1.12892140       0.83337125      -0.30816703
N       -1.27759234      -0.51309412      -0.36484033
H        3.28125375       0.38183358       0.38063892
H       -0.38587968      -1.40359009       1.27582381
H       -1.07781553       1.39067543      -1.23634219
H       -1.33170795       1.40157169       0.58624260
H       -1.34596090      -1.00859464      -1.24026538
10
Frame=10 idx=002216 GeodesicLength=0.24430542691748078 rxn_smarts="[C:1](#[C:2][C@@:3]1([H:7])[C:4]([H:8])([H:9])[N:5]1[H:10])[H:6]>>[C+:1](=[C:2]=[C:3]([N:5]([C-:4]([H:8])[H:9])[H:10])[H:7])[H:6]"
C        2.30241759      -0.00765289       0.21456508
C        1.16249572      -0.39570265       0.19685383
C       -0.19628322      -0.68863483       0.47516191
C       -1.12451969       0.83073174      -0.30401829
N       -1.28722065      -0.51591036      -0.35863919
H        3.27280044       0.39026142       0.39568662
H       -0.38404425      -1.40103222       1.27102508
H       -1.08863650       1.38120118      -1.23645291
H       -1.31727042       1.41040627       0.58531097
H       -1.33973902      -1.00366767      -1.23949310
10
Frame=11 idx=002216 GeodesicLength=0.26849781857056454 rxn_smarts="[C:1](#[C:2][C@@:3]1([H:7])[C:4]([H:8])([H:9])[N:5]1[H:10])[H:6]>>[C+:1](=[C:2]=[C:3]([N:5]([C-:4]([H:8])[H:9])[H:10])[H:7])[H:6]"
C        2.30318159      -0.01338468       0.21049454
C        1.16361334      -0.40203724       0.18470851
C       -0.19586919      -0.68490497       0.47089245
C       -1.12032490       0.82802210      -0.30006174
N       -1.29650147      -0.51873997      -0.35259418
H        3.26443471       0.39748030       0.41112995
H       -0.38183262      -1.39834070       1.26604647
H       -1.09986485       1.37185528      -1.23633463
H       -1.30272981       1.41902348       0.58406090
H       -1.33410680      -0.99897360      -1.23834228
10
Frame=12 idx=002216 GeodesicLength=0.29268720053568986 rxn_smarts="[C:1](#[C:2][C@@:3]1([H:7])[C:4]([H:8])([H:9])[N:5]1[H:10])[H:6]>>[C+:1](=[C:2]=[C:3]([N:5]([C-:4]([H:8])[H:9])[H:10])[H:7])[H:6]"
C        2.30421849      -0.01933603       0.20680320
C        1.16474304      -0.40767797       0.17291099
C       -0.19530976      -0.68106308       0.46652383
C       -1.11634451       0.82529983      -0.29624216
N       -1.30535498      -0.52154916      -0.34677830
H        3.25599179       0.40417093       0.42621061
H       -0.37948635      -1.39555565       1.26094618
H       -1.11122729       1.36274215      -1.23590294
H       -1.28855704       1.42738401       0.58251618
H       -1.32867339      -0.99441504      -1.23698759
10
Frame=13 idx=002216 GeodesicLength=0.3168406130756278 rxn_smarts="[C:1](#[C:2][C@@:3]1([H:7])[C:4]([H:8])([H:9])[N:5]1[H:10])[H:6]>>[C+:1](=[C:2]=[C:3]([N:5]([C-:4]([H:8])[H:9])[H:10])[H:7])[H:6]"
C        2.30516024      -0.02283068       0.20275647
C        1.16594234      -0.41120663       0.16099529
C       -0.19432846      -0.67658382       0.46187428
C       -1.11342431       0.82245376      -0.29264878
N       -1.31379660      -0.52459616      -0.34112424
H        3.24966284       0.40619916       0.44257656
H       -0.37609572      -1.39217037       1.25567083
H       -1.12413718       1.35365796      -1.23530638
H       -1.27569271       1.43536601       0.58058915
H       -1.32329045      -0.99028923      -1.23538318
10
Frame=14 idx=002216 GeodesicLength=0.34095660837843805 rxn_smarts="[C:1](#[C:2][C@@:3]1([H:7])[C:4]([H:8])([H:9])[N:5]1[H:10])[H:6]>>[C+:1](=[C:2]=[C:3]([N:5]([C-:4]([H:8])[H:9])[H:10])[H:7])[H:6]"
C        2.30617246      -0.02617117       0.19910242
C        1.16708092      -0.41405944       0.14970262
C       -0.19334549      -0.67202365       0.45724875
C       -1.11078211       0.81957410      -0.28912529
N       -1.32184500      -0.52769305      -0.33573737
H        3.24361314       0.40752524       0.45809153
H       -0.37277549      -1.38872745       1.25037374
H       -1.13672348       1.34478761      -1.23434769
H       -1.26352615       1.44303499       0.57843834
H       -1.31786878      -0.98624719      -1.23374704
10
Frame=15 idx=002216 GeodesicLength=0.3650476039721019 rxn_smarts="[C:1](#[C:2][C@@:3]1([H:7])[C:4]([H:8])([H:9])[N:5]1[H:10])[H:6]>>[C+:1](=[C:2]=[C:3]([N:5]([C-:4]([H:8])[H:9])[H:10])[H:7])[H:6]"
C        2.30729992      -0.02983084       0.19609302
C        1.16816024      -0.41655642       0.13902541
C       -0.19241257      -0.66750387       0.45265099
C       -1.10823719       0.81668697      -0.28565902
N       -1.32954918      -0.53079202      -0.33060589
H        3.23751710       0.40896373       0.47252214
H       -0.36967410      -1.38534882       1.24503735
H       -1.14890086       1.33614009      -1.23305677
H       -1.25171361       1.45046559       0.57608902
H       -1.31248975      -0.98222440      -1.23209624
10
Frame=16 idx=002216 GeodesicLength=0.3891203550973531 rxn_smarts="[C:1](#[C:2][C@@:3]1([H:7])[C:4]([H:8])([H:9])[N:5]1[H:10])[H:6]>>[C+:1](=[C:2]=[C:3]([N:5]([C-:4]([H:8])[H:9])[H:10])[H:7])[H:6]"
C        2.30850186      -0.03342767       0.19347362
C        1.16921094      -0.41852732       0.12874285
C       -0.19145956      -0.66294195       0.44802458
C       -1.10590040       0.81378208      -0.28226763
N       -1.33694803      -0.53392840      -0.32566810
H        3.23163436       0.40992785       0.48641245
H       -0.36657880      -1.38194647       1.23964297
H       -1.16098182       1.32764797      -1.23150083
H       -1.24026833       1.45769220       0.57351899
H       -1.30721022      -0.97827830      -1.23037890
