11
Frame=0 idx=000526 GeodesicLength=0.0 rxn_smarts="[O:1]=[C:2]1[C:3]([H:7])([H:8])[N:4]2[C:5]([H:9])([H:10])[C@@:6]12[H:11]>>[O:1]=[C:2]1[C:3]([H:7])([H:8])[N+:4]2([H:10])[C-:5]([H:9])[C@@:6]12[H:11]"
O       -1.64032205       1.45091116       0.83857081
C       -0.83351146       0.65607068       0.47768468
C       -0.86720686      -0.54917429      -0.47727164
N        0.46806770      -0.92369688       0.07253013
C        1.46477879       0.43763194      -0.30322780
C        0.58648483       0.31776300       0.87721278
H       -1.63521624      -1.27007841      -0.18960578
H       -0.89237361      -0.38665627      -1.55374614
H        0.94246425       0.91195876      -1.14058650
H        1.44992223      -0.95310494      -0.49808377
H        0.95691246       0.30837527       1.89652323
11
Frame=1 idx=000526 GeodesicLength=0.05812388882701651 rxn_smarts="[O:1]=[C:2]1[C:3]([H:7])([H:8])[N:4]2[C:5]([H:9])([H:10])[C@@:6]12[H:11]>>[O:1]=[C:2]1[C:3]([H:7])([H:8])[N+:4]2([H:10])[C-:5]([H:9])[C@@:6]12[H:11]"
O       -1.64553780       1.44951877       0.84373598
C       -0.83710764       0.65761773       0.47953768
C       -0.86995270      -0.54574390      -0.47793691
N        0.46908477      -0.91591926       0.06352934
C        1.45836792       0.42959153      -0.30681764
C        0.58273186       0.32073416       0.87738386
H       -1.63393279      -1.26992813      -0.18793574
H       -0.90030186      -0.38097987      -1.55397580
H        0.94655463       0.91223423      -1.14530390
H        1.47378453      -0.96493509      -0.48760459
H        0.95630908       0.30780982       1.89538772
11
Frame=2 idx=000526 GeodesicLength=0.11624280266648228 rxn_smarts="[O:1]=[C:2]1[C:3]([H:7])([H:8])[N:4]2[C:5]([H:9])([H:10])[C@@:6]12[H:11]>>[O:1]=[C:2]1[C:3]([H:7])([H:8])[N+:4]2([H:10])[C-:5]([H:9])[C@@:6]12[H:11]"
O       -1.65065155       1.44806402       0.84898037
C       -0.84066856       0.65909725       0.48137528
C       -0.87278206      -0.54234176      -0.47864937
N        0.47006184      -0.90824683       0.05428588
C        1.45199545       0.42155156      -0.31060896
C        0.57905194       0.32359029       0.87734236
H       -1.63267598      -1.26981368      -0.18629884
H       -0.90840322      -0.37524949      -1.55421506
H        0.95076107       0.91253078      -1.15006608
H        1.49749885      -0.97627709      -0.47616010
H        0.95581221       0.30709494       1.89401454
11
Frame=3 idx=000526 GeodesicLength=0.17435825254664988 rxn_smarts="[O:1]=[C:2]1[C:3]([H:7])([H:8])[N:4]2[C:5]([H:9])([H:10])[C@@:6]12[H:11]>>[O:1]=[C:2]1[C:3]([H:7])([H:8])[N+:4]2([H:10])[C-:5]([H:9])[C@@:6]12[H:11]"
O       -1.65562908       1.44654816       0.85426008
C       -0.84417904       0.66049318       0.48319781
C       -0.87567992      -0.53897957      -0.47939473
N        0.47098586      -0.90068585       0.04484055
C        1.44566396       0.41351757      -0.31457274
C        0.57544694       0.32632373       0.87709651
H       -1.63144325      -1.26973848      -0.18469561
H       -0.91664599      -0.36948642      -1.55443771
H        0.95509036       0.91285210      -1.15483004
H        1.52097793      -0.98709089      -0.46386558
H        0.95541223       0.30624649       1.89240146
11
Frame=4 idx=000526 GeodesicLength=0.232421722371082 rxn_smarts="[O:1]=[C:2]1[C:3]([H:7])([H:8])[N:4]2[C:5]([H:9])([H:10])[C@@:6]12[H:11]>>[O:1]=[C:2]1[C:3]([H:7])([H:8])[N+:4]2([H:10])[C-:5]([H:9])[C@@:6]12[H:11]"
O       -1.66048281       1.44494991       0.85959028
C       -0.84763708       0.66180596       0.48499930
C       -0.87863676      -0.53565620      -0.48017012
N        0.47185588      -0.89324702       0.03522364
C        1.43939027       0.40547930      -0.31870169
C        0.57192026       0.32893349       0.87664798
H       -1.63023964      -1.26968683      -0.18312816
H       -0.92501131      -0.36369384      -1.55463927
H        0.95956777       0.91316040      -1.15960212
H        1.54416740      -0.99732104      -0.45077395
H        0.95510600       0.30527589       1.89055412
11
Frame=5 idx=000526 GeodesicLength=0.290465443839772 rxn_smarts="[O:1]=[C:2]1[C:3]([H:7])([H:8])[N:4]2[C:5]([H:9])([H:10])[C@@:6]12[H:11]>>[O:1]=[C:2]1[C:3]([H:7])([H:8])[N+:4]2([H:10])[C-:5]([H:9])[C@@:6]12[H:11]"
O       -1.66520858       1.44330843       0.86495160
C       -0.85104097       0.66304090       0.48679220
C       -0.88163601      -0.53238552      -0.48097266
N        0.47267518      -0.88595143       0.02547771
C        1.43317131       0.39744346      -0.32297163
C        0.56847225       0.33142048       0.87602821
H       -1.62905397      -1.26967256      -0.18160382
H       -0.93347075      -0.35789414      -1.55482887
H        0.96418346       0.91346391      -1.16436918
H        1.56701640      -1.00697899      -0.43701973
H        0.95489169       0.30420546       1.88851618
11
Frame=6 idx=000526 GeodesicLength=0.34851181813935495 rxn_smarts="[O:1]=[C:2]1[C:3]([H:7])([H:8])[N:4]2[C:5]([H:9])([H:10])[C@@:6]12[H:11]>>[O:1]=[C:2]1[C:3]([H:7])([H:8])[N+:4]2([H:10])[C-:5]([H:9])[C@@:6]12[H:11]"
O       -1.66982351       1.44162931       0.87033885
C       -0.85439648       0.66420022       0.48857999
C       -0.88467115      -0.52917032      -0.48179783
N        0.47344420      -0.87880897       0.01564322
C        1.42702059       0.38940318      -0.32736324
C        0.56510500       0.33378607       0.87525792
H       -1.62789497      -1.26968645      -0.18012364
H       -0.94200424      -0.35210118      -1.55500937
H        0.96895117       0.91373836      -1.16912636
H        1.58950082      -1.01604436      -0.42271652
H        0.95476857       0.30305414       1.88631699
11
Frame=7 idx=000526 GeodesicLength=0.406540138100022 rxn_smarts="[O:1]=[C:2]1[C:3]([H:7])([H:8])[N:4]2[C:5]([H:9])([H:10])[C@@:6]12[H:11]>>[O:1]=[C:2]1[C:3]([H:7])([H:8])[N+:4]2([H:10])[C-:5]([H:9])[C@@:6]12[H:11]"
O       -1.67427979       1.43988988       0.87570687
C       -0.85768134       0.66526619       0.49035370
C       -0.88772653      -0.52601371      -0.48262433
N        0.47413172      -0.87180998       0.00576195
C        1.42092488       0.38136842      -0.33184189
C        0.56180869       0.33602903       0.87433451
H       -1.62676166      -1.26972321      -0.17868422
H       -0.95057072      -0.34632682      -1.55513200
H        0.97388018       0.91397489      -1.17382239
H        1.61156535      -1.02449148      -0.40798083
H        0.95470921       0.30183680       1.88392864
11
Frame=8 idx=000526 GeodesicLength=0.46456081803601157 rxn_smarts="[O:1]=[C:2]1[C:3]([H:7])([H:8])[N:4]2[C:5]([H:9])([H:10])[C@@:6]12[H:11]>>[O:1]=[C:2]1[C:3]([H:7])([H:8])[N+:4]2([H:10])[C-:5]([H:9])[C@@:6]12[H:11]"
O       -1.67863654       1.43810675       0.88110282
C       -0.86091404       0.66626780       0.49211970
C       -0.89079886      -0.52291402      -0.48346501
N        0.47475739      -0.86497510      -0.00413526
C        1.41489890       0.37332824      -0.33640299
C        0.55858750       0.33816293       0.87328955
H       -1.62565789      -1.26977632      -0.17729518
H       -0.95916553      -0.34057486      -1.55523883
H        0.97897961       0.91413863      -1.17849834
H        1.63322536      -1.03233948      -0.39289001
H        0.95472409       0.30057543       1.88141355
11
Frame=9 idx=000526 GeodesicLength=0.5225674021046125 rxn_smarts="[O:1]=[C:2]1[C:3]([H:7])([H:8])[N:4]2[C:5]([H:9])([H:10])[C@@:6]12[H:11]>>[O:1]=[C:2]1[C:3]([H:7])([H:8])[N+:4]2([H:10])[C-:5]([H:9])[C@@:6]12[H:11]"
O       -1.68288832       1.43625297       0.88652674
C       -0.86408747       0.66720593       0.49386721
C       -0.89388175      -0.51986568      -0.48431006
N        0.47530072      -0.85830177      -0.01401818
C        1.40894023       0.36527656      -0.34102734
C        0.55543323       0.34019117       0.87212249
H       -1.62459197      -1.26982668      -0.17595428
H       -0.96776631      -0.33484787      -1.55530776
H        0.98426618       0.91419769      -1.18314200
H        1.65447997      -1.03956360      -0.37751753
H        0.95479550       0.29928127       1.87876072
11
Frame=10 idx=000526 GeodesicLength=0.580565152843942 rxn_smarts="[O:1]=[C:2]1[C:3]([H:7])([H:8])[N:4]2[C:5]([H:9])([H:10])[C@@:6]12[H:11]>>[O:1]=[C:2]1[C:3]([H:7])([H:8])[N+:4]2([H:10])[C-:5]([H:9])[C@@:6]12[H:11]"
O       -1.68702787       1.43436113       0.89195133
C       -0.86720489       0.66807763       0.49561045
C       -0.89697063      -0.51687495      -0.48515606
N        0.47575844      -0.85179722      -0.02385454
C        1.40303938       0.35721980      -0.34569267
C        0.55234312       0.34211659       0.87086076
H       -1.62356707      -1.26988206      -0.17466859
H       -0.97635492      -0.32915995      -1.55534374
H        0.98972648       0.91414988      -1.18773826
H        1.67533556      -1.04618169      -0.36197342
H        0.95492242       0.29797085       1.87600475
11
Frame=11 idx=000526 GeodesicLength=0.6385550713398822 rxn_smarts="[O:1]=[C:2]1[C:3]([H:7])([H:8])[N:4]2[C:5]([H:9])([H:10])[C@@:6]12[H:11]>>[O:1]=[C:2]1[C:3]([H:7])([H:8])[N+:4]2([H:10])[C-:5]([H:9])[C@@:6]12[H:11]"
O       -1.69105791       1.43244628       0.89735303
C       -0.87027098       0.66888199       0.49735388
C       -0.90006296      -0.51394060      -0.48599241
N        0.47612585      -0.84546030      -0.03361845
C        1.39719254       0.34915824      -0.35038092
C        0.54931028       0.34393752       0.86951746
H       -1.62259012      -1.26993381      -0.17343104
H       -0.98491160      -0.32352138      -1.55533436
H        0.99536057       0.91398197      -1.19227162
H        1.69581324      -1.05219440      -0.34635050
H        0.95509108       0.29664448       1.87315493
11
Frame=12 idx=000526 GeodesicLength=0.6965378243303444 rxn_smarts="[O:1]=[C:2]1[C:3]([H:7])([H:8])[N:4]2[C:5]([H:9])([H:10])[C@@:6]12[H:11]>>[O:1]=[C:2]1[C:3]([H:7])([H:8])[N+:4]2([H:10])[C-:5]([H:9])[C@@:6]12[H:11]"
O       -1.69498443       1.43050852       0.90274375
C       -0.87328817       0.66962625       0.49909833
C       -0.90316107      -0.51105917      -0.48682155
N        0.47639065      -0.83929845      -0.04329199
C        1.39139444       0.34108650      -0.35508085
C        0.54632964       0.34565960       0.86810473
H       -1.62167310      -1.26997484      -0.17224841
H       -0.99343192      -0.31792984      -1.55528667
H        1.00117013       0.91366688      -1.19675132
H        1.71595457      -1.05759915      -0.33069524
H        0.95529926       0.29531371       1.87022922
11
Frame=13 idx=000526 GeodesicLength=0.7545230156415521 rxn_smarts="[O:1]=[C:2]1[C:3]([H:7])([H:8])[N:4]2[C:5]([H:9])([H:10])[C@@:6]12[H:11]>>[O:1]=[C:2]1[C:3]([H:7])([H:8])[N+:4]2([H:10])[C-:5]([H:9])[C@@:6]12[H:11]"
O       -1.69882253       1.42853402       0.90814398
C       -0.87626070       0.67031892       0.50084053
C       -0.90626562      -0.50822237      -0.48764449
N        0.47654604      -0.83330970      -0.05285936
C        1.38563996       0.33299774      -0.35978876
C        0.54339581       0.34728984       0.86662572
H       -1.62082575      -1.26999185      -0.17112738
H       -1.00191029      -0.31237593      -1.55520140
H        1.00715740       0.91318147      -1.20118437
H        1.73580262      -1.06241295      -0.31503343
H        0.95554306       0.29399081       1.86722896
11
Frame=14 idx=000526 GeodesicLength=0.8124964324684889 rxn_smarts="[O:1]=[C:2]1[C:3]([H:7])([H:8])[N:4]2[C:5]([H:9])([H:10])[C@@:6]12[H:11]>>[O:1]=[C:2]1[C:3]([H:7])([H:8])[N+:4]2([H:10])[C-:5]([H:9])[C@@:6]12[H:11]"
O       -1.70256317       1.42654661       0.91353008
C       -0.87919008       0.67095940       0.50258606
C       -0.90938252      -0.50543095      -0.48845934
N        0.47658412      -0.82749738      -0.06230996
C        1.37992056       0.32489208      -0.36448607
C        0.54050538       0.34882564       0.86509646
H       -1.62005877      -1.26998301      -0.17006708
H       -1.01034570      -0.30687139      -1.55507921
H        1.01331374       0.91251295      -1.20555836
H        1.75539731      -1.06662497      -0.29942496
H        0.95581913       0.29267102       1.86417239
11
Frame=15 idx=000526 GeodesicLength=0.8704625030187616 rxn_smarts="[O:1]=[C:2]1[C:3]([H:7])([H:8])[N:4]2[C:5]([H:9])([H:10])[C@@:6]12[H:11]>>[O:1]=[C:2]1[C:3]([H:7])([H:8])[N+:4]2([H:10])[C-:5]([H:9])[C@@:6]12[H:11]"
O       -1.70621242       1.42453517       0.91891388
C       -0.88207896       0.67155103       0.50433426
C       -0.91251171      -0.50267509      -0.48926079
N        0.47649315      -0.82185919      -0.07163445
C        1.37422850       0.31676126      -0.36917547
C        0.53764644       0.35026679       0.86351548
H       -1.61937963      -1.26993349      -0.16906026
H       -1.01872646      -0.30140154      -1.55491377
H        1.01964525       0.91163643      -1.20988735
H        1.77478748      -1.07023220      -0.28388684
H        0.95610836       0.29135084       1.86105530
11
Frame=16 idx=000526 GeodesicLength=0.9284318377258672 rxn_smarts="[O:1]=[C:2]1[C:3]([H:7])([H:8])[N:4]2[C:5]([H:9])([H:10])[C@@:6]12[H:11]>>[O:1]=[C:2]1[C:3]([H:7])([H:8])[N+:4]2([H:10])[C-:5]([H:9])[C@@:6]12[H:11]"
O       -1.70977790       1.42251945       0.92429483
C       -0.88493400       0.67210148       0.50608935
C       -0.91566392      -0.49995404      -0.49005398
N        0.47626918      -0.81640196      -0.08082812
C        1.36855889       0.30860025      -0.37384738
C        0.53481944       0.35161550       0.86189558
H       -1.61880396      -1.26984387      -0.16811634
H       -1.02706345      -0.29596823      -1.55471532
H        1.02614294       0.91054044      -1.21416901
H        1.79403472      -1.07324091      -0.26844515
H        0.95641808       0.29003190       1.85789552
