19
Frame=0 idx=010190 GeodesicLength=0.0 rxn_smarts="[C:1]([C:2]([C@@:3]1([C:4]([H:13])([H:14])[H:15])[C:5]([H:16])([H:17])[C@:6]1([O:7][H:19])[H:18])([H:11])[H:12])([H:8])([H:9])[H:10]>>[C:1]([C:2]([C@@:3]([C:4]([H:13])([H:14])[H:15])([C:5]([C:6][O:7][H:19])([H:16])[H:17])[H:18])([H:11])[H:12])([H:8])([H:9])[H:10]"
C        1.99431332       0.28396856      -0.66468586
C        1.06400843      -0.14084397       0.46579680
C       -0.37281566      -0.34313081       0.05281378
C       -0.68456070      -1.31774389      -1.06010622
C       -1.41675512      -0.22791484       1.11383320
C       -1.55546262       1.10303965       0.41708062
O       -0.85918797       2.04961710       1.13474488
H        1.63051342       1.19582077      -1.14493697
H        2.08943857      -0.48451734      -1.43383952
H        2.99577546       0.48769641      -0.28285162
H        1.08636301       0.61220648       1.25648020
H        1.42612249      -1.07118375       0.91807116
H       -0.02505278      -1.19720137      -1.92041103
H       -0.58483125      -2.34292130      -0.69077861
H       -1.71414127      -1.18800379      -1.40003061
H       -1.04004313      -0.15215218       2.13034944
H       -2.26581986      -0.89984099       1.03421193
H       -0.82705111       0.75668360      -0.58225719
H       -0.94081326       2.87642160       0.65651558
19
Frame=1 idx=010190 GeodesicLength=0.06034733874126949 rxn_smarts="[C:1]([C:2]([C@@:3]1([C:4]([H:13])([H:14])[H:15])[C:5]([H:16])([H:17])[C@:6]1([O:7][H:19])[H:18])([H:11])[H:12])([H:8])([H:9])[H:10]>>[C:1]([C:2]([C@@:3]([C:4]([H:13])([H:14])[H:15])([C:5]([C:6][O:7][H:19])([H:16])[H:17])[H:18])([H:11])[H:12])([H:8])([H:9])[H:10]"
C        1.99905207       0.27776015      -0.66947582
C        1.06314932      -0.13661683       0.46027218
C       -0.37428468      -0.33376354       0.04401938
C       -0.67976668      -1.32327868      -1.05775995
C       -1.41624026      -0.22523774       1.10942402
C       -1.55002503       1.11089194       0.42612462
O       -0.87770006       2.05789224       1.16155607
H        1.64165921       1.18941005      -1.15497026
H        2.09217689      -0.49514030      -1.43444435
H        3.00064935       0.47801317      -0.28603746
H        1.08935121       0.61910660       1.24827104
H        1.42023831      -1.06613035       0.91835597
H       -0.02392926      -1.20481463      -1.92123630
H       -0.56911726      -2.34421203      -0.67992643
H       -1.71101577      -1.20584941      -1.39718484
H       -1.03987047      -0.16491856       2.12713785
H       -2.27472621      -0.88455022       1.02195885
H       -0.83954788       0.76478884      -0.60097277
H       -0.95005282       2.88664931       0.68488820
19
Frame=2 idx=010190 GeodesicLength=0.12046040459309852 rxn_smarts="[C:1]([C:2]([C@@:3]1([C:4]([H:13])([H:14])[H:15])[C:5]([H:16])([H:17])[C@:6]1([O:7][H:19])[H:18])([H:11])[H:12])([H:8])([H:9])[H:10]>>[C:1]([C:2]([C@@:3]([C:4]([H:13])([H:14])[H:15])([C:5]([C:6][O:7][H:19])([H:16])[H:17])[H:18])([H:11])[H:12])([H:8])([H:9])[H:10]"
C        2.00358771       0.27180185      -0.67426727
C        1.06221388      -0.13229650       0.45467290
C       -0.37579972      -0.32445227       0.03506973
C       -0.67488431      -1.32895326      -1.05523255
C       -1.41586119      -0.22238423       1.10475942
C       -1.54395592       1.11892883       0.43499691
O       -0.89677795       2.06568989       1.18895457
H        1.65244139       1.18312522      -1.16498258
H        2.09482747      -0.50546344      -1.43503348
H        3.00525865       0.46877058      -0.28919994
H        1.09220571       0.62605430       1.24000200
H        1.41438444      -1.06087555       0.91856624
H       -0.02269561      -1.21279874      -1.92186346
H       -0.55341445      -2.34539881      -0.66876336
H       -1.70767585      -1.22398365      -1.39413175
H       -1.03997689      -0.17779692       2.12350133
H       -2.28369892      -0.86870685       1.00944556
H       -0.85273044       0.77247411      -0.61998544
H       -0.95744802       2.89626543       0.71349115
19
Frame=3 idx=010190 GeodesicLength=0.18031733824237112 rxn_smarts="[C:1]([C:2]([C@@:3]1([C:4]([H:13])([H:14])[H:15])[C:5]([H:16])([H:17])[C@:6]1([O:7][H:19])[H:18])([H:11])[H:12])([H:8])([H:9])[H:10]>>[C:1]([C:2]([C@@:3]([C:4]([H:13])([H:14])[H:15])([C:5]([C:6][O:7][H:19])([H:16])[H:17])[H:18])([H:11])[H:12])([H:8])([H:9])[H:10]"
C        2.00790850       0.26612519      -0.67904673
C        1.06119932      -0.12789293       0.44901011
C       -0.37736067      -0.31522142       0.02597093
C       -0.66991960      -1.33476768      -1.05252024
C       -1.41561971      -0.21935053       1.09984613
C       -1.53724515       1.12713314       0.44368347
O       -0.91649884       2.07298733       1.21683727
H        1.66283573       1.17701537      -1.17492485
H        2.09737838      -0.51543119      -1.43561874
H        3.00959353       0.46000062      -0.29232826
H        1.09491164       0.63303043       1.23169502
H        1.40856944      -1.05543508       0.91869366
H       -0.02135225      -1.22114613      -1.92228146
H       -0.53774960      -2.34648464      -0.65729835
H       -1.70412430      -1.24238955      -1.39085754
H       -1.04037849      -0.19074519       2.11943695
H       -2.29271481      -0.85232028       0.99668635
H       -0.86663492       0.77968791      -0.63927796
H       -0.96279823       2.90520462       0.74229424
19
Frame=4 idx=010190 GeodesicLength=0.23994074994027315 rxn_smarts="[C:1]([C:2]([C@@:3]1([C:4]([H:13])([H:14])[H:15])[C:5]([H:16])([H:17])[C@:6]1([O:7][H:19])[H:18])([H:11])[H:12])([H:8])([H:9])[H:10]>>[C:1]([C:2]([C@@:3]([C:4]([H:13])([H:14])[H:15])([C:5]([C:6][O:7][H:19])([H:16])[H:17])[H:18])([H:11])[H:12])([H:8])([H:9])[H:10]"
C        2.01203089       0.26071478      -0.68382056
C        1.06011306      -0.12340269       0.44328469
C       -0.37895943      -0.30607597       0.01671657
C       -0.66487249      -1.34071521      -1.04962302
C       -1.41551169      -0.21612246       1.09467935
C       -1.52987442       1.13550439       0.45216597
O       -0.93694514       2.07977191       1.24510654
H        1.67286204       1.17106177      -1.18482116
H        2.09984689      -0.52507445      -1.43619330
H        3.01367300       0.45169122      -0.29543035
H        1.09747341       0.64005492       1.22333806
H        1.40279419      -1.04980200       0.91875583
H       -0.01990169      -1.22984744      -1.92249135
H       -0.52212248      -2.34746253      -0.64553501
H       -1.70036252      -1.26106088      -1.38734655
H       -1.04108609      -0.20372397       2.11493473
H       -2.30175596      -0.83537744       0.98367111
H       -0.88128444       0.78640592      -0.65883537
H       -0.96611714       2.91346016       0.77144382
19
Frame=5 idx=010190 GeodesicLength=0.29934789677647217 rxn_smarts="[C:1]([C:2]([C@@:3]1([C:4]([H:13])([H:14])[H:15])[C:5]([H:16])([H:17])[C@:6]1([O:7][H:19])[H:18])([H:11])[H:12])([H:8])([H:9])[H:10]>>[C:1]([C:2]([C@@:3]([C:4]([H:13])([H:14])[H:15])([C:5]([C:6][O:7][H:19])([H:16])[H:17])[H:18])([H:11])[H:12])([H:8])([H:9])[H:10]"
C        2.01597440       0.25554806      -0.68859441
C        1.05896555      -0.11882692       0.43749618
C       -0.38058467      -0.29701941       0.00730052
C       -0.65974318      -1.34678331      -1.04654165
C       -1.41552690      -0.21268330       1.08925620
C       -1.52182683       1.14404045       0.46042665
O       -0.95820149       2.08603798       1.27363694
H        1.68254631       1.16523974      -1.19469150
H        2.10224992      -0.53442895      -1.43675066
H        3.01751910       0.44381770      -0.29851399
H        1.09989999       0.64714165       1.21491754
H        1.39706010      -1.04397449       0.91876631
H       -0.01834797      -1.23888722      -1.92249447
H       -0.50653382      -2.34831997      -0.63348139
H       -1.69639230      -1.27998209      -1.38357966
H       -1.04210248      -0.21668372       2.10998561
H       -2.31079615      -0.81786436       0.97039652
H       -0.89669398       0.79260840      -0.67863474
H       -0.96746560       2.92101975       0.80110000
19
Frame=6 idx=010190 GeodesicLength=0.35855509134366825 rxn_smarts="[C:1]([C:2]([C@@:3]1([C:4]([H:13])([H:14])[H:15])[C:5]([H:16])([H:17])[C@:6]1([O:7][H:19])[H:18])([H:11])[H:12])([H:8])([H:9])[H:10]>>[C:1]([C:2]([C@@:3]([C:4]([H:13])([H:14])[H:15])([C:5]([C:6][O:7][H:19])([H:16])[H:17])[H:18])([H:11])[H:12])([H:8])([H:9])[H:10]"
C        2.01976510       0.25059393      -0.69337431
C        1.05777331      -0.11417395       0.43164325
C       -0.38222079      -0.28805392      -0.00228288
C       -0.65453430      -1.35295523      -1.04327855
C       -1.41564779      -0.20901327       1.08357708
C       -1.51308344       1.15273988       0.46844822
O       -0.98034274       2.09179040       1.30227410
H        1.69192580       1.15951956      -1.20455262
H        2.10460504      -0.54353645      -1.43728769
H        3.02116177       0.43634070      -0.30158748
H        1.10221127       0.65429492       1.20642109
H        1.39137043      -1.03796059       0.91873493
H       -0.01669784      -1.24824737      -1.92229435
H       -0.49099070      -2.34904218      -0.62114938
H       -1.69221821      -1.29912759      -1.37953814
H       -1.04342168      -0.22956387       2.10458562
H       -2.31980113      -0.79976710       0.95686615
H       -0.91286602       0.79828279      -0.69864707
H       -0.96698808       2.92787934       0.83144204
19
Frame=7 idx=010190 GeodesicLength=0.41757657392234016 rxn_smarts="[C:1]([C:2]([C@@:3]1([C:4]([H:13])([H:14])[H:15])[C:5]([H:16])([H:17])[C@:6]1([O:7][H:19])[H:18])([H:11])[H:12])([H:8])([H:9])[H:10]>>[C:1]([C:2]([C@@:3]([C:4]([H:13])([H:14])[H:15])([C:5]([C:6][O:7][H:19])([H:16])[H:17])[H:18])([H:11])[H:12])([H:8])([H:9])[H:10]"
C        2.02343715       0.24580946      -0.69816671
C        1.05656074      -0.10946210       0.42572347
C       -0.38384611      -0.27918010      -0.01203796
C       -0.64925135      -1.35920789      -1.03983842
C       -1.41584656      -0.20508931       1.07764747
C       -1.50362147       1.16160206       0.47621648
O       -1.00342767       2.09704672       1.33083544
H        1.70105236       1.15386475      -1.21441540
H        2.10692984      -0.55244642      -1.43780643
H        3.02464080       0.42919928      -0.30466014
H        1.10444135       0.66150507       1.19783832
H        1.38573113      -1.03178200       0.91866578
H       -0.01496242      -1.25790392      -1.92189769
H       -0.47550711      -2.34961100      -0.60855777
H       -1.68784846      -1.31845761      -1.37520262
H       -1.04502496      -0.24229286       2.09873748
H       -2.32872581      -0.78107140       0.94309354
H       -0.92978571       0.80342625      -0.71883526
H       -0.96494574       2.93405099       0.86266043
19
Frame=8 idx=010190 GeodesicLength=0.47643079252272147 rxn_smarts="[C:1]([C:2]([C@@:3]1([C:4]([H:13])([H:14])[H:15])[C:5]([H:16])([H:17])[C@:6]1([O:7][H:19])[H:18])([H:11])[H:12])([H:8])([H:9])[H:10]>>[C:1]([C:2]([C@@:3]([C:4]([H:13])([H:14])[H:15])([C:5]([C:6][O:7][H:19])([H:16])[H:17])[H:18])([H:11])[H:12])([H:8])([H:9])[H:10]"
C        2.02702312       0.24115729      -0.70297545
C        1.05535141      -0.10470804       0.41973831
C       -0.38544083      -0.27039738      -0.02196517
C       -0.64390419      -1.36551510      -1.03623029
C       -1.41609487      -0.20089716       1.07148088
C       -1.49342976       1.17062050       0.48372655
O       -1.02752844       2.10183213       1.35913172
H        1.70997601       1.14824611      -1.22428858
H        2.10923916      -0.56120261      -1.43830921
H        3.02799467       0.42233927      -0.30773704
H        1.10662497       0.66876327       1.18916635
H        1.38014800      -1.02546136       0.91856525
H       -0.01315870      -1.26782414      -1.92131745
H       -0.46010053      -2.35001003      -0.59573371
H       -1.68329738      -1.33792799      -1.37055739
H       -1.04689013      -0.25480489       2.09245662
H       -2.33752251      -0.76178082       0.92910219
H       -0.94743667       0.80804414      -0.73915335
H       -0.96155335       2.93952681       0.89489976
19
Frame=9 idx=010190 GeodesicLength=0.535124258595196 rxn_smarts="[C:1]([C:2]([C@@:3]1([C:4]([H:13])([H:14])[H:15])[C:5]([H:16])([H:17])[C@:6]1([O:7][H:19])[H:18])([H:11])[H:12])([H:8])([H:9])[H:10]>>[C:1]([C:2]([C@@:3]([C:4]([H:13])([H:14])[H:15])([C:5]([C:6][O:7][H:19])([H:16])[H:17])[H:18])([H:11])[H:12])([H:8])([H:9])[H:10]"
C        2.03058922       0.23653509      -0.70781670
C        1.05419829      -0.09995885       0.41367302
C       -0.38695928      -0.26169381      -0.03206826
C       -0.63850071      -1.37182631      -1.03246146
C       -1.41632959      -0.19639624       1.06508887
C       -1.48245711       1.17980653       0.49097948
O       -1.05263659       2.10617806       1.38694902
H        1.71879929       1.14256699      -1.23419369
H        2.11156379      -0.56991561      -1.43880040
H        3.03129803       0.41561722      -0.31084343
H        1.10884720       0.67602397       1.18037972
H        1.37463654      -1.01905241       0.91842014
H       -0.01130726      -1.27796396      -1.92056425
H       -0.44479497      -2.35019796      -0.58271205
H       -1.67857783      -1.35744753      -1.36557470
H       -1.04895789      -0.26700820       2.08574986
H       -2.34611235      -0.74185949       0.91492157
H       -0.96574757       0.81217044      -0.75954137
H       -0.95755119       2.94442206       0.92841463
19
Frame=10 idx=010190 GeodesicLength=0.5936920495251315 rxn_smarts="[C:1]([C:2]([C@@:3]1([C:4]([H:13])([H:14])[H:15])[C:5]([H:16])([H:17])[C@:6]1([O:7][H:19])[H:18])([H:11])[H:12])([H:8])([H:9])[H:10]>>[C:1]([C:2]([C@@:3]([C:4]([H:13])([H:14])[H:15])([C:5]([C:6][O:7][H:19])([H:16])[H:17])[H:18])([H:11])[H:12])([H:8])([H:9])[H:10]"
C        2.03417658       0.23188993      -0.71269765
C        1.05312716      -0.09521650       0.40752800
C       -0.38838361      -0.25305330      -0.04234214
C       -0.63305380      -1.37809387      -1.02854802
C       -1.41652020      -0.19159091       1.05849560
C       -1.47070634       1.18914488       0.49800955
O       -1.07885692       2.11010760       1.41413100
H        1.72757952       1.13675811      -1.24418107
H        2.11393479      -0.57866787      -1.43925757
H        3.03459581       0.40898186      -0.31398674
H        1.11115243       0.68330161       1.17146336
H        1.36919891      -1.01255540       0.91825133
H       -0.00943788      -1.28825574      -1.91966328
H       -0.42959567      -2.35014133      -0.56953828
H       -1.67371271      -1.37695786      -1.36024048
H       -1.05119550      -0.27887474       2.07864583
H       -2.35445227      -0.72132626       0.90057946
H       -0.98470353       0.81584124      -0.77992519
H       -0.95314677       2.94870857       0.96327628
19
Frame=11 idx=010190 GeodesicLength=0.6521304819544511 rxn_smarts="[C:1]([C:2]([C@@:3]1([C:4]([H:13])([H:14])[H:15])[C:5]([H:16])([H:17])[C@:6]1([O:7][H:19])[H:18])([H:11])[H:12])([H:8])([H:9])[H:10]>>[C:1]([C:2]([C@@:3]([C:4]([H:13])([H:14])[H:15])([C:5]([C:6][O:7][H:19])([H:16])[H:17])[H:18])([H:11])[H:12])([H:8])([H:9])[H:10]"
C        2.03786293       0.22711443      -0.71762331
C        1.05222160      -0.09059433       0.40129980
C       -0.38964358      -0.24448059      -0.05277146
C       -0.62759245      -1.38426517      -1.02451154
C       -1.41655883      -0.18643956       1.05175062
C       -1.45808271       1.19864950       0.50484507
O       -1.10605280       2.11370140       1.44041655
H        1.73645311       1.13078457      -1.25416843
H        2.11634506      -0.58751567      -1.43975382
H        3.03798716       0.40221672      -0.31718381
H        1.11368224       0.69044156       1.16245350
H        1.36387507      -1.00613030       0.91799766
H       -0.00759064      -1.29865299      -1.91864114
H       -0.41458709      -2.34982547      -0.55628356
H       -1.66873797      -1.39631343      -1.35454306
H       -1.05348710      -0.29029273       2.07119800
H       -2.36242092      -0.70015494       0.88616822
H       -1.00416274       0.81911259      -0.80022470
H       -0.94951034       2.95264441       0.99957540
19
Frame=12 idx=010190 GeodesicLength=0.7104558201212795 rxn_smarts="[C:1]([C:2]([C@@:3]1([C:4]([H:13])([H:14])[H:15])[C:5]([H:16])([H:17])[C@:6]1([O:7][H:19])[H:18])([H:11])[H:12])([H:8])([H:9])[H:10]>>[C:1]([C:2]([C@@:3]([C:4]([H:13])([H:14])[H:15])([C:5]([C:6][O:7][H:19])([H:16])[H:17])[H:18])([H:11])[H:12])([H:8])([H:9])[H:10]"
C        2.04166828       0.22220008      -0.72258468
C        1.05150392      -0.08611585       0.39500254
C       -0.39072685      -0.23596989      -0.06333290
C       -0.62214036      -1.39029803      -1.02036682
C       -1.41641612      -0.18096355       1.04490102
C       -1.44460598       1.20828665       0.51154148
O       -1.13430571       2.11698616       1.46563370
H        1.74545649       1.12466567      -1.26411560
H        2.11878548      -0.59644574      -1.44031097
H        3.04150336       0.39527802      -0.32042888
H        1.11648032       0.69739986       1.15338607
H        1.35867803      -0.99981917       0.91764975
H       -0.00580099      -1.30908842      -1.91751891
H       -0.39979629      -2.34923476      -0.54300113
H       -1.66368897      -1.41544500      -1.34847628
H       -1.05579831      -0.30123987       2.06346464
H       -2.36996971      -0.67840327       0.87174888
H       -1.02410380       0.82202059      -0.82035369
H       -0.94672280       2.95618653       1.03716178
19
Frame=13 idx=010190 GeodesicLength=0.7686726694328662 rxn_smarts="[C:1]([C:2]([C@@:3]1([C:4]([H:13])([H:14])[H:15])[C:5]([H:16])([H:17])[C@:6]1([O:7][H:19])[H:18])([H:11])[H:12])([H:8])([H:9])[H:10]>>[C:1]([C:2]([C@@:3]([C:4]([H:13])([H:14])[H:15])([C:5]([C:6][O:7][H:19])([H:16])[H:17])[H:18])([H:11])[H:12])([H:8])([H:9])[H:10]"
C        2.04563753       0.21707624      -0.72758401
C        1.05102080      -0.08182980       0.38863445
C       -0.39159738      -0.22750188      -0.07400552
C       -0.61671757      -1.39612646      -1.01612777
C       -1.41602684      -0.17516259       1.03799082
C       -1.43025276       1.21804001       0.51816940
O       -1.16361629       2.11998202       1.48961558
H        1.75466714       1.11835373      -1.27399708
H        2.12125644      -0.60551240      -1.44094817
H        3.04520073       0.38803794      -0.32373479
H        1.11963496       0.70410295       1.14427274
H        1.35362856      -0.99368854       0.91718058
H       -0.00411217      -1.31947907      -1.91631664
H       -0.38524602      -2.34833041      -0.52975550
H       -1.65859757      -1.43424255      -1.34202166
H       -1.05805361      -0.31168327       2.05549017
H       -2.37701856      -0.65609069       0.85738614
H       -1.04446079       0.82463180      -0.84021031
H       -0.94534661       2.95942297       1.07596158
19
Frame=14 idx=010190 GeodesicLength=0.8268213456383077 rxn_smarts="[C:1]([C:2]([C@@:3]1([C:4]([H:13])([H:14])[H:15])[C:5]([H:16])([H:17])[C@:6]1([O:7][H:19])[H:18])([H:11])[H:12])([H:8])([H:9])[H:10]>>[C:1]([C:2]([C@@:3]([C:4]([H:13])([H:14])[H:15])([C:5]([C:6][O:7][H:19])([H:16])[H:17])[H:18])([H:11])[H:12])([H:8])([H:9])[H:10]"
C        2.04984069       0.21163197      -0.73263277
C        1.05084324      -0.07780372       0.38219298
C       -0.39220022      -0.21905260      -0.08475927
C       -0.61134914      -1.40166753      -1.01182214
C       -1.41529908      -0.16903823       1.03108215
C       -1.41495170       1.22790297       0.52484382
O       -1.19394954       2.12272485       1.51224206
H        1.76419248       1.11175374      -1.28381674
H        2.12377597      -0.61482263      -1.44168602
H        3.04916280       0.38032631      -0.32712748
H        1.12327565       0.71045851       1.13512702
H        1.34876102      -0.98783355       0.91655861
H       -0.00257530      -1.32972362      -1.91507231
H       -0.37097426      -2.34707239      -0.51663873
H       -1.65350454      -1.45255476      -1.33517291
H       -1.06014226      -0.32162228       2.04733485
H       -2.38347965      -0.63320743       0.84316281
H       -1.06513217       0.82704825      -0.85966804
H       -0.94629398       2.96255216       1.11585213
19
Frame=15 idx=010190 GeodesicLength=0.8849469116739338 rxn_smarts="[C:1]([C:2]([C@@:3]1([C:4]([H:13])([H:14])[H:15])[C:5]([H:16])([H:17])[C@:6]1([O:7][H:19])[H:18])([H:11])[H:12])([H:8])([H:9])[H:10]>>[C:1]([C:2]([C@@:3]([C:4]([H:13])([H:14])[H:15])([C:5]([C:6][O:7][H:19])([H:16])[H:17])[H:18])([H:11])[H:12])([H:8])([H:9])[H:10]"
C        2.05428694       0.20587706      -0.73772157
C        1.05098329      -0.07404629       0.37570126
C       -0.39253397      -0.21060718      -0.09556285
C       -0.60606204      -1.40688937      -1.00747506
C       -1.41421454      -0.16263252       1.02423634
C       -1.39873780       1.23783854       0.53165540
O       -1.22539332       2.12523765       1.53337003
H        1.77405425       1.10490000      -1.29354829
H        2.12632978      -0.62435714      -1.44254402
H        3.05340801       0.37213109      -0.33059652
H        1.12744011       0.71643868       1.12600312
H        1.34408160      -0.98228543       0.91578854
H       -0.00123221      -1.33975578      -1.91382564
H       -0.35699755      -2.34546652      -0.50371309
H       -1.64844974      -1.47033287      -1.32794863
H       -1.06203648      -0.33106846       2.03908063
H       -2.38931994      -0.60984388       0.82915009
H       -1.08610224       0.82932982      -0.87864277
H       -0.94950416       2.96553262       1.15659304
19
Frame=16 idx=010190 GeodesicLength=0.9429791447132083 rxn_smarts="[C:1]([C:2]([C@@:3]1([C:4]([H:13])([H:14])[H:15])[C:5]([H:16])([H:17])[C@:6]1([O:7][H:19])[H:18])([H:11])[H:12])([H:8])([H:9])[H:10]>>[C:1]([C:2]([C@@:3]([C:4]([H:13])([H:14])[H:15])([C:5]([C:6][O:7][H:19])([H:16])[H:17])[H:18])([H:11])[H:12])([H:8])([H:9])[H:10]"
C        2.05890472       0.19989119      -0.74282035
C        1.05138365      -0.07050339       0.36917330
C       -0.39264215      -0.20214491      -0.10638881
C       -0.60084619      -1.41176398      -1.00306810
C       -1.41280955      -0.15598632       1.01747042
C       -1.38176977       1.24777371       0.53863169
O       -1.25821419       2.12753925       1.55271510
H        1.78415196       1.09786182      -1.30314468
H        2.12887610      -0.63402048      -1.44349179
H        3.05785293       0.36354651      -0.33411806
H        1.13204207       0.72208199       1.11691329
H        1.33957098      -0.97697466       0.91487007
H       -0.00008048      -1.34952109      -1.91254377
H       -0.34325956      -2.34348502      -0.49098447
H       -1.64341821      -1.48756966      -1.32033059
H       -1.06376789      -0.33998164       2.03074915
H       -2.39452990      -0.58611790       0.81538206
H       -1.10743677       0.83147701      -0.89707314
H       -0.95400776       2.96789757       1.19805866
