15
Frame=0 idx=005031 GeodesicLength=0.0 rxn_smarts="[C:1]([C@@:2]1([H:9])[C:3]([H:10])([H:11])[C@:4]1([C:5]([H:13])([H:14])[H:15])[H:12])([H:6])([H:7])[H:8]>>[C:1]([C:2]([C:3]([H:10])([H:11])[H:12])([C:4][C:5]([H:13])([H:14])[H:15])[H:9])([H:6])([H:7])[H:8]"
C        1.32259013      -0.95797993       0.02625944
C        0.61758552       0.22194873       0.66887708
C        0.27924093       1.40868190      -0.22539870
C       -0.85935952       0.32876452       0.78547940
C       -1.64064089      -0.53024074      -0.17991180
H        0.88875889      -1.23946361      -0.93313977
H        1.27454897      -1.83017587       0.68186206
H        2.37738169      -0.73149190      -0.14132547
H        1.13773269       0.53782774       1.57214942
H        0.71346427       2.35426891       0.08410926
H        0.32959727       1.20432170      -1.29028674
H       -0.84602643       1.61269154       0.09815854
H       -2.63988468      -0.13075934      -0.35480455
H       -1.18147214      -0.77091356      -1.14662969
H       -1.77351674      -1.47748014       0.35460148
15
Frame=1 idx=005031 GeodesicLength=0.05114820291151199 rxn_smarts="[C:1]([C@@:2]1([H:9])[C:3]([H:10])([H:11])[C@:4]1([C:5]([H:13])([H:14])[H:15])[H:12])([H:6])([H:7])[H:8]>>[C:1]([C:2]([C:3]([H:10])([H:11])[H:12])([C:4][C:5]([H:13])([H:14])[H:15])[H:9])([H:6])([H:7])[H:8]"
C        1.32408942      -0.95585634       0.02540334
C        0.61628395       0.22217615       0.66780533
C        0.28041661       1.40994171      -0.22590947
C       -0.86114391       0.32890294       0.77551499
C       -1.64347574      -0.53563631      -0.18104746
H        0.89555345      -1.23404752      -0.93740979
H        1.27242172      -1.83043786       0.67759238
H        2.37951916      -0.72795235      -0.13636696
H        1.12996339       0.53710163       1.57503737
H        0.73688914       2.34773241       0.07497531
H        0.32143157       1.20565320      -1.29139526
H       -0.84954424       1.63184438       0.11991195
H       -2.64231255      -0.13703027      -0.36041567
H       -1.18232795      -0.78372295      -1.14472684
H       -1.77776400      -1.47866884       0.36103076
15
Frame=2 idx=005031 GeodesicLength=0.10229425067596551 rxn_smarts="[C:1]([C@@:2]1([H:9])[C:3]([H:10])([H:11])[C@:4]1([C:5]([H:13])([H:14])[H:15])[H:12])([H:6])([H:7])[H:8]>>[C:1]([C:2]([C:3]([H:10])([H:11])[H:12])([C:4][C:5]([H:13])([H:14])[H:15])[H:9])([H:6])([H:7])[H:8]"
C        1.32556868      -0.95369118       0.02452172
C        0.61492125       0.22243363       0.66666620
C        0.28162374       1.41129119      -0.22648970
C       -0.86297488       0.32921997       0.76524380
C       -1.64629379      -0.54109324      -0.18224344
H        0.90240562      -1.22851848      -0.94170841
H        1.27019482      -1.83066391       0.67323509
H        2.38162297      -0.72439715      -0.13132624
H        1.12203615       0.53640147       1.57784804
H        0.76001814       2.34087187       0.06548255
H        0.31325977       1.20711788      -1.29250441
H       -0.85253027       1.65086612       0.14264081
H       -2.64465443      -0.14334894      -0.36632342
H       -1.18309065      -0.79683134      -1.14271474
H       -1.78210712      -1.47965789       0.36767214
15
Frame=3 idx=005031 GeodesicLength=0.15343798617569915 rxn_smarts="[C:1]([C@@:2]1([H:9])[C:3]([H:10])([H:11])[C@:4]1([C:5]([H:13])([H:14])[H:15])[H:12])([H:6])([H:7])[H:8]>>[C:1]([C:2]([C:3]([H:10])([H:11])[H:12])([C:4][C:5]([H:13])([H:14])[H:15])[H:9])([H:6])([H:7])[H:8]"
C        1.32702217      -0.95148401       0.02361371
C        0.61349243       0.22272581       0.66545211
C        0.28287007       1.41273695      -0.22714851
C       -0.86485458       0.32973223       0.75464793
C       -1.64909426      -0.54661014      -0.18349733
H        0.90931157      -1.22287691      -0.94603522
H        1.26785768      -1.83085073       0.66879028
H        2.38368706      -0.72083036      -0.12620197
H        1.11394374       0.53572887       1.58057440
H        0.78283143       2.33370357       0.05565185
H        0.30511265       1.20872349      -1.29362254
H       -0.85496542       1.66970853       0.16634833
H       -2.64691544      -0.14973637      -0.37252444
H       -1.18376211      -0.81023936      -1.14058404
H       -1.78653700      -1.48043156       0.37453545
15
Frame=4 idx=005031 GeodesicLength=0.20459275597199797 rxn_smarts="[C:1]([C@@:2]1([H:9])[C:3]([H:10])([H:11])[C@:4]1([C:5]([H:13])([H:14])[H:15])[H:12])([H:6])([H:7])[H:8]>>[C:1]([C:2]([C:3]([H:10])([H:11])[H:12])([C:4][C:5]([H:13])([H:14])[H:15])[H:9])([H:6])([H:7])[H:8]"
C        1.32844914      -0.94923896       0.02267873
C        0.61199575       0.22305884       0.66415587
C        0.28416450       1.41429167      -0.22789454
C       -0.86678670       0.33045979       0.74370819
C       -1.65188219      -0.55218698      -0.18480746
H        0.91626854      -1.21713045      -0.95038995
H        1.26540648      -1.83100242       0.66425842
H        2.38571360      -0.71726006      -0.12099208
H        1.10568536       0.53508801       1.58321120
H        0.80531201       2.32625587       0.04551168
H        0.29702204       1.21048162      -1.29475878
H       -0.85683722       1.68832708       0.19103074
H       -2.64911119      -0.15621498      -0.37901605
H       -1.18435087      -0.82395168      -1.13832591
H       -1.79104925      -1.48097734       0.38162993
15
Frame=5 idx=005031 GeodesicLength=0.2557185619557731 rxn_smarts="[C:1]([C@@:2]1([H:9])[C:3]([H:10])([H:11])[C@:4]1([C:5]([H:13])([H:14])[H:15])[H:12])([H:6])([H:7])[H:8]>>[C:1]([C:2]([C:3]([H:10])([H:11])[H:12])([C:4][C:5]([H:13])([H:14])[H:15])[H:9])([H:6])([H:7])[H:8]"
C        1.32982712      -0.94694456       0.02171403
C        0.61041688       0.22343329       0.66276697
C        0.28551479       1.41594668      -0.22873965
C       -0.86876477       0.33141064       0.73240834
C       -1.65463613      -0.55781372      -0.18616410
H        0.92326695      -1.21126194      -0.95477172
H        1.26280767      -1.83109719       0.65963823
H        2.38766869      -0.71368256      -0.11569982
H        1.09723266       0.53446871       1.58574598
H        0.82742672       2.31852407       0.03507913
H        0.28903176       1.21239199      -1.29592433
H       -0.85812522       1.70664159       0.21668159
H       -2.65121472      -0.16280420      -0.38578075
H       -1.18483919      -0.83794973      -1.13592454
H       -1.79561321      -1.48126307       0.38897063
15
Frame=6 idx=005031 GeodesicLength=0.3068295228803555 rxn_smarts="[C:1]([C@@:2]1([H:9])[C:3]([H:10])([H:11])[C@:4]1([C:5]([H:13])([H:14])[H:15])[H:12])([H:6])([H:7])[H:8]>>[C:1]([C:2]([C:3]([H:10])([H:11])[H:12])([C:4][C:5]([H:13])([H:14])[H:15])[H:9])([H:6])([H:7])[H:8]"
C        1.33116254      -0.94461339       0.02072359
C        0.60876497       0.22385993       0.66127879
C        0.28693918       1.41772119      -0.22968821
C       -0.87079309       0.33261070       0.72072716
C       -1.65737607      -0.56348879      -0.18756901
H        0.93029672      -1.20530186      -0.95916964
H        1.26007013      -1.83114364       0.65494090
H        2.38957066      -0.71012006      -0.11032516
H        1.08860854       0.53388599       1.58817093
H        0.84915321       2.31056810       0.02440921
H        0.28119162       1.21446865      -1.29712465
H       -0.85883478       1.72459653       0.24325681
H       -2.65327575      -0.16953525      -0.39279034
H       -1.18526198      -0.85221741      -1.13338385
H       -1.80021592      -1.48129071       0.39654347
15
Frame=7 idx=005031 GeodesicLength=0.3579445473772577 rxn_smarts="[C:1]([C@@:2]1([H:9])[C:3]([H:10])([H:11])[C@:4]1([C:5]([H:13])([H:14])[H:15])[H:12])([H:6])([H:7])[H:8]>>[C:1]([C:2]([C:3]([H:10])([H:11])[H:12])([C:4][C:5]([H:13])([H:14])[H:15])[H:9])([H:6])([H:7])[H:8]"
C        1.33245059      -0.94224521       0.01970304
C        0.60703058       0.22434122       0.65968498
C        0.28843677       1.41962637      -0.23075264
C       -0.87287020       0.33407512       0.70864839
C       -1.66009339      -0.56920916      -0.18901508
H        0.93736246      -1.19924060      -0.96359612
H        1.25717999      -1.83114938       0.65015659
H        2.39140961      -0.70657226      -0.10485758
H        1.07979293       0.53333202       1.59048869
H        0.87049539       2.30240202       0.01351321
H        0.27351629       1.21672545      -1.29838010
H       -0.85896335       1.74214394       0.27076881
H       -2.65528414      -0.17642365      -0.40005719
H       -1.18560961      -0.86677355      -1.13068407
H       -1.80485393      -1.48103231       0.40437906
15
Frame=8 idx=005031 GeodesicLength=0.40905961560233367 rxn_smarts="[C:1]([C@@:2]1([H:9])[C:3]([H:10])([H:11])[C@:4]1([C:5]([H:13])([H:14])[H:15])[H:12])([H:6])([H:7])[H:8]>>[C:1]([C:2]([C:3]([H:10])([H:11])[H:12])([C:4][C:5]([H:13])([H:14])[H:15])[H:9])([H:6])([H:7])[H:8]"
C        1.33368154      -0.93981873       0.01864311
C        0.60519857       0.22487960       0.65796953
C        0.29001913       1.42165259      -0.23193898
C       -0.87500236       0.33581140       0.69614758
C       -1.66278100      -0.57496949      -0.19048738
H        0.94447354      -1.19304460      -0.96805470
H        1.25410740      -1.83108630       0.64526043
H        2.39317449      -0.70301891      -0.09929292
H        1.07075279       0.53279624       1.59267932
H        0.89146973       2.29400688       0.00241194
H        0.26604199       1.21915833      -1.29969118
H       -0.85850484       1.75919891       0.29921238
H       -2.65722549      -0.18349202      -0.40758185
H       -1.18586518      -0.88163385      -1.12778294
H       -1.80954031      -1.48044005       0.41250566
15
Frame=9 idx=005031 GeodesicLength=0.46018507161717515 rxn_smarts="[C:1]([C@@:2]1([H:9])[C:3]([H:10])([H:11])[C@:4]1([C:5]([H:13])([H:14])[H:15])[H:12])([H:6])([H:7])[H:8]>>[C:1]([C:2]([C:3]([H:10])([H:11])[H:12])([C:4][C:5]([H:13])([H:14])[H:15])[H:9])([H:6])([H:7])[H:8]"
C        1.33485780      -0.93734803       0.01754556
C        0.60327547       0.22548336       0.65613221
C        0.29169331       1.42382300      -0.23325330
C       -0.87718256       0.33784121       0.68321280
C       -1.66544451      -0.58076517      -0.19198418
H        0.95162246      -1.18673378      -0.97255006
H        1.25085603      -1.83097574       0.64025701
H        2.39486941      -0.69947988      -0.09362573
H        1.06150179       0.53228512       1.59475193
H        0.91206255       2.28543980      -0.00886064
H        0.25879796       1.22178753      -1.30107667
H       -0.85747853       1.77570288       0.32855752
H       -2.65912058      -0.19075646      -0.41535867
H       -1.18604767      -0.89679999      -1.12467719
H       -1.81426294      -1.47950384       0.42092942
15
Frame=10 idx=005031 GeodesicLength=0.5113163299726446 rxn_smarts="[C:1]([C@@:2]1([H:9])[C:3]([H:10])([H:11])[C@:4]1([C:5]([H:13])([H:14])[H:15])[H:12])([H:6])([H:7])[H:8]>>[C:1]([C:2]([C:3]([H:10])([H:11])[H:12])([C:4][C:5]([H:13])([H:14])[H:15])[H:9])([H:6])([H:7])[H:8]"
C        1.33597262      -0.93482821       0.01640661
C        0.60125542       0.22615552       0.65416270
C        0.29347233       1.42613891      -0.23470156
C       -0.87940812       0.34017526       0.66982528
C       -1.66807872      -0.58658527      -0.19349365
H        0.95880562      -1.18030420      -0.97707973
H        1.24741414      -1.83080716       0.63514062
H        2.39648491      -0.69595423      -0.08785996
H        1.05202606       0.53179141       1.59669526
H        0.93226917       2.27671691      -0.02026622
H        0.25183117       1.22461794      -1.30254510
H       -0.85590750       1.79156984       0.35876399
H       -2.66096837      -0.19823475      -0.42336886
H       -1.18615551      -0.91226294      -1.12134254
H       -1.81901322      -1.47818902       0.42966314
15
Frame=11 idx=005031 GeodesicLength=0.5624552326947129 rxn_smarts="[C:1]([C@@:2]1([H:9])[C:3]([H:10])([H:11])[C@:4]1([C:5]([H:13])([H:14])[H:15])[H:12])([H:6])([H:7])[H:8]>>[C:1]([C:2]([C:3]([H:10])([H:11])[H:12])([C:4][C:5]([H:13])([H:14])[H:15])[H:9])([H:6])([H:7])[H:8]"
C        1.33702275      -0.93225898       0.01522364
C        0.59913664       0.22690011       0.65205326
C        0.29536795       1.42860631      -0.23628856
C       -0.88167346       0.34282377       0.65596893
C       -1.67068130      -0.59241870      -0.19500553
H        0.96601831      -1.17375927      -0.98164242
H        1.24377721      -1.83057725       0.62990865
H        2.39801574      -0.69244477      -0.08199882
H        1.04231961       0.53131090       1.59850302
H        0.95208929       2.26786327      -0.03176638
H        0.24518365       1.22765779      -1.30410755
H       -0.85382675       1.80671763       0.38978868
H       -2.66277248      -0.20594092      -0.43159549
H       -1.18619274      -0.92801540      -1.11775780
H       -1.82378442      -1.47646449       0.43871635
15
Frame=12 idx=005031 GeodesicLength=0.6136042944980583 rxn_smarts="[C:1]([C@@:2]1([H:9])[C:3]([H:10])([H:11])[C@:4]1([C:5]([H:13])([H:14])[H:15])[H:12])([H:6])([H:7])[H:8]>>[C:1]([C:2]([C:3]([H:10])([H:11])[H:12])([C:4][C:5]([H:13])([H:14])[H:15])[H:9])([H:6])([H:7])[H:8]"
C        1.33800628      -0.92964044       0.01399373
C        0.59691862       0.22772078       0.64979673
C        0.29739200       1.43123066      -0.23801810
C       -0.88397123       0.34579459       0.64162938
C       -1.67324981      -0.59825269      -0.19650855
H        0.97325663      -1.16710315      -0.98623715
H        1.23994295      -1.83028345       0.62455807
H        2.39945791      -0.68895441      -0.07604635
H        1.03237767       0.53083883       1.60016939
H        0.97152597       2.25890394      -0.04332286
H        0.23889657       1.23091498      -1.30577513
H       -0.85128290       1.82106168       0.42158361
H       -2.66453531      -0.21388494      -0.44002093
H       -1.18616335      -0.94404953      -1.11389990
H       -1.82857200      -1.47429685       0.44809809
15
Frame=13 idx=005031 GeodesicLength=0.664775353624695 rxn_smarts="[C:1]([C@@:2]1([H:9])[C:3]([H:10])([H:11])[C@:4]1([C:5]([H:13])([H:14])[H:15])[H:12])([H:6])([H:7])[H:8]>>[C:1]([C:2]([C:3]([H:10])([H:11])[H:12])([C:4][C:5]([H:13])([H:14])[H:15])[H:9])([H:6])([H:7])[H:8]"
C        1.33892667      -0.92697823       0.01271415
C        0.59460582       0.22862153       0.64738869
C        0.29955536       1.43402244      -0.23989307
C       -0.88629220       0.34909561       0.62679432
C       -1.67578535      -0.60407517      -0.19799254
H        0.98051622      -1.16034782      -0.99086593
H        1.23591911      -1.82993252       0.61908713
H        2.40081432      -0.68549041      -0.07000634
H        1.02220497       0.53037237       1.60169482
H        0.99058495       2.24987365      -0.05489298
H        0.23300398       1.23440072      -1.30756201
H       -0.84833584       1.83452792       0.45409620
H       -2.66626384      -0.22207220      -0.44863299
H       -1.18607680      -0.96036425      -1.10974686
H       -1.83337736      -1.47165363       0.45781740
15
Frame=14 idx=005031 GeodesicLength=0.7159390857011831 rxn_smarts="[C:1]([C@@:2]1([H:9])[C:3]([H:10])([H:11])[C@:4]1([C:5]([H:13])([H:14])[H:15])[H:12])([H:6])([H:7])[H:8]>>[C:1]([C:2]([C:3]([H:10])([H:11])[H:12])([C:4][C:5]([H:13])([H:14])[H:15])[H:9])([H:6])([H:7])[H:8]"
C        1.33977353      -0.92425582       0.01137867
C        0.59219146       0.22960368       0.64481508
C        0.30187541       1.43696695      -0.24191423
C       -0.88862515       0.35272244       0.61145158
C       -1.67827589      -0.60986507      -0.19943815
H        0.98779814      -1.15347523      -0.99551997
H        1.23168323      -1.82949542       0.61348213
H        2.40206897      -0.68204136      -0.06388792
H        1.01177829       0.52989988       1.60305395
H        1.00927846       2.24077002      -0.06645141
H        0.22756099       1.23810851      -1.30946609
H       -0.84504862       1.84698669       0.48727320
H       -2.66793949      -0.23050348      -0.45740447
H       -1.18592078      -0.97693788      -1.10525683
H       -1.83819854      -1.46848389       0.46788445
15
Frame=15 idx=005031 GeodesicLength=0.7671277322185504 rxn_smarts="[C:1]([C@@:2]1([H:9])[C:3]([H:10])([H:11])[C@:4]1([C:5]([H:13])([H:14])[H:15])[H:12])([H:6])([H:7])[H:8]>>[C:1]([C:2]([C:3]([H:10])([H:11])[H:12])([C:4][C:5]([H:13])([H:14])[H:15])[H:9])([H:6])([H:7])[H:8]"
C        1.34055818      -0.92148411       0.00998313
C        0.58968341       0.23066807       0.64207714
C        0.30435475       1.44008422      -0.24408122
C       -0.89095751       0.35667788       0.59559103
C       -1.68072310      -0.61561237      -0.20083423
H        0.99510264      -1.14649523      -1.00021366
H        1.22725590      -1.82899523       0.60773637
H        2.40323087      -0.67861510      -0.05768842
H        1.00110990       0.52941395       1.60426124
H        1.02762693       2.23162221      -0.07796836
H        0.22257523       1.24206067      -1.31150604
H       -0.84149715       1.85839468       0.52106976
H       -2.66955962      -0.23917820      -0.46634480
H       -1.18570416      -0.99379373      -1.10039807
H       -1.84305628      -1.46474771       0.47831613
15
Frame=16 idx=005031 GeodesicLength=0.8183391880291168 rxn_smarts="[C:1]([C@@:2]1([H:9])[C:3]([H:10])([H:11])[C@:4]1([C:5]([H:13])([H:14])[H:15])[H:12])([H:6])([H:7])[H:8]>>[C:1]([C:2]([C:3]([H:10])([H:11])[H:12])([C:4][C:5]([H:13])([H:14])[H:15])[H:9])([H:6])([H:7])[H:8]"
C        1.34128378      -0.91866611       0.00852618
C        0.58709004       0.23181903       0.63916745
C        0.30701110       1.44336946      -0.24639626
C       -0.89327330       0.36095767       0.57920749
C       -1.68312750      -0.62129349      -0.20216944
H        1.00242094      -1.13943191      -1.00493371
H        1.22265234      -1.82842303       0.60185885
H        2.40430244      -0.67521590      -0.05142866
H        0.99020645       0.52891631       1.60530289
H        1.04563626       2.22246164      -0.08939554
H        0.21809887       1.24625219      -1.31369041
H       -0.83778459       1.86864514       0.55541599
H       -2.67113348      -0.24808371      -0.47541648
H       -1.18543791      -1.01089813      -1.09514941
H       -1.84794544      -1.46040917       0.48910104
