13
Frame=0 idx=004879 GeodesicLength=0.0 rxn_smarts="[C:1]([C@@:2]1([H:10])[C:3]([H:11])([H:12])[C:4](=[O:5])[N:6]1[H:13])([H:7])([H:8])[H:9]>>[C:1]([C:2]([C:3]([C:4]1=[N:6][O:5]1)([H:11])[H:12])([H:10])[H:13])([H:7])([H:8])[H:9]"
C       -1.60600117      -0.35915589       0.31077806
C       -0.35395802      -0.25942799      -0.53404075
C        0.59317260       0.88738545      -0.17521753
C        1.79623993       0.11728027       0.26432886
O        2.91436648       0.39976625       0.69929178
N        1.70398760      -1.18001739       0.20230054
H       -2.19619838      -1.23900294       0.05416965
H       -1.35707839      -0.41174244       1.37218655
H       -2.23053707       0.52422101       0.15482300
H       -0.56497540      -0.29854271      -1.60317784
H        0.83711393       1.53883766      -1.01375980
H        0.22056182       1.51148116       0.63817845
H        0.24330611      -1.23108246      -0.36986096
13
Frame=1 idx=004879 GeodesicLength=0.0741054443700201 rxn_smarts="[C:1]([C@@:2]1([H:10])[C:3]([H:11])([H:12])[C:4](=[O:5])[N:6]1[H:13])([H:7])([H:8])[H:9]>>[C:1]([C:2]([C:3]([C:4]1=[N:6][O:5]1)([H:11])[H:12])([H:10])[H:13])([H:7])([H:8])[H:9]"
C       -1.61096582      -0.35325587       0.30602398
C       -0.34580631      -0.26817537      -0.52164112
C        0.58968426       0.88955499      -0.16500557
C        1.80296209       0.12613584       0.25639639
O        2.92654410       0.39500700       0.68730536
N        1.71287528      -1.16872794       0.16463099
H       -2.20028466      -1.23461012       0.05217691
H       -1.37806129      -0.39366953       1.37162665
H       -2.23342589       0.52768631       0.12951877
H       -0.54898173      -0.31106527      -1.59264752
H        0.81979446       1.54900756      -1.00126349
H        0.22435271       1.50549973       0.65784951
H        0.24131279      -1.26338731      -0.34497085
13
Frame=2 idx=004879 GeodesicLength=0.1480316407758992 rxn_smarts="[C:1]([C@@:2]1([H:10])[C:3]([H:11])([H:12])[C:4](=[O:5])[N:6]1[H:13])([H:7])([H:8])[H:9]>>[C:1]([C:2]([C:3]([C:4]1=[N:6][O:5]1)([H:11])[H:12])([H:10])[H:13])([H:7])([H:8])[H:9]"
C       -1.61574928      -0.34750089       0.30096697
C       -0.33766789      -0.27671727      -0.50899996
C        0.58619670       0.89192281      -0.15462665
C        1.80951632       0.13499810       0.24800223
O        2.93870352       0.38941313       0.67440892
N        1.72003031      -1.15677821       0.12696207
H       -2.20395643      -1.23050192       0.04987142
H       -1.39903850      -0.37554749       1.37042008
H       -2.23587244       0.53069018       0.10389193
H       -0.53288335      -0.32360354      -1.58180970
H        0.80221416       1.55921853      -0.98846219
H        0.22845166       1.49937821       0.67781439
H        0.24005522      -1.29497162      -0.31843953
13
Frame=3 idx=004879 GeodesicLength=0.2217785053473207 rxn_smarts="[C:1]([C@@:2]1([H:10])[C:3]([H:11])([H:12])[C:4](=[O:5])[N:6]1[H:13])([H:7])([H:8])[H:9]>>[C:1]([C:2]([C:3]([C:4]1=[N:6][O:5]1)([H:11])[H:12])([H:10])[H:13])([H:7])([H:8])[H:9]"
C       -1.62028059      -0.34196918       0.29563627
C       -0.32961991      -0.28490869      -0.49629384
C        0.58273478       0.89451384      -0.14418553
C        1.81588790       0.14384556       0.23899474
O        2.95078039       0.38293729       0.66050771
N        1.72501326      -1.14432664       0.09041206
H       -2.20710329      -1.22677314       0.04726230
H       -1.41973660      -0.35761062       1.36854268
H       -2.23788085       0.53315553       0.07821134
H       -0.51688240      -0.33584526      -1.57082071
H        0.78447023       1.56948334      -0.97544564
H        0.23289543       1.49316311       0.69793402
H        0.23972165      -1.32566513      -0.29075541
13
Frame=4 idx=004879 GeodesicLength=0.2953723281620712 rxn_smarts="[C:1]([C@@:2]1([H:10])[C:3]([H:11])([H:12])[C:4](=[O:5])[N:6]1[H:13])([H:7])([H:8])[H:9]>>[C:1]([C:2]([C:3]([C:4]1=[N:6][O:5]1)([H:11])[H:12])([H:10])[H:13])([H:7])([H:8])[H:9]"
C       -1.62450788      -0.33671552       0.29007408
C       -0.32173162      -0.29262280      -0.48369059
C        0.57932121       0.89734127      -0.13377045
C        1.82205276       0.15267289       0.22928963
O        2.96270777       0.37560522       0.64551670
N        1.72757248      -1.13158776       0.05598945
H       -2.20965290      -1.22348281       0.04436560
H       -1.43991661      -0.34006475       1.36600336
H       -2.23947517       0.53504136       0.05271990
H       -0.50114856      -0.34750589      -1.55983833
H        0.76666375       1.57980391      -0.96228979
H        0.23770188       1.48690698       0.71806759
H        0.24041288      -1.35539211      -0.26243716
13
Frame=5 idx=004879 GeodesicLength=0.3688129359233253 rxn_smarts="[C:1]([C@@:2]1([H:10])[C:3]([H:11])([H:12])[C:4](=[O:5])[N:6]1[H:13])([H:7])([H:8])[H:9]>>[C:1]([C:2]([C:3]([C:4]1=[N:6][O:5]1)([H:11])[H:12])([H:10])[H:13])([H:7])([H:8])[H:9]"
C       -1.62839450      -0.33176395       0.28433494
C       -0.31406255      -0.29977007      -0.47133352
C        0.57597457       0.90040347      -0.12346799
C        1.82797500       0.16149021       0.21888704
O        2.97435772       0.36751380       0.62956081
N        1.72772564      -1.11881181       0.02425750
H       -2.21157474      -1.22064869       0.04124501
H       -1.45938717      -0.32304205       1.36283618
H       -2.24068378       0.53634831       0.02763922
H       -0.48582562      -0.35837497      -1.54900240
H        0.74890944       1.59015235      -0.94908649
H        0.24286192       1.48067602       0.73805111
H        0.24212408      -1.38417261      -0.23392140
13
Frame=6 idx=004879 GeodesicLength=0.4421657598742476 rxn_smarts="[C:1]([C@@:2]1([H:10])[C:3]([H:11])([H:12])[C:4](=[O:5])[N:6]1[H:13])([H:7])([H:8])[H:9]>>[C:1]([C:2]([C:3]([C:4]1=[N:6][O:5]1)([H:11])[H:12])([H:10])[H:13])([H:7])([H:8])[H:9]"
C       -1.63193416      -0.32711956       0.27845688
C       -0.30664858      -0.30629424      -0.45932626
C        0.57270905       0.90369089      -0.11332133
C        1.83361583       0.17029250       0.20784072
O        2.98565889       0.35877060       0.61263623
N        1.72556157      -1.10616657      -0.00435185
H       -2.21287608      -1.21826309       0.03792705
H       -1.47803757      -0.30663784       1.35910643
H       -2.24154978       0.53711061       0.00310721
H       -0.47098130      -0.36832127      -1.53842081
H        0.73130195       1.60050849      -0.93587852
H        0.24835470       1.47451453       0.75778211
H        0.24482550      -1.41208505      -0.20555785
13
Frame=7 idx=004879 GeodesicLength=0.5154555961076508 rxn_smarts="[C:1]([C@@:2]1([H:10])[C:3]([H:11])([H:12])[C:4](=[O:5])[N:6]1[H:13])([H:7])([H:8])[H:9]>>[C:1]([C:2]([C:3]([C:4]1=[N:6][O:5]1)([H:11])[H:12])([H:10])[H:13])([H:7])([H:8])[H:9]"
C       -1.63513227      -0.32276620       0.27248510
C       -0.29951449      -0.31217449      -0.44774009
C        0.56953389       0.90718514      -0.10336797
C        1.83893556       0.17907551       0.19625292
O        2.99651311       0.34949932       0.59488413
N        1.72131128      -1.09379238      -0.02978879
H       -2.21358710      -1.21629293       0.03446838
H       -1.49580611      -0.29088340       1.35487594
H       -2.24211104       0.53737562      -0.02077600
H       -0.45666023      -0.37728471      -1.52817114
H        0.71393068       1.61083701      -0.92271282
H        0.25414492       1.46847048       0.77715926
H        0.24844181      -1.43924897      -0.17756893
13
Frame=8 idx=004879 GeodesicLength=0.5887265669646107 rxn_smarts="[C:1]([C@@:2]1([H:10])[C:3]([H:11])([H:12])[C:4](=[O:5])[N:6]1[H:13])([H:7])([H:8])[H:9]>>[C:1]([C:2]([C:3]([C:4]1=[N:6][O:5]1)([H:11])[H:12])([H:10])[H:13])([H:7])([H:8])[H:9]"
C       -1.63801162      -0.31867879       0.26644941
C       -0.29267237      -0.31740738      -0.43661517
C        0.56645429       0.91086769      -0.09361793
C        1.84390037       0.18782538       0.18424420
O        3.00686473       0.33980881       0.57637705
N        1.71522950      -1.08177420      -0.05212680
H       -2.21375195      -1.21470053       0.03090546
H       -1.51268832      -0.27577438       1.35021422
H       -2.24241894       0.53719823      -0.04397853
H       -0.44286557      -0.38525348      -1.51830234
H        0.69686549       1.62111489      -0.90960397
H        0.26019349       1.46257284       0.79612594
H        0.25290090      -1.46579909      -0.15007154
13
Frame=9 idx=004879 GeodesicLength=0.6619257215920018 rxn_smarts="[C:1]([C@@:2]1([H:10])[C:3]([H:11])([H:12])[C:4](=[O:5])[N:6]1[H:13])([H:7])([H:8])[H:9]>>[C:1]([C:2]([C:3]([C:4]1=[N:6][O:5]1)([H:11])[H:12])([H:10])[H:13])([H:7])([H:8])[H:9]"
C       -1.64060690      -0.31483190       0.26035688
C       -0.28613922      -0.32200820      -0.42598194
C        0.56346280       0.91471595      -0.08405964
C        1.84848919       0.19651808       0.17190260
O        3.01665672       0.32977410       0.55722169
N        1.70765228      -1.07018799      -0.07165549
H       -2.21341288      -1.21346260       0.02726572
H       -1.52874536      -0.26124532       1.34517009
H       -2.24252198       0.53662493      -0.06651681
H       -0.42960408      -0.39222920      -1.50885253
H        0.68013735       1.63133613      -0.89653759
H        0.26648297       1.45681286       0.81465221
H        0.25814911      -1.49181683      -0.12296518
13
Frame=10 idx=004879 GeodesicLength=0.7351354017047853 rxn_smarts="[C:1]([C@@:2]1([H:10])[C:3]([H:11])([H:12])[C:4](=[O:5])[N:6]1[H:13])([H:7])([H:8])[H:9]>>[C:1]([C:2]([C:3]([C:4]1=[N:6][O:5]1)([H:11])[H:12])([H:10])[H:13])([H:7])([H:8])[H:9]"
C       -1.64295240      -0.31118978       0.25422576
C       -0.27990505      -0.32599806      -0.41583394
C        0.56056624       0.91871003      -0.07467672
C        1.85268432       0.20512883       0.15936321
O        3.02590705       0.31950833       0.53736083
N        1.69873269      -1.05902091      -0.08844012
H       -2.21263344      -1.21251657       0.02356411
H       -1.54401216      -0.24729502       1.33978553
H       -2.24245162       0.53572120      -0.08840446
H       -0.41681619      -0.39827838      -1.49982570
H        0.66379537       1.64148452      -0.88350860
H        0.27296017       1.45121060       0.83275203
H        0.26412504      -1.51746479      -0.09636194
13
Frame=11 idx=004879 GeodesicLength=0.8083593438419956 rxn_smarts="[C:1]([C@@:2]1([H:10])[C:3]([H:11])([H:12])[C:4](=[O:5])[N:6]1[H:13])([H:7])([H:8])[H:9]>>[C:1]([C:2]([C:3]([C:4]1=[N:6][O:5]1)([H:11])[H:12])([H:10])[H:13])([H:7])([H:8])[H:9]"
C       -1.64507678      -0.30772753       0.24805770
C       -0.27397244      -0.32939537      -0.40617887
C        0.55776603       0.92283310      -0.06545469
C        1.85646656       0.21362695       0.14671035
O        3.03459147       0.30907963       0.51680098
N        1.68862312      -1.04827604      -0.10262057
H       -2.21145491      -1.21182988       0.01982032
H       -1.55852657      -0.23389645       1.33408540
H       -2.24223657       0.53453399      -0.10965652
H       -0.40447722      -0.40344218      -1.49123434
H        0.64787669       1.65155137      -0.87050529
H        0.27960090       1.44576296       0.85042783
H        0.27081971      -1.54282053      -0.07025230
13
Frame=12 idx=004879 GeodesicLength=0.8815912589549563 rxn_smarts="[C:1]([C@@:2]1([H:10])[C:3]([H:11])([H:12])[C:4](=[O:5])[N:6]1[H:13])([H:7])([H:8])[H:9]>>[C:1]([C:2]([C:3]([C:4]1=[N:6][O:5]1)([H:11])[H:12])([H:10])[H:13])([H:7])([H:8])[H:9]"
C       -1.64701160      -0.30442133       0.24185345
C       -0.26834465      -0.33221849      -0.39701851
C        0.55505856       0.92707058      -0.05637071
C        1.85982487       0.22198274       0.13401583
O        3.04270387       0.29854026       0.49553048
N        1.67748489      -1.03794914      -0.11435327
H       -2.20991810      -1.21137141       0.01603721
H       -1.57234013      -0.22101301       1.32809834
H       -2.24191014       0.53310504      -0.13031004
H       -0.39255557      -0.40776332      -1.48308507
H        0.63240076       1.66153806      -0.85750669
H        0.28638449       1.44046152       0.86769225
H        0.27822275      -1.56796150      -0.04458329
13
Frame=13 idx=004879 GeodesicLength=0.9548306012693123 rxn_smarts="[C:1]([C@@:2]1([H:10])[C:3]([H:11])([H:12])[C:4](=[O:5])[N:6]1[H:13])([H:7])([H:8])[H:9]>>[C:1]([C:2]([C:3]([C:4]1=[N:6][O:5]1)([H:11])[H:12])([H:10])[H:13])([H:7])([H:8])[H:9]"
C       -1.64879521      -0.30124781       0.23560342
C       -0.26302063      -0.33448620      -0.38834431
C        0.55243574       0.93141297      -0.04739167
C        1.86275258       0.23016988       0.12135846
O        3.05027983       0.28791742       0.47346152
N        1.66545787      -1.02801745      -0.12375322
H       -2.20805979      -1.21111857       0.01220369
H       -1.58553144      -0.20860569       1.32185258
H       -2.24150796       0.53147431      -0.15042303
H       -0.38100402      -0.41128775      -1.47537484
H        0.61737601       1.67145477      -0.84447997
H        0.29328445       1.43529614       0.88457802
H        0.28633258      -1.59296203      -0.01929065
13
Frame=14 idx=004879 GeodesicLength=1.0280439036007403 rxn_smarts="[C:1]([C@@:2]1([H:10])[C:3]([H:11])([H:12])[C:4](=[O:5])[N:6]1[H:13])([H:7])([H:8])[H:9]>>[C:1]([C:2]([C:3]([C:4]1=[N:6][O:5]1)([H:11])[H:12])([H:10])[H:13])([H:7])([H:8])[H:9]"
C       -1.65045087      -0.29818452       0.22931244
C       -0.25800217      -0.33621507      -0.38015763
C        0.54989555       0.93585208      -0.03851601
C        1.86524583       0.23816561       0.10878300
O        3.05728083       0.27724057       0.45066725
N        1.65267986      -1.01846865      -0.13102134
H       -2.20591206      -1.21104327       0.00833698
H       -1.59813519      -0.19664087       1.31537414
H       -2.24105445       0.52967685      -0.17001084
H       -0.36980136      -0.41406038      -1.46810639
H        0.60281965       1.68130224      -0.83142594
H        0.30028073       1.43026577       0.90108533
H        0.29515364      -1.61789036       0.00567899
13
Frame=15 idx=004879 GeodesicLength=1.101218140466852 rxn_smarts="[C:1]([C@@:2]1([H:10])[C:3]([H:11])([H:12])[C:4](=[O:5])[N:6]1[H:13])([H:7])([H:8])[H:9]>>[C:1]([C:2]([C:3]([C:4]1=[N:6][O:5]1)([H:11])[H:12])([H:10])[H:13])([H:7])([H:8])[H:9]"
C       -1.65200328      -0.29521484       0.22298208
C       -0.25328914      -0.33741805      -0.37245351
C        0.54743084       0.94038604      -0.02973220
C        1.86730357       0.24594924       0.09633498
O        3.06370149       0.26650680       0.42716184
N        1.63926185      -1.00926984      -0.13630830
H       -2.20350222      -1.21112445       0.00443892
H       -1.61020299      -0.18508724       1.30869124
H       -2.24058024       0.52774487      -0.18910446
H       -0.35891634      -0.41612475      -1.46127570
H        0.58873979       1.69109039      -0.81834171
H        0.30735058       1.42537379       0.91722689
H        0.30470609      -1.64281196       0.03037992
13
Frame=16 idx=004879 GeodesicLength=1.1743441389909757 rxn_smarts="[C:1]([C@@:2]1([H:10])[C:3]([H:11])([H:12])[C:4](=[O:5])[N:6]1[H:13])([H:7])([H:8])[H:9]>>[C:1]([C:2]([C:3]([C:4]1=[N:6][O:5]1)([H:11])[H:12])([H:10])[H:13])([H:7])([H:8])[H:9]"
C       -1.65348326      -0.29231988       0.21660522
C       -0.24888048      -0.33810642      -0.36521965
C        0.54503160       0.94501585      -0.02102003
C        1.86892805       0.25349999       0.08407482
O        3.06956044       0.25570357       0.40290033
N        1.62529685      -1.00038308      -0.13973453
H       -2.20085554      -1.21134545       0.00049985
H       -1.62179717      -0.17391624       1.30182735
H       -2.24011422       0.52570753      -0.20774798
H       -0.34831111      -0.41752171      -1.45487136
H        0.57513994       1.70083191      -0.80521571
H        0.31446676       1.42062447       0.93302612
H        0.31501813      -1.66779054       0.05487559
