9
Frame=0 idx=000402 GeodesicLength=0.0 rxn_smarts="[O:1]([c:2]1[n:3][n:4]([H:8])[c:5]([H:9])[n:6]1)[H:7]>>[C:5](#[N:6])[H:9].[O:1]([C:2]#[N+:3][N-:4][H:8])[H:7]"
O        2.31940603       0.04392371       0.05017389
C        1.07084963       0.08393293       0.41464306
N        0.16804545       0.90892874       0.44895819
N       -1.06398769       0.91867722       0.14006114
C       -1.16026548      -1.27890730      -0.33669385
N       -0.04813045      -1.61322450      -0.33571448
H        2.48757560       0.64171108      -0.69036385
H       -1.55241026       1.56436176       0.75867568
H       -2.22108281      -1.26940363      -0.44973980
9
Frame=1 idx=000402 GeodesicLength=0.04931971197287332 rxn_smarts="[O:1]([c:2]1[n:3][n:4]([H:8])[c:5]([H:9])[n:6]1)[H:7]>>[C:5](#[N:6])[H:9].[O:1]([C:2]#[N+:3][N-:4][H:8])[H:7]"
O        2.32564162       0.05760982       0.06098469
C        1.07221052       0.07677503       0.41751111
N        0.17397829       0.91057374       0.44417342
N       -1.06130945       0.90059805       0.14100579
C       -1.15873705      -1.26336404      -0.37136399
N       -0.05311145      -1.62969127      -0.33501870
H        2.48333595       0.64502970      -0.69000238
H       -1.55679229       1.55250323       0.74657733
H       -2.22521614      -1.25003426      -0.41386727
9
Frame=2 idx=000402 GeodesicLength=0.09900315896558295 rxn_smarts="[O:1]([c:2]1[n:3][n:4]([H:8])[c:5]([H:9])[n:6]1)[H:7]>>[C:5](#[N:6])[H:9].[O:1]([C:2]#[N+:3][N-:4][H:8])[H:7]"
O        2.33122692       0.06976657       0.07045151
C        1.07313132       0.06830752       0.41830328
N        0.17970928       0.91095551       0.43969487
N       -1.05831020       0.88279069       0.14128014
C       -1.15897019      -1.24916088      -0.40167026
N       -0.06055802      -1.64559323      -0.33835783
H        2.48102804       0.65225709      -0.68588945
H       -1.56059363       1.54192845       0.73246599
H       -2.22666352      -1.23125172      -0.37627825
9
Frame=3 idx=000402 GeodesicLength=0.14889091364272983 rxn_smarts="[O:1]([c:2]1[n:3][n:4]([H:8])[c:5]([H:9])[n:6]1)[H:7]>>[C:5](#[N:6])[H:9].[O:1]([C:2]#[N+:3][N-:4][H:8])[H:7]"
O        2.33665391       0.08146318       0.08151244
C        1.07343510       0.05866847       0.41748683
N        0.18513978       0.91037836       0.43524154
N       -1.05520231       0.86533209       0.14072343
C       -1.16167658      -1.23685658      -0.42488657
N       -0.06874436      -1.65879453      -0.35281992
H        2.48073961       0.66092447      -0.67818337
H       -1.56383571       1.53367359       0.71511237
H       -2.22650944      -1.21478905      -0.33418675
9
Frame=4 idx=000402 GeodesicLength=0.199074755226369 rxn_smarts="[O:1]([c:2]1[n:3][n:4]([H:8])[c:5]([H:9])[n:6]1)[H:7]>>[C:5](#[N:6])[H:9].[O:1]([C:2]#[N+:3][N-:4][H:8])[H:7]"
O        2.34188570       0.09188987       0.09198420
C        1.07358558       0.04739275       0.41429277
N        0.19051396       0.90809282       0.43167171
N       -1.05166056       0.84794542       0.13953746
C       -1.16699259      -1.22640010      -0.44226647
N       -0.07821830      -1.67116158      -0.37394556
H        2.48246510       0.67408534      -0.66620027
H       -1.56617453       1.52763846       0.69421769
H       -2.22540435      -1.19948299      -0.28929152
9
Frame=5 idx=000402 GeodesicLength=0.24934137890668906 rxn_smarts="[O:1]([c:2]1[n:3][n:4]([H:8])[c:5]([H:9])[n:6]1)[H:7]>>[C:5](#[N:6])[H:9].[O:1]([C:2]#[N+:3][N-:4][H:8])[H:7]"
O        2.34681848       0.10233202       0.10263953
C        1.07367932       0.03603790       0.41015619
N        0.19579777       0.90558447       0.42840503
N       -1.04812802       0.83089881       0.13891686
C       -1.17335098      -1.21645186      -0.45677711
N       -0.08848661      -1.68299071      -0.39644772
H        2.48432168       0.68727341      -0.65392096
H       -1.56820336       1.52222831       0.67280477
H       -2.22244827      -1.18491236      -0.24577658
9
Frame=6 idx=000402 GeodesicLength=0.29971029934549354 rxn_smarts="[O:1]([c:2]1[n:3][n:4]([H:8])[c:5]([H:9])[n:6]1)[H:7]>>[C:5](#[N:6])[H:9].[O:1]([C:2]#[N+:3][N-:4][H:8])[H:7]"
O        2.35152444       0.11271262       0.11243628
C        1.07404119       0.02465970       0.40497614
N        0.20115216       0.90272969       0.42580791
N       -1.04447587       0.81397106       0.13933037
C       -1.18035822      -1.20694005      -0.46901369
N       -0.09982417      -1.69525790      -0.41730453
H        2.48605735       0.70133951      -0.64172608
H       -1.56981395       1.51712292       0.65131772
H       -2.21830293      -1.17033754      -0.20582411
9
Frame=7 idx=000402 GeodesicLength=0.3502193757760397 rxn_smarts="[O:1]([c:2]1[n:3][n:4]([H:8])[c:5]([H:9])[n:6]1)[H:7]>>[C:5](#[N:6])[H:9].[O:1]([C:2]#[N+:3][N-:4][H:8])[H:7]"
O        2.35607148       0.12275226       0.12132974
C        1.07468112       0.01289301       0.39836498
N        0.20658639       0.89912978       0.42417958
N       -1.04060294       0.79708563       0.14051299
C       -1.18819946      -1.19789225      -0.47930903
N       -0.11237347      -1.70789476      -0.43767099
H        2.48798319       0.71726075      -0.62860096
H       -1.57084634       1.51269000       0.62874718
H       -2.21329997      -1.15602441      -0.16755348
9
Frame=8 idx=000402 GeodesicLength=0.4008493700662932 rxn_smarts="[O:1]([c:2]1[n:3][n:4]([H:8])[c:5]([H:9])[n:6]1)[H:7]>>[C:5](#[N:6])[H:9].[O:1]([C:2]#[N+:3][N-:4][H:8])[H:7]"
O        2.36054365       0.13255161       0.12932226
C        1.07567597       0.00085315       0.39022617
N        0.21214906       0.89484541       0.42348858
N       -1.03651793       0.78021269       0.14260552
C       -1.19673232      -1.18917311      -0.48799920
N       -0.12617435      -1.72101280      -0.45701692
H        2.49005268       0.73494524      -0.61464325
H       -1.57127171       1.50872755       0.60523010
H       -2.20772505      -1.14194973      -0.13121326
9
Frame=9 idx=000402 GeodesicLength=0.4517137930923472 rxn_smarts="[O:1]([c:2]1[n:3][n:4]([H:8])[c:5]([H:9])[n:6]1)[H:7]>>[C:5](#[N:6])[H:9].[O:1]([C:2]#[N+:3][N-:4][H:8])[H:7]"
O        2.36477547       0.14153319       0.13782753
C        1.07648163      -0.01199991       0.37989184
N        0.21756195       0.88952616       0.42348039
N       -1.03231799       0.76376294       0.14410790
C       -1.20693280      -1.18080836      -0.49502583
N       -0.14127917      -1.73298351      -0.48119556
H        2.49314803       0.75464053      -0.59746654
H       -1.57105946       1.50599198       0.57847852
H       -2.20037765      -1.12966302      -0.09009826
9
Frame=10 idx=000402 GeodesicLength=0.5027684190366151 rxn_smarts="[O:1]([c:2]1[n:3][n:4]([H:8])[c:5]([H:9])[n:6]1)[H:7]>>[C:5](#[N:6])[H:9].[O:1]([C:2]#[N+:3][N-:4][H:8])[H:7]"
O        2.36894373       0.15008732       0.14526980
C        1.07768139      -0.02535291       0.36736627
N        0.22308500       0.88301916       0.42511133
N       -1.02787590       0.74722028       0.14656448
C       -1.21804110      -1.17276569      -0.50056481
N       -0.15795989      -1.74530959      -0.50510556
H        2.49629322       0.77683785      -0.57854649
H       -1.56990655       1.50403413       0.54952365
H       -2.19221989      -1.11777055      -0.04961867
9
Frame=11 idx=000402 GeodesicLength=0.5540322957996696 rxn_smarts="[O:1]([c:2]1[n:3][n:4]([H:8])[c:5]([H:9])[n:6]1)[H:7]>>[C:5](#[N:6])[H:9].[O:1]([C:2]#[N+:3][N-:4][H:8])[H:7]"
O        2.37308159       0.15818034       0.15168429
C        1.07926118      -0.03914798       0.35213082
N        0.22872094       0.87518565       0.42841008
N       -1.02321657       0.73058927       0.14991661
C       -1.23018427      -1.16503912      -0.50458739
N       -0.17638246      -1.75789787      -0.52910383
H        2.49960051       0.80174597      -0.55730213
H       -1.56762063       1.50275519       0.51797295
H       -2.18326029      -1.10637145      -0.00912140
9
Frame=12 idx=000402 GeodesicLength=0.6057157591575221 rxn_smarts="[O:1]([c:2]1[n:3][n:4]([H:8])[c:5]([H:9])[n:6]1)[H:7]>>[C:5](#[N:6])[H:9].[O:1]([C:2]#[N+:3][N-:4][H:8])[H:7]"
O        2.37674303       0.16519865       0.15860675
C        1.08049961      -0.05376585       0.33353389
N        0.23396473       0.86555967       0.43359322
N       -1.01844797       0.71471433       0.15179658
C       -1.24447476      -1.15764835      -0.50667237
N       -0.19680477      -1.76864413      -0.55939306
H        2.50347518       0.82900259      -0.53138948
H       -1.56413263       1.50270729       0.48123226
H       -2.17082243      -1.09712420       0.03869222
9
Frame=13 idx=000402 GeodesicLength=0.6578458409768627 rxn_smarts="[O:1]([c:2]1[n:3][n:4]([H:8])[c:5]([H:9])[n:6]1)[H:7]>>[C:5](#[N:6])[H:9].[O:1]([C:2]#[N+:3][N-:4][H:8])[H:7]"
O        2.38054516       0.17129471       0.16346203
C        1.08221190      -0.06863048       0.30933457
N        0.23940130       0.85374242       0.44050488
N       -1.01336972       0.69887977       0.15360845
C       -1.26041506      -1.15093909      -0.50667915
N       -0.22021749      -1.78039938      -0.58864469
H        2.50814618       0.86120049      -0.50022479
H       -1.55872154       1.50265650       0.44180094
H       -2.15758073      -1.08780494       0.08683777
9
Frame=14 idx=000402 GeodesicLength=0.7103692211081214 rxn_smarts="[O:1]([c:2]1[n:3][n:4]([H:8])[c:5]([H:9])[n:6]1)[H:7]>>[C:5](#[N:6])[H:9].[O:1]([C:2]#[N+:3][N-:4][H:8])[H:7]"
O        2.38333658       0.17664198       0.16938917
C        1.08325072      -0.08291084       0.28174682
N        0.24406115       0.84058914       0.44854674
N       -1.00816597       0.68481239       0.15141910
C       -1.27792222      -1.14437648      -0.50485849
N       -0.24564593      -1.78995532      -0.62252807
H        2.51256248       0.89318956      -0.46500823
H       -1.55243319       1.50186924       0.40014974
H       -2.13904361      -1.07985969       0.14114321
9
Frame=15 idx=000402 GeodesicLength=0.7634841107022786 rxn_smarts="[O:1]([c:2]1[n:3][n:4]([H:8])[c:5]([H:9])[n:6]1)[H:7]>>[C:5](#[N:6])[H:9].[O:1]([C:2]#[N+:3][N-:4][H:8])[H:7]"
O        2.38569773       0.18129491       0.17443499
C        1.08424274      -0.09606905       0.24902482
N        0.24827511       0.82559300       0.45794907
N       -1.00299569       0.67157022       0.14754895
C       -1.29659906      -1.13834661      -0.50115613
N       -0.27351161      -1.79948252      -0.65645037
H        2.51698474       0.92682086      -0.42521768
H       -1.54468708       1.50078691       0.35713468
H       -2.11740689      -1.07216771       0.19673168
9
Frame=16 idx=000402 GeodesicLength=0.8164866770402104 rxn_smarts="[O:1]([c:2]1[n:3][n:4]([H:8])[c:5]([H:9])[n:6]1)[H:7]>>[C:5](#[N:6])[H:9].[O:1]([C:2]#[N+:3][N-:4][H:8])[H:7]"
O        2.38803473       0.18549599       0.17723045
C        1.08574334      -0.10622997       0.20831632
N        0.25299908       0.80975154       0.46553520
N       -0.99786197       0.65800334       0.14421718
C       -1.31547933      -1.13290089      -0.49583345
N       -0.30376256      -1.81139950      -0.68361532
H        2.52273824       0.96257717      -0.37991000
H       -1.53569087       1.49766856       0.31718141
H       -2.09672064      -1.06296624       0.24687822
