16
Frame=0 idx=011322 GeodesicLength=0.0 rxn_smarts="[C:1]([C@@:2]1([H:11])[C@:3]([C:4]([H:13])([H:14])[H:15])([H:12])[C@:5]1([C:6]#[N:7])[H:16])([H:8])([H:9])[H:10]>>[C:1]([C@@:2]([C:3]([C:4]([H:13])([H:14])[H:15])([H:12])[H:16])([C+:5]=[C:6]=[N-:7])[H:11])([H:8])([H:9])[H:10]"
C        1.23784284      -0.70730392       0.87584195
C        1.04023097       0.33530401      -0.20507362
C       -0.25871775       0.23296683      -1.07328625
C       -1.28984673      -0.79721594      -0.66665758
C        0.41262508       1.63170114       0.04974027
C       -0.46328954       1.67026933       1.17366731
N       -1.13859057       1.81959491       2.09928084
H        0.37923672      -0.78204558       1.54254169
H        1.43142185      -1.68960863       0.44080526
H        2.10394002      -0.43840860       1.48195057
H        1.91469337       0.41234255      -0.84738488
H        0.03005126       0.21410683      -2.12217941
H       -2.14315218      -0.75774582      -1.34370382
H       -0.86891152      -1.80286461      -0.70445412
H       -1.66048005      -0.61977629       0.34316882
H       -0.72705372       1.27868375      -1.04425709
16
Frame=1 idx=011322 GeodesicLength=0.06630010687070362 rxn_smarts="[C:1]([C@@:2]1([H:11])[C@:3]([C:4]([H:13])([H:14])[H:15])([H:12])[C@:5]1([C:6]#[N:7])[H:16])([H:8])([H:9])[H:10]>>[C:1]([C@@:2]([C:3]([C:4]([H:13])([H:14])[H:15])([H:12])[H:16])([C+:5]=[C:6]=[N-:7])[H:11])([H:8])([H:9])[H:10]"
C        1.24432699      -0.70702785       0.87469999
C        1.03879469       0.33432709      -0.20536383
C       -0.25578665       0.22733836      -1.07560309
C       -1.29625958      -0.79190762      -0.66539475
C        0.39763902       1.62481582       0.05140653
C       -0.46687786       1.66566360       1.18242855
N       -1.13921039       1.80974841       2.11102779
H        0.38583132      -0.79025874       1.54056338
H        1.44545998      -1.68688935       0.43751536
H        2.10722351      -0.43186952       1.48258848
H        1.91384707       0.42470178      -0.84519480
H        0.04000070       0.18648951      -2.12193841
H       -2.14630485      -0.75235698      -1.34666901
H       -0.88416319      -1.80156140      -0.69398051
H       -1.67177819      -0.60735253       0.34122753
H       -0.71274256       1.29613940      -1.06731322
16
Frame=2 idx=011322 GeodesicLength=0.13258843320519104 rxn_smarts="[C:1]([C@@:2]1([H:11])[C@:3]([C:4]([H:13])([H:14])[H:15])([H:12])[C@:5]1([C:6]#[N:7])[H:16])([H:8])([H:9])[H:10]>>[C:1]([C@@:2]([C:3]([C:4]([H:13])([H:14])[H:15])([H:12])[H:16])([C+:5]=[C:6]=[N-:7])[H:11])([H:8])([H:9])[H:10]"
C        1.25080723      -0.70667780       0.87354411
C        1.03726285       0.33335546      -0.20566477
C       -0.25296377       0.22151390      -1.07788712
C       -1.30273116      -0.78669093      -0.66424837
C        0.38229400       1.61768245       0.05297060
C       -0.47036829       1.66102829       1.19128538
N       -1.13947612       1.80002838       2.12298443
H        0.39242334      -0.79856923       1.53844245
H        1.45969834      -1.68398333       0.43421309
H        2.11032587      -0.42511504       1.48330923
H        1.91268205       0.43717105      -0.84301627
H        0.04957187       0.15890184      -2.12123474
H       -2.14941189      -0.74712800      -1.34984093
H       -0.89946672      -1.80017274      -0.68347129
H       -1.68322157      -0.59491798       0.33903646
H       -0.69742602       1.31357367      -1.09042227
16
Frame=3 idx=011322 GeodesicLength=0.19886579169596108 rxn_smarts="[C:1]([C@@:2]1([H:11])[C@:3]([C:4]([H:13])([H:14])[H:15])([H:12])[C@:5]1([C:6]#[N:7])[H:16])([H:8])([H:9])[H:10]>>[C:1]([C@@:2]([C:3]([C:4]([H:13])([H:14])[H:15])([H:12])[H:16])([C+:5]=[C:6]=[N-:7])[H:11])([H:8])([H:9])[H:10]"
C        1.25727831      -0.70624677       0.87237387
C        1.03562325       0.33239261      -0.20597653
C       -0.25025867       0.21548465      -1.08013935
C       -1.30926807      -0.78158026      -0.66322564
C        0.36656351       1.61029053       0.05442401
C       -0.47374567       1.65636975       1.20024337
N       -1.13935544       1.79044273       2.13516728
H        0.39901161      -0.80697752       1.53617540
H        1.47414062      -1.68087625       0.43089908
H        2.11323316      -0.41813364       1.48411413
H        1.91118117       0.44975381      -0.84084983
H        0.05876655       0.13135237      -2.12008260
H       -2.15247517      -0.74207992      -1.35322954
H       -0.91482315      -1.79870857      -0.67292890
H       -1.69481771      -0.58247548       0.33658140
H       -0.68105432       1.33099195      -1.11354616
16
Frame=4 idx=011322 GeodesicLength=0.26513338633559397 rxn_smarts="[C:1]([C@@:2]1([H:11])[C@:3]([C:4]([H:13])([H:14])[H:15])([H:12])[C@:5]1([C:6]#[N:7])[H:16])([H:8])([H:9])[H:10]>>[C:1]([C@@:2]([C:3]([C:4]([H:13])([H:14])[H:15])([H:12])[H:16])([C+:5]=[C:6]=[N-:7])[H:11])([H:8])([H:9])[H:10]"
C        1.26373379      -0.70572768       0.87118893
C        1.03386234       0.33144166      -0.20629918
C       -0.24768195       0.20924213      -1.08236102
C       -1.31587649      -0.77659263      -0.66233558
C        0.35042024       1.60262856       0.05575856
C       -0.47699550       1.65169484       1.20930566
N       -1.13880858       1.78100824       2.14759436
H        0.40559408      -0.81548400       1.53375852
H        1.48878947      -1.67755312       0.42757404
H        2.11592960      -0.41091370       1.48500478
H        1.90932615       0.46245318      -0.83869541
H        0.06758573       0.10385216      -2.11849697
H       -2.15549588      -0.73723754      -1.35684671
H       -0.93023170      -1.79718084      -0.66235828
H       -1.70657383      -0.57003124       0.33384591
H       -0.66357746       1.34839996      -1.13663760
16
Frame=5 idx=011322 GeodesicLength=0.33139302518543506 rxn_smarts="[C:1]([C@@:2]1([H:11])[C@:3]([C:4]([H:13])([H:14])[H:15])([H:12])[C@:5]1([C:6]#[N:7])[H:16])([H:8])([H:9])[H:10]>>[C:1]([C@@:2]([C:3]([C:4]([H:13])([H:14])[H:15])([H:12])[H:16])([C+:5]=[C:6]=[N-:7])[H:11])([H:8])([H:9])[H:10]"
C        1.27016506      -0.70511304       0.86998950
C        1.03196445       0.33050552      -0.20663270
C       -0.24524533       0.20277795      -1.08455438
C       -1.32256198      -0.77174876      -0.66159050
C        0.33383506       1.59468404       0.05696582
C       -0.48010622       1.64701079       1.21847160
N       -1.13777956       1.77175411       2.16029077
H        0.41216632      -0.82408895       1.53118779
H        1.50364628      -1.67399783       0.42423954
H        2.11839589      -0.40344285       1.48598419
H        1.90709734       0.47527223      -0.83655156
H        0.07603050       0.07641498      -2.11649440
H       -2.15847394      -0.73263115      -1.36070819
H       -0.94568895      -1.79560438      -0.65176798
H       -1.71849748      -0.55759610       0.33080959
H       -0.64494743       1.36580343      -1.15963908
16
Frame=6 idx=011322 GeodesicLength=0.3976475521831524 rxn_smarts="[C:1]([C@@:2]1([H:11])[C@:3]([C:4]([H:13])([H:14])[H:15])([H:12])[C@:5]1([C:6]#[N:7])[H:16])([H:8])([H:9])[H:10]>>[C:1]([C@@:2]([C:3]([C:4]([H:13])([H:14])[H:15])([H:12])[H:16])([C+:5]=[C:6]=[N-:7])[H:11])([H:8])([H:9])[H:10]"
C        1.27656135      -0.70439554       0.86877616
C        1.02991191       0.32958653      -0.20697672
C       -0.24296155       0.19608404      -1.08672249
C       -1.32932904      -0.76707375      -0.66100612
C        0.31677746       1.58644317       0.05803801
C       -0.48306985       1.64232422       1.22773660
N       -1.13619650       1.76272779       2.17328760
H        0.41872189      -0.83279299       1.52845889
H        1.51871062      -1.67019372       0.42089750
H        2.12060956      -0.39570904       1.48705635
H        1.90447371       0.48821383      -0.83441512
H        0.08410198       0.04905838      -2.11409324
H       -2.16140770      -0.72829690      -1.36483345
H       -0.96118814      -1.79399763      -0.64117158
H       -1.73059583      -0.54518728       0.32744819
H       -0.62511988       1.38320890      -1.18248058
16
Frame=7 idx=011322 GeodesicLength=0.4639014196699526 rxn_smarts="[C:1]([C@@:2]1([H:11])[C@:3]([C:4]([H:13])([H:14])[H:15])([H:12])[C@:5]1([C:6]#[N:7])[H:16])([H:8])([H:9])[H:10]>>[C:1]([C@@:2]([C:3]([C:4]([H:13])([H:14])[H:15])([H:12])[H:16])([C+:5]=[C:6]=[N-:7])[H:11])([H:8])([H:9])[H:10]"
C        1.28290857      -0.70356754       0.86755059
C        1.02768432       0.32868659      -0.20733046
C       -0.24084419       0.18915236      -1.08887015
C       -1.33618096      -0.76259816      -0.66060331
C        0.29921447       1.57789084       0.05896726
C       -0.48588528       1.63764104       1.23709014
N       -1.13396048       1.75399798       2.18662861
H        0.42525059      -0.84159683       1.52556725
H        1.53397993      -1.66612298       0.41755138
H        2.12254305      -0.38769965       1.48822754
H        1.90143271       0.50128086      -0.83228032
H        0.09180269       0.02180372      -2.11131465
H       -2.16429337      -0.72427837      -1.36924792
H       -0.97671851      -1.79238373      -0.63058892
H       -1.74287658      -0.53282985       0.32373165
H       -0.60405696       1.40062371      -1.20507868
16
Frame=8 idx=011322 GeodesicLength=0.5301616999664573 rxn_smarts="[C:1]([C@@:2]1([H:11])[C@:3]([C:4]([H:13])([H:14])[H:15])([H:12])[C@:5]1([C:6]#[N:7])[H:16])([H:8])([H:9])[H:10]>>[C:1]([C@@:2]([C:3]([C:4]([H:13])([H:14])[H:15])([H:12])[H:16])([C+:5]=[C:6]=[N-:7])[H:11])([H:8])([H:9])[H:10]"
C        1.28918849      -0.70262156       0.86631570
C        1.02525799       0.32780699      -0.20769225
C       -0.23890759       0.18197487      -1.09100429
C       -1.34311923      -0.75835944      -0.66040948
C        0.28111007       1.56901019       0.05974638
C       -0.48856107       1.63296480       1.24651508
N       -1.13093816       1.74566430       2.20037384
H        0.43173763      -0.85050202       1.52250788
H        1.54944907      -1.66176683       0.41420623
H        2.12416258      -0.37940204       1.48950696
H        1.89794996       0.51447640      -0.83013780
H        0.09913719      -0.00532275      -2.10818327
H       -2.16712402      -0.72062828      -1.37398471
H       -0.99226396      -1.79079188      -0.62004848
H       -1.75534798      -0.52055959       0.31962268
H       -0.58173098       1.41805683      -1.22733446
16
Frame=9 idx=011322 GeodesicLength=0.5964392435072567 rxn_smarts="[C:1]([C@@:2]1([H:11])[C@:3]([C:4]([H:13])([H:14])[H:15])([H:12])[C@:5]1([C:6]#[N:7])[H:16])([H:8])([H:9])[H:10]>>[C:1]([C@@:2]([C:3]([C:4]([H:13])([H:14])[H:15])([H:12])[H:16])([C+:5]=[C:6]=[N-:7])[H:11])([H:8])([H:9])[H:10]"
C        1.29537730      -0.70155004       0.86507642
C        1.02260496       0.32694843      -0.20805908
C       -0.23716663       0.17454306      -1.09313478
C       -1.35014321      -0.75440394      -0.66046121
C        0.26242341       1.55978204       0.06036874
C       -0.49112058       1.62829512       1.25598608
N       -1.12694616       1.73786716       2.21460784
H        0.43816163      -0.85951157       1.51927521
H        1.56510988      -1.65710505       0.41086966
H        2.12542580      -0.37080318       1.49090827
H        1.89399886       0.52780459      -0.82797286
H        0.10611399      -0.03228941      -2.10472811
H       -2.16988861      -0.71741071      -1.37908792
H       -1.00780198      -1.78925924      -0.60959035
H       -1.76801985      -0.50842627       0.31507397
H       -0.55812882       1.43551900      -1.24913187
16
Frame=10 idx=011322 GeodesicLength=0.6627511238968092 rxn_smarts="[C:1]([C@@:2]1([H:11])[C@:3]([C:4]([H:13])([H:14])[H:15])([H:12])[C@:5]1([C:6]#[N:7])[H:16])([H:8])([H:9])[H:10]>>[C:1]([C@@:2]([C:3]([C:4]([H:13])([H:14])[H:15])([H:12])[H:16])([C+:5]=[C:6]=[N-:7])[H:11])([H:8])([H:9])[H:10]"
C        1.30144658      -0.70034683       0.86383947
C        1.01969409       0.32610999      -0.20842658
C       -0.23563657       0.16684917      -1.09527330
C       -1.35724967      -0.75078640      -0.66080255
C        0.24311224       1.55018467       0.06083006
C       -0.49359980       1.62362677       1.26547106
N       -1.12176014       1.73079036       2.22942908
H        0.44449610      -0.86863113       1.51586329
H        1.58095177      -1.65211716       0.40755134
H        2.12628281      -0.36189156       1.49244935
H        1.88955078       0.54126772      -0.82576709
H        0.11274368      -0.05905610      -2.10098312
H       -2.17257180      -0.71470068      -1.38461041
H       -1.02330291      -1.78783109      -0.59926662
H       -1.78090246      -0.49649437       0.31003061
H       -0.53325471       1.45302666      -1.27033459
16
Frame=11 idx=011322 GeodesicLength=0.7291235340757358 rxn_smarts="[C:1]([C@@:2]1([H:11])[C@:3]([C:4]([H:13])([H:14])[H:15])([H:12])[C@:5]1([C:6]#[N:7])[H:16])([H:8])([H:9])[H:10]>>[C:1]([C@@:2]([C:3]([C:4]([H:13])([H:14])[H:15])([H:12])[H:16])([C+:5]=[C:6]=[N-:7])[H:11])([H:8])([H:9])[H:10]"
C        1.30736066      -0.69900685       0.86261429
C        1.01648885       0.32528995      -0.20878769
C       -0.23433258       0.15888477      -1.09743507
C       -1.36443254      -0.74757321      -0.66148981
C        0.22312750       1.54019261       0.06112853
C       -0.49605768       1.61894569       1.27492986
N       -1.11508462       1.72467927       2.24496485
H        0.45070603      -0.87787068       1.51226504
H        1.59696104      -1.64678118       0.40426374
H        2.12667217      -0.35265679       1.49415470
H        1.88457433       0.55487076      -0.82349364
H        0.11904360      -0.08557609      -2.09698791
H       -2.17515255      -0.71258706      -1.39061974
H       -1.03872894      -1.78656390      -0.58914621
H       -1.79400876      -0.48484855       0.30442483
H       -0.50713652       1.47060125      -1.29078579
16
Frame=12 idx=011322 GeodesicLength=0.7955964021613592 rxn_smarts="[C:1]([C@@:2]1([H:11])[C@:3]([C:4]([H:13])([H:14])[H:15])([H:12])[C@:5]1([C:6]#[N:7])[H:16])([H:8])([H:9])[H:10]>>[C:1]([C@@:2]([C:3]([C:4]([H:13])([H:14])[H:15])([H:12])[H:16])([C+:5]=[C:6]=[N-:7])[H:11])([H:8])([H:9])[H:10]"
C        1.31307764      -0.69752706       0.86141362
C        1.01294832       0.32448602      -0.20913183
C       -0.23326949       0.15064135      -1.09963876
C       -1.37168376      -0.74484280      -0.66259136
C        0.20241449       1.52977624       0.06126720
C       -0.49857716       1.61422632       1.28431860
N       -1.10655173       1.71984602       2.26135950
H        0.45674880      -0.88724625       1.50847344
H        1.61312107      -1.64107416       0.40102134
H        2.12652260      -0.34309130       1.49605652
H        1.87903660       0.56862265      -0.82111666
H        0.12503849      -0.11179552      -2.09278902
H       -2.17760563      -0.71117169      -1.39719778
H       -1.05403565      -1.78552670      -0.57931655
H       -1.80735534      -0.47359615       0.29817794
H       -0.47982923       1.48827303      -1.31030619
16
Frame=13 idx=011322 GeodesicLength=0.8622689223770632 rxn_smarts="[C:1]([C@@:2]1([H:11])[C@:3]([C:4]([H:13])([H:14])[H:15])([H:12])[C@:5]1([C:6]#[N:7])[H:16])([H:8])([H:9])[H:10]>>[C:1]([C@@:2]([C:3]([C:4]([H:13])([H:14])[H:15])([H:12])[H:16])([C+:5]=[C:6]=[N-:7])[H:11])([H:8])([H:9])[H:10]"
C        1.31850852      -0.69590200       0.86026162
C        1.00899253       0.32369746      -0.20943714
C       -0.23246161       0.14209262      -1.10193114
C       -1.37897769      -0.74273084      -0.66425122
C        0.18084602       1.51888437       0.06124290
C       -0.50137014       1.60939278       1.29354395
N       -1.09538631       1.71692223       2.27909980
H        0.46252323      -0.89679775       1.50446077
H        1.62940987      -1.63495671       0.39785646
H        2.12568050      -0.33317086       1.49822547
H        1.87287503       0.58255890      -0.81855641
H        0.13079279      -0.13765510      -2.08845188
H       -2.17986140      -0.71063037      -1.40452620
H       -1.06913152      -1.78483873      -0.56994147
H       -1.82098161      -0.46292663       0.29111899
H       -0.45145821       1.50606065      -1.32871450
16
Frame=14 idx=011322 GeodesicLength=0.9291010833683708 rxn_smarts="[C:1]([C@@:2]1([H:11])[C@:3]([C:4]([H:13])([H:14])[H:15])([H:12])[C@:5]1([C:6]#[N:7])[H:16])([H:8])([H:9])[H:10]>>[C:1]([C@@:2]([C:3]([C:4]([H:13])([H:14])[H:15])([H:12])[H:16])([C+:5]=[C:6]=[N-:7])[H:11])([H:8])([H:9])[H:10]"
C        1.32370127      -0.69416556       0.85914251
C        1.00465585       0.32290529      -0.20969926
C       -0.23191847       0.13328249      -1.10425461
C       -1.38631228      -0.74122644      -0.66638751
C        0.15852945       1.50751029       0.06111388
C       -0.50430516       1.60447006       1.30267026
N       -1.08200493       1.71583743       2.29747091
H        0.46811813      -0.90651614       1.50026480
H        1.64577965      -1.62846883       0.39473299
H        2.12424977      -0.32299155       1.50059409
H        1.86610625       0.59662263      -0.81583957
H        0.13625621      -0.16305022      -2.08398600
H       -2.18196567      -0.71091352      -1.41246239
H       -1.08401890      -1.78450222      -0.56102578
H       -1.83481499      -0.45287550       0.28337211
H       -0.42205616       1.52408180      -1.34570642
16
Frame=15 idx=011322 GeodesicLength=0.9962361056400852 rxn_smarts="[C:1]([C@@:2]1([H:11])[C@:3]([C:4]([H:13])([H:14])[H:15])([H:12])[C@:5]1([C:6]#[N:7])[H:16])([H:8])([H:9])[H:10]>>[C:1]([C@@:2]([C:3]([C:4]([H:13])([H:14])[H:15])([H:12])[H:16])([C+:5]=[C:6]=[N-:7])[H:11])([H:8])([H:9])[H:10]"
C        1.32856651      -0.69232244       0.85809345
C        0.99985874       0.32210888      -0.20988333
C       -0.23165498       0.12418745      -1.10666348
C       -1.39367059      -0.74048985      -0.66916674
C        0.13532851       1.49558986       0.06090652
C       -0.50765038       1.59933966       1.31163737
N       -1.06548277       1.71738290       2.31690201
H        0.47342364      -0.91646729       1.49586894
H        1.66221467      -1.62157223       0.39168123
H        2.12207699      -0.31254320       1.50326218
H        1.85867919       0.61086827      -0.81286428
H        0.14150951      -0.18790437      -2.07948265
H       -2.18386245      -0.71220937      -1.42121697
H       -1.09860629      -1.78466733      -0.55278147
H       -1.84891538      -0.44369146       0.27476272
H       -0.39181491       1.54239053      -1.36105552
16
Frame=16 idx=011322 GeodesicLength=1.063646756165198 rxn_smarts="[C:1]([C@@:2]1([H:11])[C@:3]([C:4]([H:13])([H:14])[H:15])([H:12])[C@:5]1([C:6]#[N:7])[H:16])([H:8])([H:9])[H:10]>>[C:1]([C@@:2]([C:3]([C:4]([H:13])([H:14])[H:15])([H:12])[H:16])([C+:5]=[C:6]=[N-:7])[H:11])([H:8])([H:9])[H:10]"
C        1.33311159      -0.69039304       0.85708492
C        0.99461515       0.32127729      -0.21000587
C       -0.23166240       0.11484059      -1.10910355
C       -1.40101166      -0.74048250      -0.67250530
C        0.11135485       1.48312056       0.06062089
C       -0.51129310       1.59406040       1.32038925
N       -1.04616834       1.72134994       2.33688837
H        0.47850322      -0.92661223       1.49127174
H        1.67864672      -1.61429883       0.38869667
H        2.11918652      -0.30189118       1.50613950
H        1.85057271       0.62520688      -0.80966046
H        0.14652364      -0.21218039      -2.07491242
H       -2.18551983      -0.71445745      -1.43065054
H       -1.11287107      -1.78531217      -0.54515114
H       -1.86318645      -0.43534074       0.26536830
H       -0.36080153       1.56111288      -1.37447038
