12
Frame=0 idx=004418 GeodesicLength=0.0 rxn_smarts="[C:1]([C@@:2]([C:3](=[O:4])[H:11])([C:5]#[C:6][H:12])[H:10])([H:7])([H:8])[H:9]>>[C:1]([C:2](=[C:5]=[C:6]([C:3](=[O:4])[H:11])[H:12])[H:10])([H:7])([H:8])[H:9]"
C       -0.26933769       1.59185274       0.40632172
C        0.12459494       0.19317043       0.77032580
C       -0.61532010      -1.00928238      -0.54206253
O       -1.15784414      -0.48707545      -1.47738383
C        1.06129595      -0.53506874       0.06175545
C        1.18817167      -1.49215982      -0.72561238
H        0.51113944       2.31213930       0.65736653
H       -0.47299429       1.65146380      -0.66459511
H       -1.17566849       1.87277528       0.94301838
H       -0.03226526      -0.12592598       1.79698741
H       -0.92331614      -1.81844103       0.11456270
H        1.76154411      -2.15344813      -1.34068414
12
Frame=1 idx=004418 GeodesicLength=0.07942331009715549 rxn_smarts="[C:1]([C@@:2]([C:3](=[O:4])[H:11])([C:5]#[C:6][H:12])[H:10])([H:7])([H:8])[H:9]>>[C:1]([C:2](=[C:5]=[C:6]([C:3](=[O:4])[H:11])[H:12])[H:10])([H:7])([H:8])[H:9]"
C       -0.25974334       1.59543514       0.40516133
C        0.11967029       0.19247493       0.77153130
C       -0.63087630      -1.02498321      -0.54322692
O       -1.18697061      -0.52033472      -1.48032793
C        1.06303844      -0.53607321       0.07204319
C        1.19096488      -1.49291930      -0.71670898
H        0.52096597       2.30916748       0.67337639
H       -0.44434967       1.66045457      -0.66877007
H       -1.17398156       1.87921417       0.92677647
H       -0.03521895      -0.11911551       1.80106696
H       -0.93983375      -1.82921902       0.12108155
H        1.77633460      -2.11410133      -1.36200330
12
Frame=2 idx=004418 GeodesicLength=0.15883160975403698 rxn_smarts="[C:1]([C@@:2]([C:3](=[O:4])[H:11])([C:5]#[C:6][H:12])[H:10])([H:7])([H:8])[H:9]>>[C:1]([C:2](=[C:5]=[C:6]([C:3](=[O:4])[H:11])[H:12])[H:10])([H:7])([H:8])[H:9]"
C       -0.25018614       1.59913624       0.40429658
C        0.11511315       0.19193899       0.77219476
C       -0.64636821      -1.04061923      -0.54494197
O       -1.21671787      -0.55433200      -1.48330849
C        1.06530865      -0.53631902       0.08149773
C        1.19408576      -1.49219721      -0.70959159
H        0.52998394       2.30642776       0.69033868
H       -0.41515487       1.67009236      -0.67232733
H       -1.17238015       1.88519745       0.91047823
H       -0.03747293      -0.11255263       1.80448388
H       -0.95557090      -1.84015262       0.12702801
H        1.78935957      -2.07662007      -1.38014850
12
Frame=3 idx=004418 GeodesicLength=0.23819128211037968 rxn_smarts="[C:1]([C@@:2]([C:3](=[O:4])[H:11])([C:5]#[C:6][H:12])[H:10])([H:7])([H:8])[H:9]>>[C:1]([C:2](=[C:5]=[C:6]([C:3](=[O:4])[H:11])[H:12])[H:10])([H:7])([H:8])[H:9]"
C       -0.24063105       1.60297125       0.40369363
C        0.11085143       0.19156430       0.77238165
C       -0.66185837      -1.05624671      -0.54709832
O       -1.24694882      -0.58925538      -1.48632582
C        1.06804243      -0.53590900       0.09031129
C        1.19740795      -1.49024770      -0.70386857
H        0.53825053       2.30388192       0.70816458
H       -0.38532788       1.68037112      -0.67526535
H       -1.17079874       1.89085449       0.89404264
H       -0.03921521      -0.10616592       1.80731219
H       -0.97074222      -1.85117698       0.13259139
H        1.80096995      -2.04064141      -1.39593931
12
Frame=4 idx=004418 GeodesicLength=0.3175327275121817 rxn_smarts="[C:1]([C@@:2]([C:3](=[O:4])[H:11])([C:5]#[C:6][H:12])[H:10])([H:7])([H:8])[H:9]>>[C:1]([C:2](=[C:5]=[C:6]([C:3](=[O:4])[H:11])[H:12])[H:10])([H:7])([H:8])[H:9]"
C       -0.23106560       1.60696487       0.40334539
C        0.10684298       0.19136211       0.77213177
C       -0.67738817      -1.07190320      -0.54964385
O       -1.27754046      -0.62527465      -1.48942607
C        1.07121640      -0.53489662       0.09859715
C        1.20086441      -1.48726905      -0.69925541
H        0.54580103       2.30151384       0.72678737
H       -0.35485343       1.69131002      -0.67755564
H       -1.16919000       1.89629682       0.87746099
H       -0.04056576      -0.09990359       1.80960359
H       -0.98549906      -1.86223233       0.13788815
H        1.81137766      -2.00596823      -1.40993344
12
Frame=5 idx=004418 GeodesicLength=0.39680297421331234 rxn_smarts="[C:1]([C@@:2]([C:3](=[O:4])[H:11])([C:5]#[C:6][H:12])[H:10])([H:7])([H:8])[H:9]>>[C:1]([C:2](=[C:5]=[C:6]([C:3](=[O:4])[H:11])[H:12])[H:10])([H:7])([H:8])[H:9]"
C       -0.22150165       1.61114437       0.40326579
C        0.10307987       0.19135176       0.77143817
C       -0.69296803      -1.08758871      -0.55256589
O       -1.30837583      -0.66250565      -1.49264211
C        1.07482683      -0.53325282       0.10636147
C        1.20440794      -1.48336277      -0.69557299
H        0.55261097       2.29932648       0.74618377
H       -0.32374746       1.70298184      -0.67912837
H       -1.16753315       1.90156118       0.86075033
H       -0.04156114      -0.09375641       1.81134714
H       -0.99991155      -1.87324998       0.14297982
H        1.82067320      -1.97264928      -1.42241712
12
Frame=6 idx=004418 GeodesicLength=0.47601235513702844 rxn_smarts="[C:1]([C@@:2]([C:3](=[O:4])[H:11])([C:5]#[C:6][H:12])[H:10])([H:7])([H:8])[H:9]>>[C:1]([C:2](=[C:5]=[C:6]([C:3](=[O:4])[H:11])[H:12])[H:10])([H:7])([H:8])[H:9]"
C       -0.21195258       1.61554192       0.40347824
C        0.09954493       0.19154654       0.77028379
C       -0.70864633      -1.10330175      -0.55588298
O       -1.33935932      -0.70107996      -1.49606569
C        1.07885519      -0.53096550       0.11357408
C        1.20796661      -1.47866180      -0.69268632
H        0.55872906       2.29730880       0.76623958
H       -0.29216391       1.71544060      -0.67990923
H       -1.16574631       1.90675313       0.84408198
H       -0.04222524      -0.08772624       1.81253108
H       -1.01409591      -1.88415422       0.14789166
H        1.82909381      -1.94070152      -1.43353619
12
Frame=7 idx=004418 GeodesicLength=0.5551336579923729 rxn_smarts="[C:1]([C@@:2]([C:3](=[O:4])[H:11])([C:5]#[C:6][H:12])[H:10])([H:7])([H:8])[H:9]>>[C:1]([C:2](=[C:5]=[C:6]([C:3](=[O:4])[H:11])[H:12])[H:10])([H:7])([H:8])[H:9]"
C       -0.20245702       1.62020379       0.40402689
C        0.09627168       0.19198387       0.76862378
C       -0.72442571      -1.11901255      -0.55963284
O       -1.37039876      -0.74108243      -1.49974007
C        1.08332831      -0.52793563       0.12012758
C        1.21151166      -1.47323123      -0.69051007
H        0.56408247       2.29550369       0.78698830
H       -0.26017462       1.72881276      -0.67978832
H       -1.16384903       1.91186426       0.82751942
H       -0.04249614      -0.08182315       1.81310259
H       -1.02807884      -1.89485435       0.15263177
H        1.83668601      -1.91042905      -1.44334905
12
Frame=8 idx=004418 GeodesicLength=0.6341669290052675 rxn_smarts="[C:1]([C@@:2]([C:3](=[O:4])[H:11])([C:5]#[C:6][H:12])[H:10])([H:7])([H:8])[H:9]>>[C:1]([C:2](=[C:5]=[C:6]([C:3](=[O:4])[H:11])[H:12])[H:10])([H:7])([H:8])[H:9]"
C       -0.19292944       1.62512769       0.40486164
C        0.09319177       0.19264715       0.76650226
C       -0.74038377      -1.13480034      -0.56371075
O       -1.40143357      -0.78275867      -1.50361562
C        1.08817656      -0.52428515       0.12618736
C        1.21496266      -1.46717625      -0.68889630
H        0.56875795       2.29382993       0.80843417
H       -0.22756246       1.74305964      -0.67879234
H       -1.16177349       1.91701108       0.81089790
H       -0.04255935      -0.07600942       1.81311233
H       -1.04196226      -1.90537993       0.15733395
H        1.84351540      -1.88126571      -1.45231461
12
Frame=9 idx=004418 GeodesicLength=0.7131584097990535 rxn_smarts="[C:1]([C@@:2]([C:3](=[O:4])[H:11])([C:5]#[C:6][H:12])[H:10])([H:7])([H:8])[H:9]>>[C:1]([C:2](=[C:5]=[C:6]([C:3](=[O:4])[H:11])[H:12])[H:10])([H:7])([H:8])[H:9]"
C       -0.18329867       1.63032474       0.40595248
C        0.09026812       0.19353725       0.76394985
C       -0.75657284      -1.15073359      -0.56803891
O       -1.43244466      -0.82632556      -1.50760383
C        1.09337313      -0.52009641       0.13188515
C        1.21828784      -1.46053408      -0.68777354
H        0.57274326       2.29224404       0.83069042
H       -0.19403016       1.75818476      -0.67690086
H       -1.15951037       1.92225614       0.79395124
H       -0.04255586      -0.07024372       1.81259718
H       -1.05577266      -1.91576625       0.16210872
H        1.84951288      -1.85284731      -1.46081791
12
Frame=10 idx=004418 GeodesicLength=0.7921131627254053 rxn_smarts="[C:1]([C@@:2]([C:3](=[O:4])[H:11])([C:5]#[C:6][H:12])[H:10])([H:7])([H:8])[H:9]>>[C:1]([C:2](=[C:5]=[C:6]([C:3](=[O:4])[H:11])[H:12])[H:10])([H:7])([H:8])[H:9]"
C       -0.17348101       1.63579829       0.40726655
C        0.08746460       0.19465315       0.76098005
C       -0.77305557      -1.16687536      -0.57254148
O       -1.46341364      -0.87200435      -1.51159295
C        1.09887472      -0.51545040       0.13733665
C        1.22142853      -1.45331071      -0.68710684
H        0.57602272       2.29069444       0.85385406
H       -0.15928126       1.77417707      -0.67407026
H       -1.15701236       1.92765291       0.77641986
H       -0.04263258      -0.06450032       1.81156466
H       -1.06953317      -1.92605143       0.16705329
H        1.85461900      -1.82478329      -1.46916359
12
Frame=11 idx=004418 GeodesicLength=0.8710106508797067 rxn_smarts="[C:1]([C@@:2]([C:3](=[O:4])[H:11])([C:5]#[C:6][H:12])[H:10])([H:7])([H:8])[H:9]>>[C:1]([C:2](=[C:5]=[C:6]([C:3](=[O:4])[H:11])[H:12])[H:10])([H:7])([H:8])[H:9]"
C       -0.16352777       1.64159905       0.40886411
C        0.08479740       0.19603186       0.75751924
C       -0.78985791      -1.18317862      -0.57730932
O       -1.49418720      -0.91990458      -1.51569077
C        1.10468916      -0.51023170       0.14237579
C        1.22434971      -1.44555702      -0.68687268
H        0.57860613       2.28918996       0.87780462
H       -0.12360990       1.79113806      -0.67015352
H       -1.15419577       1.93328446       0.75860032
H       -0.04271419      -0.05882198       1.80993680
H       -1.08328990      -1.93612586       0.17210841
H        1.85894023      -1.79742361      -1.47718301
12
Frame=12 idx=004418 GeodesicLength=0.949867735384577 rxn_smarts="[C:1]([C@@:2]([C:3](=[O:4])[H:11])([C:5]#[C:6][H:12])[H:10])([H:7])([H:8])[H:9]>>[C:1]([C:2](=[C:5]=[C:6]([C:3](=[O:4])[H:11])[H:12])[H:10])([H:7])([H:8])[H:9]"
C       -0.15336109       1.64773939       0.41072062
C        0.08222412       0.19767711       0.75357089
C       -0.80704315      -1.19970471      -0.58228337
O       -1.52469785      -0.97027332      -1.51979993
C        1.11077326      -0.50451707       0.14710706
C        1.22700554      -1.43728103      -0.68704261
H        0.58048581       2.28767244       0.90261643
H       -0.08676643       1.80906226      -0.66508515
H       -1.15099069       1.93924332       0.74028249
H       -0.04295331      -0.05318883       1.80771284
H       -1.09706351      -1.94602007       0.17735617
H        1.86238728      -1.77040948      -1.48515546
12
Frame=13 idx=004418 GeodesicLength=1.028667460418021 rxn_smarts="[C:1]([C@@:2]([C:3](=[O:4])[H:11])([C:5]#[C:6][H:12])[H:10])([H:7])([H:8])[H:9]>>[C:1]([C:2](=[C:5]=[C:6]([C:3](=[O:4])[H:11])[H:12])[H:10])([H:7])([H:8])[H:9]"
C       -0.14303283       1.65427298       0.41290227
C        0.07979124       0.19963977       0.74904946
C       -0.82463611      -1.21638935      -0.58756772
O       -1.55483008      -1.02319118      -1.52395579
C        1.11715280      -0.49816646       0.15132304
C        1.22936277      -1.42851779      -0.68762847
H        0.58161281       2.28616382       0.92824999
H       -0.04898958       1.82807593      -0.65870387
H       -1.14736619       1.94555791       0.72168560
H       -0.04324517      -0.04764508       1.80479984
H       -1.11087409      -1.95559533       0.18273723
H        1.86505444      -1.74420523      -1.49289157
12
Frame=14 idx=004418 GeodesicLength=1.1074248576064414 rxn_smarts="[C:1]([C@@:2]([C:3](=[O:4])[H:11])([C:5]#[C:6][H:12])[H:10])([H:7])([H:8])[H:9]>>[C:1]([C:2](=[C:5]=[C:6]([C:3](=[O:4])[H:11])[H:12])[H:10])([H:7])([H:8])[H:9]"
C       -0.13246488       1.66121365       0.41539065
C        0.07743050       0.20192687       0.74394969
C       -0.84271114      -1.23329694      -0.59312661
O       -1.58442890      -1.07895247      -1.52809342
C        1.12376259      -0.49125391       0.15513658
C        1.23137289      -1.41927245      -0.68858826
H        0.58205863       2.28458145       0.95468145
H       -0.01015050       1.84814052      -0.65093399
H       -1.14318498       1.95238952       0.70273327
H       -0.04377094      -0.04217312       1.80118433
H       -1.12476525      -1.96487579       0.18829730
H        1.86685199      -1.71842734      -1.50063098
12
Frame=15 idx=004418 GeodesicLength=1.1861678813866032 rxn_smarts="[C:1]([C@@:2]([C:3](=[O:4])[H:11])([C:5]#[C:6][H:12])[H:10])([H:7])([H:8])[H:9]>>[C:1]([C:2](=[C:5]=[C:6]([C:3](=[O:4])[H:11])[H:12])[H:10])([H:7])([H:8])[H:9]"
C       -0.12158509       1.66858151       0.41817641
C        0.07512122       0.20455579       0.73825422
C       -0.86134855      -1.25046607      -0.59892651
O       -1.61340587      -1.13779641      -1.53205962
C        1.13056939      -0.48383889       0.15859594
C        1.23298173      -1.40953269      -0.68995483
H        0.58173976       2.28287807       0.98203351
H        0.03003136       1.86926950      -0.64165649
H       -1.13839362       1.95980548       0.68317371
H       -0.04464097      -0.03676398       1.79684868
H       -1.13874854      -1.97385528       0.19410609
H        1.86767917      -1.69283702      -1.50859111
12
Frame=16 idx=004418 GeodesicLength=1.2649092798533264 rxn_smarts="[C:1]([C@@:2]([C:3](=[O:4])[H:11])([C:5]#[C:6][H:12])[H:10])([H:7])([H:8])[H:9]>>[C:1]([C:2](=[C:5]=[C:6]([C:3](=[O:4])[H:11])[H:12])[H:10])([H:7])([H:8])[H:9]"
C       -0.11031727       1.67639542       0.42125574
C        0.07282850       0.20754992       0.73191788
C       -0.88063115      -1.26794783      -0.60495083
O       -1.64164446      -1.19999956      -1.53567280
C        1.13752088      -0.47595724       0.16172801
C        1.23412103      -1.39926322      -0.69176587
H        0.58057377       2.28098128       1.01041624
H        0.07181996       1.89147822      -0.63070421
H       -1.13288861       1.96789885       0.66277488
H       -0.04597490      -0.03141152       1.79173356
H       -1.15282876      -1.98252273       0.20021292
H        1.86742102      -1.66720159      -1.51694552
