12
Frame=0 idx=001695 GeodesicLength=0.0 rxn_smarts="[C:1](#[C:2][C@@:3]1([H:8])[C:4]([H:9])([H:10])[C:5]([H:11])([H:12])[O:6]1)[H:7]>>[C:1](=[C:2])([C@@:3]1([H:8])[C:4]([H:9])([H:10])[C:5]([H:11])([H:12])[O:6]1)[H:7]"
C        1.99661510      -0.18059225      -0.07716093
C        1.97671120       0.71436526      -0.94497454
C        0.31353481       0.23501308      -0.77396534
C       -0.53314790      -0.71649892       0.13574494
C       -1.18926770       0.58121120       0.60552544
O       -0.38356796       1.35755632      -0.29395702
H        2.12890478      -0.90770149       0.69501872
H        0.15333200       0.04312281      -1.83096737
H       -1.17264665      -1.36928212      -0.45430453
H       -0.03843994      -1.29998913       0.90493180
H       -0.99838904       0.85457143       1.64586726
H       -2.25363868       0.68822386       0.38824156
12
Frame=1 idx=001695 GeodesicLength=0.04760808264139189 rxn_smarts="[C:1](#[C:2][C@@:3]1([H:8])[C:4]([H:9])([H:10])[C:5]([H:11])([H:12])[O:6]1)[H:7]>>[C:1](=[C:2])([C@@:3]1([H:8])[C:4]([H:9])([H:10])[C:5]([H:11])([H:12])[O:6]1)[H:7]"
C        2.00295979      -0.17336601      -0.06909005
C        1.98711363       0.67838768      -0.97739864
C        0.31245446       0.23225979      -0.77188314
C       -0.54160082      -0.71917808       0.12850444
C       -1.19067351       0.57888223       0.60763337
O       -0.37340009       1.35857214      -0.27852170
H        2.16098365      -0.87178207       0.72441175
H        0.13430677       0.05612704      -1.82974836
H       -1.18477642      -1.36692232      -0.46310679
H       -0.04866229      -1.30932545       0.89387332
H       -1.00606437       0.84048208       1.65208160
H       -2.25264080       0.69586297       0.38324420
12
Frame=2 idx=001695 GeodesicLength=0.09514999422351167 rxn_smarts="[C:1](#[C:2][C@@:3]1([H:8])[C:4]([H:9])([H:10])[C:5]([H:11])([H:12])[O:6]1)[H:7]>>[C:1](=[C:2])([C@@:3]1([H:8])[C:4]([H:9])([H:10])[C:5]([H:11])([H:12])[O:6]1)[H:7]"
C        2.00945405      -0.16562220      -0.06094594
C        1.99687101       0.63982512      -1.00873664
C        0.31134531       0.22942143      -0.76962097
C       -0.55025501      -0.72180060       0.12132138
C       -1.19231755       0.57653506       0.60969050
O       -0.36308126       1.35925299      -0.26270891
H        2.19423387      -0.83447198       0.75201265
H        0.11580282       0.06979784      -1.82802971
H       -1.19702241      -1.36446554      -0.47191724
H       -0.05900859      -1.31851375       0.88282154
H       -1.01436710       0.82631551       1.65813996
H       -2.25165515       0.70372613       0.37797338
12
Frame=3 idx=001695 GeodesicLength=0.1426136818678431 rxn_smarts="[C:1](#[C:2][C@@:3]1([H:8])[C:4]([H:9])([H:10])[C:5]([H:11])([H:12])[O:6]1)[H:7]>>[C:1](=[C:2])([C@@:3]1([H:8])[C:4]([H:9])([H:10])[C:5]([H:11])([H:12])[O:6]1)[H:7]"
C        2.01612296      -0.15818440      -0.05346501
C        2.00594580       0.59814879      -1.03919058
C        0.31017248       0.22639354      -0.76734840
C       -0.55924421      -0.72451342       0.11387175
C       -1.19394549       0.57403380       0.61184750
O       -0.35234118       1.35948159      -0.24630077
H        2.22823639      -0.79354584       0.77947657
H        0.09770445       0.08434927      -1.82599760
H       -1.20975981      -1.36172958      -0.48114840
H       -0.06966045      -1.32803481       0.87121980
H       -1.02280355       0.81161605       1.66421839
H       -2.25042739       0.71198503       0.37281675
12
Frame=4 idx=001695 GeodesicLength=0.19001643750848174 rxn_smarts="[C:1](#[C:2][C@@:3]1([H:8])[C:4]([H:9])([H:10])[C:5]([H:11])([H:12])[O:6]1)[H:7]>>[C:1](=[C:2])([C@@:3]1([H:8])[C:4]([H:9])([H:10])[C:5]([H:11])([H:12])[O:6]1)[H:7]"
C        2.02302727      -0.15015311      -0.04592529
C        2.01425463       0.55400918      -1.06798551
C        0.30900332       0.22337034      -0.76469175
C       -0.56843466      -0.72708252       0.10661659
C       -1.19602110       0.57157175       0.61389677
O       -0.34167687       1.35938981      -0.22955378
H        2.26390823      -0.75190000       0.80404484
H        0.08053216       0.09948395      -1.82328587
H       -1.22246098      -1.35891688      -0.49029491
H       -0.08051840      -1.33720273       0.85990571
H       -1.03222946       0.79704352       1.67005541
H       -2.24938414       0.72038668       0.36721778
12
Frame=5 idx=001695 GeodesicLength=0.2373395055637408 rxn_smarts="[C:1](#[C:2][C@@:3]1([H:8])[C:4]([H:9])([H:10])[C:5]([H:11])([H:12])[O:6]1)[H:7]>>[C:1](=[C:2])([C@@:3]1([H:8])[C:4]([H:9])([H:10])[C:5]([H:11])([H:12])[O:6]1)[H:7]"
C        2.03020857      -0.14249514      -0.03909668
C        2.02174325       0.50688142      -1.09533549
C        0.30781587       0.22022431      -0.76180640
C       -0.57797725      -0.72966234       0.09922546
C       -1.19827701       0.56900891       0.61600074
O       -0.33075988       1.35884398      -0.21219645
H        2.30079695      -0.70710657       0.82735868
H        0.06418119       0.11540778      -1.82007287
H       -1.23553278      -1.35582256      -0.49978714
H       -0.09180007      -1.34653050       0.84830523
H       -1.04215326       0.78210788       1.67584441
H       -2.24824557       0.72914282       0.36156049
12
Frame=6 idx=001695 GeodesicLength=0.2846106747605064 rxn_smarts="[C:1](#[C:2][C@@:3]1([H:8])[C:4]([H:9])([H:10])[C:5]([H:11])([H:12])[O:6]1)[H:7]>>[C:1](=[C:2])([C@@:3]1([H:8])[C:4]([H:9])([H:10])[C:5]([H:11])([H:12])[O:6]1)[H:7]"
C        2.03772627      -0.13489482      -0.03272260
C        2.02833619       0.45703797      -1.12081717
C        0.30665347       0.21704036      -0.75848216
C       -0.58783589      -0.73215613       0.09188566
C       -1.20094121       0.56642160       0.61807209
O       -0.31980445       1.35789205      -0.19427595
H        2.33940792      -0.66027853       0.84814396
H        0.04895224       0.13198243      -1.81617679
H       -1.24875898      -1.35251291      -0.50945692
H       -0.10352353      -1.35575323       0.83677352
H       -1.05301015       0.76706138       1.68147863
H       -2.24720187       0.73815984       0.35557773
12
Frame=7 idx=001695 GeodesicLength=0.33183079499407125 rxn_smarts="[C:1](#[C:2][C@@:3]1([H:8])[C:4]([H:9])([H:10])[C:5]([H:11])([H:12])[O:6]1)[H:7]>>[C:1](=[C:2])([C@@:3]1([H:8])[C:4]([H:9])([H:10])[C:5]([H:11])([H:12])[O:6]1)[H:7]"
C        2.04562965      -0.12789557      -0.02712432
C        2.03396016       0.40422142      -1.14439323
C        0.30553623       0.21373954      -0.75472355
C       -0.59811061      -0.73463175       0.08445163
C       -1.20391344       0.56374665       0.62018901
O       -0.30864062       1.35643652      -0.17561380
H        2.37959520      -0.61013817       0.86683778
H        0.03492489       0.14927010      -1.81162728
H       -1.26234548      -1.34885750      -0.51953169
H       -0.11587539      -1.36512555       0.82506379
H       -1.06464068       0.75166619       1.68704592
H       -2.24611992       0.74756813       0.34942574
12
Frame=8 idx=001695 GeodesicLength=0.37905767894151476 rxn_smarts="[C:1](#[C:2][C@@:3]1([H:8])[C:4]([H:9])([H:10])[C:5]([H:11])([H:12])[O:6]1)[H:7]>>[C:1](=[C:2])([C@@:3]1([H:8])[C:4]([H:9])([H:10])[C:5]([H:11])([H:12])[O:6]1)[H:7]"
C        2.05401776      -0.12123844      -0.02208939
C        2.03853976       0.34880893      -1.16564499
C        0.30451691       0.21040193      -0.75028628
C       -0.60875846      -0.73699779       0.07712888
C       -1.20745865       0.56105892       0.62224944
O       -0.29745321       1.35452620      -0.15617021
H        2.42194192      -0.55783418       0.88213120
H        0.02237205       0.16714465      -1.80622348
H       -1.27604549      -1.34494399      -0.52983903
H       -0.12887458      -1.37437579       0.81357133
H       -1.07760134       0.73615808       1.69243470
H       -2.24519667       0.75729148       0.34273784
12
Frame=9 idx=001695 GeodesicLength=0.4261766670865018 rxn_smarts="[C:1](#[C:2][C@@:3]1([H:8])[C:4]([H:9])([H:10])[C:5]([H:11])([H:12])[O:6]1)[H:7]>>[C:1](=[C:2])([C@@:3]1([H:8])[C:4]([H:9])([H:10])[C:5]([H:11])([H:12])[O:6]1)[H:7]"
C        2.06285430      -0.11530714      -0.01773781
C        2.04201758       0.29039503      -1.18447456
C        0.30362915       0.20687656      -0.74525609
C       -0.61992161      -0.73935935       0.06964054
C       -1.21130677       0.55826563       0.62439226
O       -0.28609235       1.35200198      -0.13592688
H        2.46583413      -0.50166786       0.89460178
H        0.01146634       0.18556033      -1.80008583
H       -1.29021721      -1.34054851      -0.54073212
H       -0.14278126      -1.38392278       0.80181306
H       -1.09130154       0.72023601       1.69775400
H       -2.24418076       0.76747011       0.33601165
12
Frame=10 idx=001695 GeodesicLength=0.47333651589550313 rxn_smarts="[C:1](#[C:2][C@@:3]1([H:8])[C:4]([H:9])([H:10])[C:5]([H:11])([H:12])[O:6]1)[H:7]>>[C:1](=[C:2])([C@@:3]1([H:8])[C:4]([H:9])([H:10])[C:5]([H:11])([H:12])[O:6]1)[H:7]"
C        2.07233090      -0.10973725      -0.01383782
C        2.04433190       0.22991668      -1.20032649
C        0.30294022       0.20331866      -0.73921602
C       -0.63147096      -0.74156238       0.06240997
C       -1.21597925       0.55550254       0.62639606
O       -0.27483030       1.34898811      -0.11471917
H        2.51241096      -0.44395909       0.90219181
H        0.00246483       0.20437874      -1.79285643
H       -1.30432781      -1.33592289      -0.55182093
H       -0.15751343      -1.39321486       0.79059013
H       -1.10690771       0.70433714       1.70278741
H       -2.24344936       0.77795462       0.32840148
12
Frame=11 idx=001695 GeodesicLength=0.520520942252429 rxn_smarts="[C:1](#[C:2][C@@:3]1([H:8])[C:4]([H:9])([H:10])[C:5]([H:11])([H:12])[O:6]1)[H:7]>>[C:1](=[C:2])([C@@:3]1([H:8])[C:4]([H:9])([H:10])[C:5]([H:11])([H:12])[O:6]1)[H:7]"
C        2.08246704      -0.10515821      -0.01054408
C        2.04545007       0.16721324      -1.21308218
C        0.30250159       0.19955509      -0.73214266
C       -0.64354600      -0.74370182       0.05526313
C       -1.22132686       0.55270346       0.62835084
O       -0.26343690       1.34530684      -0.09233944
H        2.56138547      -0.38318080       0.90508968
H       -0.00449713       0.22359689      -1.78454052
H       -1.31864948      -1.33088879      -0.56338782
H       -0.17336123      -1.40259294       0.77960608
H       -1.12419870       0.68820230       1.70761243
H       -2.24278786       0.78894473       0.32011453
12
Frame=12 idx=001695 GeodesicLength=0.5679242610729335 rxn_smarts="[C:1](#[C:2][C@@:3]1([H:8])[C:4]([H:9])([H:10])[C:5]([H:11])([H:12])[O:6]1)[H:7]>>[C:1](=[C:2])([C@@:3]1([H:8])[C:4]([H:9])([H:10])[C:5]([H:11])([H:12])[O:6]1)[H:7]"
C        2.09343612      -0.10090690      -0.00752707
C        2.04537569       0.10301681      -1.22234528
C        0.30236983       0.19571509      -0.72370691
C       -0.65601797      -0.74567760       0.04849814
C       -1.22774365       0.54996350       0.63008574
O       -0.25220502       1.34104951      -0.06865682
H        2.61348257      -0.32137143       0.90168403
H       -0.00923649       0.24308465      -1.77486715
H       -1.33273648      -1.32566161      -0.57517388
H       -0.19020899      -1.41166772       0.76943511
H       -1.14405153       0.67214957       1.71203675
H       -2.24246409       0.80030612       0.31053734
12
Frame=13 idx=001695 GeodesicLength=0.615008657707167 rxn_smarts="[C:1](#[C:2][C@@:3]1([H:8])[C:4]([H:9])([H:10])[C:5]([H:11])([H:12])[O:6]1)[H:7]>>[C:1](=[C:2])([C@@:3]1([H:8])[C:4]([H:9])([H:10])[C:5]([H:11])([H:12])[O:6]1)[H:7]"
C        2.10502041      -0.09823516      -0.00493899
C        2.04413633       0.03612879      -1.22800198
C        0.30263358       0.19125583      -0.71424651
C       -0.66927142      -0.74775863       0.04136971
C       -1.23429258       0.54704841       0.63200594
O       -0.24051571       1.33573620      -0.04375695
H        2.66627114      -0.25365190       0.89354852
H       -0.01142980       0.26268910      -1.76415649
H       -1.34763855      -1.31954383      -0.58804517
H       -0.20876613      -1.42156359       0.75868665
H       -1.16453204       0.65540001       1.71637504
H       -2.24161524       0.81249478       0.30116024
12
Frame=14 idx=001695 GeodesicLength=0.6623077902351717 rxn_smarts="[C:1](#[C:2][C@@:3]1([H:8])[C:4]([H:9])([H:10])[C:5]([H:11])([H:12])[O:6]1)[H:7]>>[C:1](=[C:2])([C@@:3]1([H:8])[C:4]([H:9])([H:10])[C:5]([H:11])([H:12])[O:6]1)[H:7]"
C        2.11759556      -0.09581604      -0.00231103
C        2.04185928      -0.03149180      -1.22951870
C        0.30333840       0.18658680      -0.70313168
C       -0.68292255      -0.74969721       0.03464242
C       -1.24197367       0.54418388       0.63368596
O       -0.22907614       1.32969791      -0.01736996
H        2.72171639      -0.18518705       0.87767898
H       -0.01099768       0.28228989      -1.75187295
H       -1.36219079      -1.31318157      -0.60125950
H       -0.22852250      -1.43123076       0.74882586
H       -1.18780114       0.63877010       1.72020973
H       -2.24102516       0.82507585       0.29042087
12
Frame=15 idx=001695 GeodesicLength=0.7098053139112444 rxn_smarts="[C:1](#[C:2][C@@:3]1([H:8])[C:4]([H:9])([H:10])[C:5]([H:11])([H:12])[O:6]1)[H:7]>>[C:1](=[C:2])([C@@:3]1([H:8])[C:4]([H:9])([H:10])[C:5]([H:11])([H:12])[O:6]1)[H:7]"
C        2.13119142      -0.09324445       0.00049665
C        2.03856681      -0.09934535      -1.22659614
C        0.30451428       0.18173049      -0.69012823
C       -0.69687854      -0.75148852       0.02840961
C       -1.25088150       0.54138449       0.63502621
O       -0.21799353       1.32291782       0.01068776
H        2.77974996      -0.11687717       0.85322459
H       -0.00786984       0.30183077      -1.73775311
H       -1.37612661      -1.30667668      -0.61476601
H       -0.24944168      -1.44057370       0.74001157
H       -1.21420267       0.62234635       1.72334425
H       -2.24062809       0.83799595       0.27804284
12
Frame=16 idx=001695 GeodesicLength=0.7572436879476068 rxn_smarts="[C:1](#[C:2][C@@:3]1([H:8])[C:4]([H:9])([H:10])[C:5]([H:11])([H:12])[O:6]1)[H:7]>>[C:1](=[C:2])([C@@:3]1([H:8])[C:4]([H:9])([H:10])[C:5]([H:11])([H:12])[O:6]1)[H:7]"
C        2.14578857      -0.09195087       0.00354001
C        2.03454616      -0.16831840      -1.21907832
C        0.30630962       0.17611779      -0.67542793
C       -0.71149483      -0.75332900       0.02210365
C       -1.26029004       0.53850297       0.63638449
O       -0.20664605       1.31490941       0.04049030
H        2.83806681      -0.04450927       0.82083958
H       -0.00167784       0.32112675      -1.72199033
H       -1.39032300      -1.29934718      -0.62931056
H       -0.27224665      -1.45052657       0.73118990
H       -1.24232835       0.60553717       1.72608949
H       -2.23970440       0.85178720       0.26516972
