14
Frame=0 idx=010141 GeodesicLength=0.0 rxn_smarts="[O:1]([C@@:2]1([H:9])[C@@:3]2([H:10])[C@@:4]3([H:11])[C:5]([H:12])([H:13])[C@:6]1([H:14])[N:7]23)[H:8]>>[O:1](/[C:2](=[C:3](/[C@@:4]1([H:11])[C:5]([H:12])([H:13])[C:6]([H:14])=[N:7]1)[H:10])[H:9])[H:8]"
O        2.04822924      -0.28631430      -1.00593383
C        1.20462617      -0.06786736       0.06106268
C        0.43506215       1.11924962      -0.07157400
C       -1.00746113       0.90539042       0.14884893
C       -1.38409515      -0.44878758      -0.47090232
C       -0.48240880      -0.88785830       0.67273867
N       -0.65836821       0.24136498       1.41805680
H        2.82888787      -0.76492609      -0.71915656
H        1.62459712      -0.38974211       1.00311289
H        0.85781394       2.02592335      -0.49915640
H       -1.65712367       1.77716164       0.15631695
H       -1.10320383      -0.66371592      -1.50294655
H       -2.43213133      -0.69469161      -0.28776880
H       -0.27442437      -1.86518675       1.09730157
14
Frame=1 idx=010141 GeodesicLength=0.05580993391726783 rxn_smarts="[O:1]([C@@:2]1([H:9])[C@@:3]2([H:10])[C@@:4]3([H:11])[C:5]([H:12])([H:13])[C@:6]1([H:14])[N:7]23)[H:8]>>[O:1](/[C:2](=[C:3](/[C@@:4]1([H:11])[C:5]([H:12])([H:13])[C:6]([H:14])=[N:7]1)[H:10])[H:9])[H:8]"
O        2.04471272      -0.27757426      -1.02492611
C        1.20832202      -0.07073553       0.05082924
C        0.43965739       1.11826264      -0.05986970
C       -1.00667498       0.90480850       0.13418523
C       -1.38212047      -0.45649500      -0.46852984
C       -0.49285866      -0.88523187       0.68791379
N       -0.66483616       0.25878144       1.41575674
H        2.83341992      -0.74888507      -0.74908434
H        1.63798176      -0.41145539       0.98231962
H        0.86881539       2.04224339      -0.44032560
H       -1.65806229       1.77504053       0.12970498
H       -1.08908392      -0.69293216      -1.49231710
H       -2.43309558      -0.69683585      -0.29612377
H       -0.30617714      -1.85899135       1.13046686
14
Frame=2 idx=010141 GeodesicLength=0.11158279480203405 rxn_smarts="[O:1]([C@@:2]1([H:9])[C@@:3]2([H:10])[C@@:4]3([H:11])[C:5]([H:12])([H:13])[C@:6]1([H:14])[N:7]23)[H:8]>>[O:1](/[C:2](=[C:3](/[C@@:4]1([H:11])[C:5]([H:12])([H:13])[C:6]([H:14])=[N:7]1)[H:10])[H:9])[H:8]"
O        2.04161762      -0.26785570      -1.04384278
C        1.21217095      -0.07336628       0.04042917
C        0.44442214       1.11719324      -0.04798678
C       -1.00537534       0.90408082       0.11940231
C       -1.38010505      -0.46420284      -0.46598722
C       -0.50335282      -0.88233222       0.70315673
N       -0.67157681       0.27618192       1.41330031
H        2.83799653      -0.73204030      -0.77896872
H        1.65095611      -0.43386029       0.96069416
H        0.87900541       2.05643830      -0.38104883
H       -1.65814846       1.77285695       0.10268947
H       -1.07524085      -0.72221671      -1.48096833
H       -2.43392275      -0.69900321      -0.30447478
H       -0.33844666      -1.85187367       1.16360530
14
Frame=3 idx=010141 GeodesicLength=0.16710921094485526 rxn_smarts="[O:1]([C@@:2]1([H:9])[C@@:3]2([H:10])[C@@:4]3([H:11])[C:5]([H:12])([H:13])[C@:6]1([H:14])[N:7]23)[H:8]>>[O:1](/[C:2](=[C:3](/[C@@:4]1([H:11])[C:5]([H:12])([H:13])[C:6]([H:14])=[N:7]1)[H:10])[H:9])[H:8]"
O        2.03886668      -0.25722422      -1.06252631
C        1.21618082      -0.07575809       0.02991955
C        0.44930102       1.11599342      -0.03578501
C       -1.00355777       0.90320614       0.10458903
C       -1.37796573      -0.47180404      -0.46322201
C       -0.51381556      -0.87914030       0.71841610
N       -0.67857354       0.29351202       1.41062802
H        2.84261334      -0.71436715      -0.80866913
H        1.66347938      -0.45702306       0.93814824
H        0.88808092       2.06827415      -0.32180103
H       -1.65739779       1.77059612       0.07534854
H       -1.06155809      -0.75137303      -1.46876272
H       -2.43448393      -0.70107569      -0.31281261
H       -0.37116975      -1.84381626       1.19652935
14
Frame=4 idx=010141 GeodesicLength=0.22231472920224213 rxn_smarts="[O:1]([C@@:2]1([H:9])[C@@:3]2([H:10])[C@@:4]3([H:11])[C:5]([H:12])([H:13])[C@:6]1([H:14])[N:7]23)[H:8]>>[O:1](/[C:2](=[C:3](/[C@@:4]1([H:11])[C:5]([H:12])([H:13])[C:6]([H:14])=[N:7]1)[H:10])[H:9])[H:8]"
O        2.03640351      -0.24587324      -1.08101298
C        1.22028310      -0.07794614       0.01927577
C        0.45425918       1.11454632      -0.02325355
C       -1.00118370       0.90214149       0.08982926
C       -1.37564037      -0.47928911      -0.46018889
C       -0.52430884      -0.87559589       0.73367985
N       -0.68589743       0.31081967       1.40777117
H        2.84740588      -0.69553296      -0.83812149
H        1.67535333      -0.48093472       0.91460558
H        0.89606792       2.07761188      -0.26278194
H       -1.65571098       1.76819457       0.04783311
H       -1.04793525      -0.78043516      -1.45565899
H       -2.43467935      -0.70299960      -0.32106736
H       -0.40441701      -1.83470709       1.22909045
14
Frame=5 idx=010141 GeodesicLength=0.27767831944754207 rxn_smarts="[O:1]([C@@:2]1([H:9])[C@@:3]2([H:10])[C@@:4]3([H:11])[C:5]([H:12])([H:13])[C@:6]1([H:14])[N:7]23)[H:8]>>[O:1](/[C:2](=[C:3](/[C@@:4]1([H:11])[C:5]([H:12])([H:13])[C:6]([H:14])=[N:7]1)[H:10])[H:9])[H:8]"
O        2.03434088      -0.23365162      -1.09930711
C        1.22465893      -0.07985928       0.00860936
C        0.45944583       1.11302729      -0.01034609
C       -0.99829082       0.90095757       0.07512990
C       -1.37337775      -0.48673482      -0.45696550
C       -0.53488120      -0.87194323       0.74907273
N       -0.69344395       0.32796104       1.40491001
H        2.85247771      -0.67561024      -0.86726436
H        1.68683829      -0.50564782       0.89024706
H        0.90322393       2.08498366      -0.20445528
H       -1.65314322       1.76581939       0.02009547
H       -1.03471467      -0.80937927      -1.44183938
H       -2.43489558      -0.70495055      -0.32936198
H       -0.43823839      -1.82497211       1.26147519
14
Frame=6 idx=010141 GeodesicLength=0.33261524141492993 rxn_smarts="[O:1]([C@@:2]1([H:9])[C@@:3]2([H:10])[C@@:4]3([H:11])[C:5]([H:12])([H:13])[C@:6]1([H:14])[N:7]23)[H:8]>>[O:1](/[C:2](=[C:3](/[C@@:4]1([H:11])[C:5]([H:12])([H:13])[C:6]([H:14])=[N:7]1)[H:10])[H:9])[H:8]"
O        2.03261642      -0.22050244      -1.11732208
C        1.22917999      -0.08140285      -0.00206604
C        0.46468273       1.11126283       0.00309900
C       -0.99480821       0.89949996       0.06065697
C       -1.37078989      -0.49405461      -0.45350642
C       -0.54544529      -0.86796083       0.76447069
N       -0.70134170       0.34497049       1.40200170
H        2.85732236      -0.65522105      -0.89617936
H        1.69753335      -0.53088971       0.86487493
H        0.90914498       2.09020970      -0.14696701
H       -1.64960673       1.76313176      -0.00757436
H       -1.02135561      -0.83807901      -1.42720421
H       -2.43457523      -0.70681646      -0.33769398
H       -0.47255717      -1.81414778       1.29341017
14
Frame=7 idx=010141 GeodesicLength=0.38731491797085293 rxn_smarts="[O:1]([C@@:2]1([H:9])[C@@:3]2([H:10])[C@@:4]3([H:11])[C:5]([H:12])([H:13])[C@:6]1([H:14])[N:7]23)[H:8]>>[O:1](/[C:2](=[C:3](/[C@@:4]1([H:11])[C:5]([H:12])([H:13])[C:6]([H:14])=[N:7]1)[H:10])[H:9])[H:8]"
O        2.03123807      -0.20637491      -1.13486157
C        1.23394763      -0.08252590      -0.01266143
C        0.46995897       1.10936943       0.01698597
C       -0.99084017       0.89788425       0.04636989
C       -1.36806096      -0.50126888      -0.44982959
C       -0.55596825      -0.86383773       0.77989133
N       -0.70946247       0.36176869       1.39899068
H        2.86189127      -0.63461133      -0.92463833
H        1.70777133      -0.55661580       0.83852109
H        0.91402521       2.09366966      -0.09051561
H       -1.64526726       1.76036619      -0.03522887
H       -1.00815106      -0.86650074      -1.41175606
H       -2.43395177      -0.70867639      -0.34608857
H       -0.50713055      -1.80264653       1.32482107
14
Frame=8 idx=010141 GeodesicLength=0.4419502394819258 rxn_smarts="[O:1]([C@@:2]1([H:9])[C@@:3]2([H:10])[C@@:4]3([H:11])[C:5]([H:12])([H:13])[C@:6]1([H:14])[N:7]23)[H:8]>>[O:1](/[C:2](=[C:3](/[C@@:4]1([H:11])[C:5]([H:12])([H:13])[C:6]([H:14])=[N:7]1)[H:10])[H:9])[H:8]"
O        2.03025428      -0.19136797      -1.15210539
C        1.23896875      -0.08328811      -0.02322763
C        0.47533944       1.10724094       0.03137340
C       -0.98633783       0.89605208       0.03233864
C       -1.36520216      -0.50841086      -0.44590152
C       -0.56656960      -0.85954111       0.79542745
N       -0.71786528       0.37840390       1.39601548
H        2.86652311      -0.61331020      -0.95276546
H        1.71732023      -0.58294239       0.81115732
H        0.91797833       2.09538349      -0.03524489
H       -1.64002028       1.75742822      -0.06284404
H       -0.99503581      -0.89470674      -1.39549470
H       -2.43306924      -0.71055155      -0.35451274
H       -0.54228395      -1.79038969       1.35578408
14
Frame=9 idx=010141 GeodesicLength=0.49651254756568336 rxn_smarts="[O:1]([C@@:2]1([H:9])[C@@:3]2([H:10])[C@@:4]3([H:11])[C:5]([H:12])([H:13])[C@:6]1([H:14])[N:7]23)[H:8]>>[O:1](/[C:2](=[C:3](/[C@@:4]1([H:11])[C:5]([H:12])([H:13])[C:6]([H:14])=[N:7]1)[H:10])[H:9])[H:8]"
O        2.02960268      -0.17548365      -1.16903880
C        1.24420946      -0.08374786      -0.03379924
C        0.48079896       1.10479898       0.04622945
C       -0.98129105       0.89398269       0.01854203
C       -1.36220026      -0.51550274      -0.44168896
C       -0.57726126      -0.85507615       0.81111058
N       -0.72652642       0.39490865       1.39302359
H        2.87124718      -0.59112879      -0.98050254
H        1.72610068      -0.60996761       0.78254871
H        0.92110312       2.09544695       0.01898035
H       -1.63382130       1.75431236      -0.09049905
H       -0.98201940      -0.92278902      -1.37833521
H       -2.43188331      -0.71242892      -0.36295151
H       -0.57805907      -1.77732488       1.38638060
14
Frame=10 idx=010141 GeodesicLength=0.551084450866532 rxn_smarts="[O:1]([C@@:2]1([H:9])[C@@:3]2([H:10])[C@@:4]3([H:11])[C:5]([H:12])([H:13])[C@:6]1([H:14])[N:7]23)[H:8]>>[O:1](/[C:2](=[C:3](/[C@@:4]1([H:11])[C:5]([H:12])([H:13])[C:6]([H:14])=[N:7]1)[H:10])[H:9])[H:8]"
O        2.02927845      -0.15875187      -1.18569742
C        1.24965380      -0.08397541      -0.04443118
C        0.48634803       1.10195154       0.06151447
C       -0.97568370       0.89164625       0.00497201
C       -1.35908229      -0.52257290      -0.43715482
C       -0.58809483      -0.85043250       0.82699385
N       -0.73543027       0.41133036       1.39000458
H        2.87621828      -0.56774376      -1.00780169
H        1.73401550      -0.63779289       0.75250077
H        0.92351162       2.09388489       0.07225846
H       -1.62660835       1.75099335      -0.11826232
H       -0.96914469      -0.95084551      -1.36020368
H       -2.43041785      -0.71430478      -0.37136903
H       -0.61456368      -1.76338678       1.41667599
14
Frame=11 idx=010141 GeodesicLength=0.6058138466383798 rxn_smarts="[O:1]([C@@:2]1([H:9])[C@@:3]2([H:10])[C@@:4]3([H:11])[C:5]([H:12])([H:13])[C@:6]1([H:14])[N:7]23)[H:8]>>[O:1](/[C:2](=[C:3](/[C@@:4]1([H:11])[C:5]([H:12])([H:13])[C:6]([H:14])=[N:7]1)[H:10])[H:9])[H:8]"
O        2.02935541      -0.14114166      -1.20212649
C        1.25532013      -0.08400921      -0.05516413
C        0.49201677       1.09865568       0.07724203
C       -0.96951329       0.88901600      -0.00835629
C       -1.35586714      -0.52965851      -0.43226070
C       -0.59911994      -0.84560782       0.84314106
N       -0.74458507       0.42771857       1.38698694
H        2.88159321      -0.54296463      -1.03467175
H        1.74091596      -0.66655391       0.72081975
H        0.92529020       2.09080021       0.12459875
H       -1.61835784       1.74743296      -0.14617848
H       -0.95640097      -0.97894563      -1.34101934
H       -2.42870654      -0.71621392      -0.37974715
H       -0.65194089      -1.74852811       1.44673580
14
Frame=12 idx=010141 GeodesicLength=0.6605535359017451 rxn_smarts="[O:1]([C@@:2]1([H:9])[C@@:3]2([H:10])[C@@:4]3([H:11])[C:5]([H:12])([H:13])[C@:6]1([H:14])[N:7]23)[H:8]>>[O:1](/[C:2](=[C:3](/[C@@:4]1([H:11])[C:5]([H:12])([H:13])[C:6]([H:14])=[N:7]1)[H:10])[H:9])[H:8]"
O        2.02973157      -0.12252392      -1.21820735
C        1.26113359      -0.08386187      -0.06603882
C        0.49772090       1.09479544       0.09330273
C       -0.96276903       0.88605989      -0.02148654
C       -1.35252173      -0.53676707      -0.42698182
C       -0.61031799      -0.84058167       0.85956236
N       -0.75392577       0.44406279       1.38384116
H        2.88715649      -0.51678617      -1.06093466
H        1.74674868      -0.69616171       0.68723210
H        0.92659333       2.08613303       0.17622970
H       -1.60899944       1.74360787      -0.17433348
H       -0.94383019      -1.00717270      -1.32069807
H       -2.42664363      -0.71814279      -0.38806852
H       -0.69007677      -1.73266112       1.47658121
14
Frame=13 idx=010141 GeodesicLength=0.7155914528754779 rxn_smarts="[O:1]([C@@:2]1([H:9])[C@@:3]2([H:10])[C@@:4]3([H:11])[C:5]([H:12])([H:13])[C@:6]1([H:14])[N:7]23)[H:8]>>[O:1](/[C:2](=[C:3](/[C@@:4]1([H:11])[C:5]([H:12])([H:13])[C:6]([H:14])=[N:7]1)[H:10])[H:9])[H:8]"
O        2.03063782      -0.10304535      -1.23400198
C        1.26721196      -0.08354013      -0.07705024
C        0.50354584       1.09042109       0.10974286
C       -0.95550499       0.88279327      -0.03430435
C       -1.34913277      -0.54394623      -0.42129858
C       -0.62177304      -0.83538442       0.87628914
N       -0.76347129       0.46042249       1.38070335
H        2.89327098      -0.48916490      -1.08656977
H        1.75139365      -0.72662621       0.65167989
H        0.92740911       2.08009326       0.22680505
H       -1.59862739       1.73953313      -0.20253725
H       -0.93145050      -1.03550242      -1.29925545
H       -2.42439908      -0.72018242      -0.39631007
H       -0.72911029      -1.71587115       1.50610740
14
Frame=14 idx=010141 GeodesicLength=0.7706057674326376 rxn_smarts="[O:1]([C@@:2]1([H:9])[C@@:3]2([H:10])[C@@:4]3([H:11])[C:5]([H:12])([H:13])[C@:6]1([H:14])[N:7]23)[H:8]>>[O:1](/[C:2](=[C:3](/[C@@:4]1([H:11])[C:5]([H:12])([H:13])[C:6]([H:14])=[N:7]1)[H:10])[H:9])[H:8]"
O        2.03192420      -0.08245217      -1.24932261
C        1.27350072      -0.08291277      -0.08807900
C        0.50940672       1.08547011       0.12660166
C       -0.94766201       0.87914802      -0.04679620
C       -1.34551584      -0.55115089      -0.41522376
C       -0.63336915      -0.83002093       0.89333711
N       -0.77309487       0.47669117       1.37754039
H        2.89943744      -0.46057425      -1.11150899
H        1.75457274      -0.75790430       0.61396262
H        0.92759183       2.07277803       0.27617628
H       -1.58716604       1.73506049      -0.23077531
H       -0.91908437      -1.06372965      -1.27666221
H       -2.42166204      -0.72233227      -0.40458050
H       -0.76887933      -1.69807059       1.53533051
14
Frame=15 idx=010141 GeodesicLength=0.8257171332135024 rxn_smarts="[O:1]([C@@:2]1([H:9])[C@@:3]2([H:10])[C@@:4]3([H:11])[C:5]([H:12])([H:13])[C@:6]1([H:14])[N:7]23)[H:8]>>[O:1](/[C:2](=[C:3](/[C@@:4]1([H:11])[C:5]([H:12])([H:13])[C:6]([H:14])=[N:7]1)[H:10])[H:9])[H:8]"
O        2.03372690      -0.06080479      -1.26418120
C        1.28001257      -0.08199800      -0.09919692
C        0.51529412       1.07990505       0.14377666
C       -0.93928786       0.87510886      -0.05890144
C       -1.34169470      -0.55841048      -0.40871018
C       -0.64523735      -0.82442615       0.91069574
N       -0.78287797       0.49291453       1.37432855
H        2.90577103      -0.43107451      -1.13571940
H        1.75626211      -0.78964527       0.57397886
H        0.92732275       2.06413640       0.32440426
H       -1.57465172       1.73014648      -0.25891361
H       -0.90670600      -1.09193058      -1.25286643
H       -2.41846848      -0.72466194      -0.41276297
H       -0.80946540      -1.67925962       1.56406808
14
Frame=16 idx=010141 GeodesicLength=0.8810416769704901 rxn_smarts="[O:1]([C@@:2]1([H:9])[C@@:3]2([H:10])[C@@:4]3([H:11])[C:5]([H:12])([H:13])[C@:6]1([H:14])[N:7]23)[H:8]>>[O:1](/[C:2](=[C:3](/[C@@:4]1([H:11])[C:5]([H:12])([H:13])[C:6]([H:14])=[N:7]1)[H:10])[H:9])[H:8]"
O        2.03610279      -0.03800735      -1.27845495
C        1.28685494      -0.08073123      -0.11029256
C        0.52121908       1.07378515       0.16133485
C       -0.93043801       0.87070861      -0.07058960
C       -1.33768778      -0.56577615      -0.40178482
C       -0.65732761      -0.81867139       0.92840158
N       -0.79272366       0.50911552       1.37110537
H        2.91224935      -0.40101870      -1.15917603
H        1.75634486      -0.82190403       0.53147782
H        0.92657129       2.05451650       0.37139888
H       -1.56120357       1.72484682      -0.28692158
H       -0.89431706      -1.12009428      -1.22788450
H       -2.41485768      -0.72727845      -0.42097655
H       -0.85078694      -1.65949101       1.59236206
