16
Frame=0 idx=005016 GeodesicLength=0.0 rxn_smarts="[C:1]([O:2][C:3]([C@@:4]([C:5]([H:13])([H:14])[H:15])([O:6][H:16])[H:12])([H:10])[H:11])([H:7])([H:8])[H:9]>>[C:1]([O:2][C:3]([C:4](=[O:6])[H:12])([H:10])[H:11])([H:7])([H:8])[H:9].[C:5]([H:13])([H:14])([H:15])[H:16]"
C        2.40897128      -0.67379769      -0.17608743
O        1.73846393       0.57442280      -0.16988954
C        0.38990416       0.51528885      -0.53930630
C       -0.42918294       0.08284818       0.66964201
C       -2.22567513       0.43552457       0.05673970
O       -0.42545797      -1.19327432       1.02151005
H        1.98863356      -1.36384887       0.55768346
H        2.35433996      -1.13516627      -1.16955954
H        3.45098323      -0.46486978       0.06186407
H        0.22295976      -0.19564062      -1.35930294
H        0.10275428       1.51975051      -0.85965912
H       -0.38844063       0.82992000       1.47714677
H       -3.05893330      -0.21951694       0.35501221
H       -2.19031283       0.49625811      -1.02674266
H       -2.38100731       1.39729540       0.53376164
H       -1.55799998      -0.60519389       0.56718763
16
Frame=1 idx=005016 GeodesicLength=0.1163277788422786 rxn_smarts="[C:1]([O:2][C:3]([C@@:4]([C:5]([H:13])([H:14])[H:15])([O:6][H:16])[H:12])([H:10])[H:11])([H:7])([H:8])[H:9]>>[C:1]([O:2][C:3]([C:4](=[O:6])[H:12])([H:10])[H:11])([H:7])([H:8])[H:9].[C:5]([H:13])([H:14])([H:15])[H:16]"
C        2.42174588      -0.67502794      -0.18999721
O        1.74265152       0.56657745      -0.14659885
C        0.39569815       0.50907582      -0.52174605
C       -0.43046899       0.09440925       0.68797843
C       -2.23974278       0.43391840       0.05016757
O       -0.43361608      -1.17373074       1.06222574
H        1.99916206      -1.39359795       0.51507797
H        2.38140631      -1.10061061      -1.20006126
H        3.46014772      -0.46950723       0.06602448
H        0.22193246      -0.20378977      -1.33854660
H        0.11445519       1.51217151      -0.85234267
H       -0.37976636       0.84751843       1.48980181
H       -3.08434380      -0.19700749       0.36613264
H       -2.20852985       0.47294926      -1.03479965
H       -2.39261126       1.41155023       0.49623935
H       -1.56812017      -0.63489862       0.55044431
16
Frame=2 idx=005016 GeodesicLength=0.23221739197872765 rxn_smarts="[C:1]([O:2][C:3]([C@@:4]([C:5]([H:13])([H:14])[H:15])([O:6][H:16])[H:12])([H:10])[H:11])([H:7])([H:8])[H:9]>>[C:1]([O:2][C:3]([C:4](=[O:6])[H:12])([H:10])[H:11])([H:7])([H:8])[H:9].[C:5]([H:13])([H:14])([H:15])[H:16]"
C        2.43365733      -0.67653039      -0.20391069
O        1.74732122       0.55805221      -0.12342861
C        0.40178738       0.50369227      -0.50384275
C       -0.43125951       0.10750786       0.70675416
C       -2.25356010       0.43133687       0.04358244
O       -0.44298155      -1.15253820       1.10224669
H        2.00818472      -1.42208892       0.47136515
H        2.40664463      -1.06542821      -1.22915722
H        3.46860909      -0.47656299       0.06984763
H        0.22072553      -0.21073796      -1.31761484
H        0.12688852       1.50554161      -0.84426525
H       -0.36976812       0.86642570       1.50285087
H       -3.10828973      -0.17591984       0.37668328
H       -2.22691832       0.44845029      -1.04245620
H       -2.40467360       1.42399861       0.45758795
H       -1.57636748      -0.66519891       0.53375739
16
Frame=3 idx=005016 GeodesicLength=0.3477266125743834 rxn_smarts="[C:1]([O:2][C:3]([C@@:4]([C:5]([H:13])([H:14])[H:15])([O:6][H:16])[H:12])([H:10])[H:11])([H:7])([H:8])[H:9]>>[C:1]([O:2][C:3]([C:4](=[O:6])[H:12])([H:10])[H:11])([H:7])([H:8])[H:9].[C:5]([H:13])([H:14])([H:15])[H:16]"
C        2.44476105      -0.67822944      -0.21781907
O        1.75241833       0.54887735      -0.10032173
C        0.40814230       0.49910084      -0.48558962
C       -0.43156936       0.12205914       0.72592717
C       -2.26710767       0.42782866       0.03693601
O       -0.45373943      -1.12991294       1.14122188
H        2.01588228      -1.44919884       0.42674285
H        2.43008769      -1.02973491      -1.25679268
H        3.47645133      -0.48581065       0.07310281
H        0.21936641      -0.21647783      -1.29654101
H        0.14004198       1.49983356      -0.83542074
H       -0.35834136       0.88633697       1.51642404
H       -3.13104480      -0.15591736       0.38661869
H       -2.24541907       0.42262356      -1.04975061
H       -2.41699484       1.43469528       0.41771606
H       -1.58293485      -0.69607339       0.51754595
16
Frame=4 idx=005016 GeodesicLength=0.4629565176045338 rxn_smarts="[C:1]([O:2][C:3]([C@@:4]([C:5]([H:13])([H:14])[H:15])([O:6][H:16])[H:12])([H:10])[H:11])([H:7])([H:8])[H:9]>>[C:1]([O:2][C:3]([C:4](=[O:6])[H:12])([H:10])[H:11])([H:7])([H:8])[H:9].[C:5]([H:13])([H:14])([H:15])[H:16]"
C        2.45512932      -0.68003622      -0.23172166
O        1.75786715       0.53905359      -0.07718558
C        0.41472143       0.49521448      -0.46695664
C       -0.43143947       0.13797044       0.74548733
C       -2.28037807       0.42346766       0.03019014
O       -0.46602582      -1.10604193       1.17896699
H        2.02244756      -1.47486549       0.38127493
H        2.45184720      -0.99352067      -1.28299629
H        3.48375606      -0.49698403       0.07560566
H        0.21786504      -0.22108428      -1.27530371
H        0.15389544       1.49495518      -0.82581945
H       -0.34540653       0.90695807       1.53066498
H       -3.15290323      -0.13654016       0.39589852
H       -2.26398600       0.39531474      -1.05667791
H       -2.42931889       1.44372120       0.37646531
H       -1.58807120      -0.72758258       0.50210740
16
Frame=5 idx=005016 GeodesicLength=0.577964046532602 rxn_smarts="[C:1]([O:2][C:3]([C@@:4]([C:5]([H:13])([H:14])[H:15])([O:6][H:16])[H:12])([H:10])[H:11])([H:7])([H:8])[H:9]>>[C:1]([O:2][C:3]([C:4](=[O:6])[H:12])([H:10])[H:11])([H:7])([H:8])[H:9].[C:5]([H:13])([H:14])([H:15])[H:16]"
C        2.46481505      -0.68188344      -0.24565447
O        1.76359253       0.52856206      -0.05393174
C        0.42148507       0.49195952      -0.44791510
C       -0.43090947       0.15522443       0.76544380
C       -2.29336207       0.41830519       0.02331448
O       -0.48001644      -1.08102340       1.21535548
H        2.02802803      -1.49908125       0.33497357
H        2.47205756      -0.95673513      -1.30781161
H        3.49057993      -0.50987916       0.07722997
H        0.21621139      -0.22464031      -1.25386832
H        0.16844485       1.49082536      -0.81548329
H       -0.33088983       0.92809976       1.54571615
H       -3.17407188      -0.11741713       0.40451103
H       -2.28257181       0.36640631      -1.06325030
H       -2.44144083       1.45110784       0.33372190
H       -1.59195208      -0.75983064       0.48764843
16
Frame=6 idx=005016 GeodesicLength=0.692887591883719 rxn_smarts="[C:1]([O:2][C:3]([C@@:4]([C:5]([H:13])([H:14])[H:15])([O:6][H:16])[H:12])([H:10])[H:11])([H:7])([H:8])[H:9]>>[C:1]([O:2][C:3]([C:4](=[O:6])[H:12])([H:10])[H:11])([H:7])([H:8])[H:9].[C:5]([H:13])([H:14])([H:15])[H:16]"
C        2.47388862      -0.68367837      -0.25966379
O        1.76951675       0.51733563      -0.03045878
C        0.42838754       0.48922383      -0.42840945
C       -0.43001927       0.17376508       0.78583088
C       -2.30607014       0.41241344       0.01629481
O       -0.49582002      -1.05494062       1.25036984
H        2.03278732      -1.52182376       0.28773092
H        2.49086689      -0.91923194      -1.33127856
H        3.49698539      -0.52425028       0.07784314
H        0.21438129      -0.22727584      -1.23215432
H        0.18368455       1.48731284      -0.80442146
H       -0.31471239       0.94954230       1.56172364
H       -3.19482662      -0.09803685       0.41234032
H       -2.30116132       0.33572875      -1.06937372
H       -2.45305433       1.45687915       0.28926827
H       -1.59483428      -0.79296338       0.47435826
16
Frame=7 idx=005016 GeodesicLength=0.807764243449535 rxn_smarts="[C:1]([O:2][C:3]([C@@:4]([C:5]([H:13])([H:14])[H:15])([O:6][H:16])[H:12])([H:10])[H:11])([H:7])([H:8])[H:9]>>[C:1]([O:2][C:3]([C:4](=[O:6])[H:12])([H:10])[H:11])([H:7])([H:8])[H:9].[C:5]([H:13])([H:14])([H:15])[H:16]"
C        2.48241287      -0.68533872      -0.27380119
O        1.77556316       0.50530069      -0.00666598
C        0.43538554       0.48690948      -0.40838841
C       -0.42881736       0.19356378       0.80667383
C       -2.31851626       0.40585673       0.00910492
O       -0.51355348      -1.02781827       1.28399223
H        2.03687539      -1.54308599       0.23945907
H        2.50839277      -0.88087866      -1.35342513
H        3.50302638      -0.53988231       0.07732149
H        0.21234952      -0.22911042      -1.21008725
H        0.19961294       1.48429936      -0.79264659
H       -0.29679453       0.97107539       1.57881209
H       -3.21537622      -0.07795525       0.41932373
H       -2.31974761       0.30317955      -1.07499081
H       -2.46390703       1.46100809       0.24291526
H       -1.59690608      -0.82712343       0.46240273
16
Frame=8 idx=005016 GeodesicLength=0.9226103195450757 rxn_smarts="[C:1]([O:2][C:3]([C@@:4]([C:5]([H:13])([H:14])[H:15])([O:6][H:16])[H:12])([H:10])[H:11])([H:7])([H:8])[H:9]>>[C:1]([O:2][C:3]([C:4](=[O:6])[H:12])([H:10])[H:11])([H:7])([H:8])[H:9].[C:5]([H:13])([H:14])([H:15])[H:16]"
C        2.49041104      -0.68679243      -0.28815176
O        1.78165767       0.49232613       0.01754627
C        0.44243428       0.48493341      -0.38777951
C       -0.42733436       0.21465033       0.82803883
C       -2.33069749       0.39866197       0.00172133
O       -0.53337341      -0.99962254       1.31621392
H        2.04035234      -1.56280842       0.18993977
H        2.52474102      -0.84146218      -1.37427246
H        3.50871428      -0.55662487       0.07554318
H        0.21006058      -0.23023732      -1.18756954
H        0.21625445       1.48169079      -0.78013148
H       -0.27703168       0.99254805       1.59714805
H       -3.23586810      -0.05673791       0.42521706
H       -2.33829741       0.26853509      -1.07995117
H       -2.47365932       1.46339410       0.19440762
H       -1.59836389      -0.86245418       0.45207988
16
Frame=9 idx=005016 GeodesicLength=1.0373697376686826 rxn_smarts="[C:1]([O:2][C:3]([C@@:4]([C:5]([H:13])([H:14])[H:15])([O:6][H:16])[H:12])([H:10])[H:11])([H:7])([H:8])[H:9]>>[C:1]([O:2][C:3]([C:4](=[O:6])[H:12])([H:10])[H:11])([H:7])([H:8])[H:9].[C:5]([H:13])([H:14])([H:15])[H:16]"
C        2.49792220      -0.68792243      -0.30281662
O        1.78761096       0.47828875       0.04225528
C        0.44943674       0.48310431      -0.36650746
C       -0.42572180       0.23685034       0.84994279
C       -2.34273723       0.39103321      -0.00596834
O       -0.55498112      -0.96999431       1.34743988
H        2.04341925      -1.58096526       0.13929155
H        2.54012880      -0.80088118      -1.39390388
H        3.51397335      -0.57416408       0.07229364
H        0.20748741      -0.23086509      -1.16449886
H        0.23354052       1.47923104      -0.76686054
H       -0.25545202       1.01332941       1.61665547
H       -3.25632280      -0.03404205       0.42975100
H       -2.35691559       0.23194915      -1.08421156
H       -2.48196634       1.46407500       0.14379096
H       -1.59942232      -0.89902683       0.44334671
16
Frame=10 idx=005016 GeodesicLength=1.1520214860134963 rxn_smarts="[C:1]([O:2][C:3]([C@@:4]([C:5]([H:13])([H:14])[H:15])([O:6][H:16])[H:12])([H:10])[H:11])([H:7])([H:8])[H:9]>>[C:1]([O:2][C:3]([C:4](=[O:6])[H:12])([H:10])[H:11])([H:7])([H:8])[H:9].[C:5]([H:13])([H:14])([H:15])[H:16]"
C        2.50490379      -0.68868798      -0.31782891
O        1.79343174       0.46304303       0.06754888
C        0.45639298       0.48147772      -0.34451564
C       -0.42388490       0.26041625       0.87247782
C       -2.35450756       0.38280070      -0.01395743
O       -0.57881881      -0.93908483       1.37726969
H        2.04591836      -1.59755387       0.08685246
H        2.55453448      -0.75871978      -1.41228548
H        3.51883420      -0.59259951       0.06768691
H        0.20454019      -0.23093499      -1.14080718
H        0.25158453       1.47700317      -0.75278831
H       -0.23187560       1.03361994       1.63767647
H       -3.27686277      -0.00937064       0.43284123
H       -2.37547057       0.19286615      -1.08755741
H       -2.48853349       1.46274464       0.09045009
H       -1.60018655      -0.93701998       0.43693682
16
Frame=11 idx=005016 GeodesicLength=1.2665742851123483 rxn_smarts="[C:1]([O:2][C:3]([C@@:4]([C:5]([H:13])([H:14])[H:15])([O:6][H:16])[H:12])([H:10])[H:11])([H:7])([H:8])[H:9]>>[C:1]([O:2][C:3]([C:4](=[O:6])[H:12])([H:10])[H:11])([H:7])([H:8])[H:9].[C:5]([H:13])([H:14])([H:15])[H:16]"
C        2.51134379      -0.68899334      -0.33323939
O        1.79903733       0.44645564       0.09348687
C        0.46326030       0.47999884      -0.32174648
C       -0.42182718       0.28538025       0.89567986
C       -2.36601809       0.37400250      -0.02229954
O       -0.60494018      -0.90678690       1.40565452
H        2.04788744      -1.61248286       0.03243776
H        2.56798163      -0.71480035      -1.42938019
H        3.52326020      -0.61180326       0.06158991
H        0.20116065      -0.23051058      -1.11641542
H        0.27040849       1.47493163      -0.73788722
H       -0.20619828       1.05315492       1.66035044
H       -3.29751873       0.01768630       0.43421503
H       -2.39396304       0.15114900      -1.08985137
H       -2.49303477       1.45918988       0.03416977
H       -1.60083956      -0.97657167       0.43323545
16
Frame=12 idx=005016 GeodesicLength=1.3809624867941102 rxn_smarts="[C:1]([O:2][C:3]([C@@:4]([C:5]([H:13])([H:14])[H:15])([O:6][H:16])[H:12])([H:10])[H:11])([H:7])([H:8])[H:9]>>[C:1]([O:2][C:3]([C:4](=[O:6])[H:12])([H:10])[H:11])([H:7])([H:8])[H:9].[C:5]([H:13])([H:14])([H:15])[H:16]"
C        2.51720705      -0.68873004      -0.34913496
O        1.80431033       0.42830626       0.12011473
C        0.46997534       0.47858315      -0.29813686
C       -0.41956321       0.31174993       0.91959466
C       -2.37727590       0.36466368      -0.03103725
O       -0.63334586      -0.87296600       1.43259523
H        2.04929917      -1.62557764      -0.02430461
H        2.58052988      -0.66878044      -1.44507694
H        3.52718341      -0.63168341       0.05390697
H        0.19726411      -0.22966249      -1.09124226
H        0.29003730       1.47291248      -0.72210237
H       -0.17833843       1.07160190       1.68480277
H       -3.31826086       0.04766744       0.43348457
H       -2.41243086       0.10658078      -1.09082896
H       -2.49501113       1.45310947      -0.02540374
H       -1.60158033      -1.01777509       0.43276903
16
Frame=13 idx=005016 GeodesicLength=1.4951099067657974 rxn_smarts="[C:1]([O:2][C:3]([C@@:4]([C:5]([H:13])([H:14])[H:15])([O:6][H:16])[H:12])([H:10])[H:11])([H:7])([H:8])[H:9]>>[C:1]([O:2][C:3]([C:4](=[O:6])[H:12])([H:10])[H:11])([H:7])([H:8])[H:9].[C:5]([H:13])([H:14])([H:15])[H:16]"
C        2.52247612      -0.68776811      -0.36559524
O        1.80908467       0.40837208       0.14742530
C        0.47646111       0.47713484      -0.27363510
C       -0.41711175       0.33948902       0.94426765
C       -2.38831418       0.35490665      -0.04027982
O       -0.66393283      -0.83734878       1.45810787
H        2.05019638      -1.63658532      -0.08350556
H        2.59226515      -0.62049309      -1.45929631
H        3.53054578      -0.65203526       0.04442837
H        0.19278359      -0.22847278      -1.06523163
H        0.31046582       1.47080993      -0.70536080
H       -0.14831327       1.08835239       1.71108584
H       -3.33895280       0.08097403       0.43010248
H       -2.43101208       0.05909291      -1.09023245
H       -2.49392452       1.44418345      -0.08841885
H       -1.60271720      -1.06061195       0.43613826
16
Frame=14 idx=005016 GeodesicLength=1.609055454545567 rxn_smarts="[C:1]([O:2][C:3]([C@@:4]([C:5]([H:13])([H:14])[H:15])([O:6][H:16])[H:12])([H:10])[H:11])([H:7])([H:8])[H:9]>>[C:1]([O:2][C:3]([C:4](=[O:6])[H:12])([H:10])[H:11])([H:7])([H:8])[H:9].[C:5]([H:13])([H:14])([H:15])[H:16]"
C        2.52706447      -0.68599797      -0.38269073
O        1.81327626       0.38639547       0.17545674
C        0.48266966       0.47563274      -0.24820168
C       -0.41442767       0.36870967       0.96972430
C       -2.39906946       0.34469062      -0.05004634
O       -0.69681520      -0.79994299       1.48200469
H        2.05042530      -1.64529603      -0.14580003
H        2.60318715      -0.56944101      -1.47179968
H        3.53324026      -0.67294825       0.03316560
H        0.18759223      -0.22694973      -1.03832702
H        0.33176797       1.46862415      -0.68761828
H       -0.11597243       1.10328064       1.73942093
H       -3.35957964       0.11820269       0.42371037
H       -2.44967365       0.00833732      -1.08770172
H       -2.48932055       1.43191565      -0.15539487
H       -1.60436469      -1.10521299       0.44409772
16
Frame=15 idx=005016 GeodesicLength=1.7228256551542376 rxn_smarts="[C:1]([O:2][C:3]([C@@:4]([C:5]([H:13])([H:14])[H:15])([O:6][H:16])[H:12])([H:10])[H:11])([H:7])([H:8])[H:9]>>[C:1]([O:2][C:3]([C:4](=[O:6])[H:12])([H:10])[H:11])([H:7])([H:8])[H:9].[C:5]([H:13])([H:14])([H:15])[H:16]"
C        2.53092086      -0.68328567      -0.40044261
O        1.81672916       0.36216428       0.20411959
C        0.48853075       0.47399738      -0.22185671
C       -0.41145267       0.39937667       0.99594252
C       -2.40954861       0.33411061      -0.06039840
O       -0.73189266      -0.76061050       1.50415714
H        2.04999198      -1.65138381      -0.21132816
H        2.61328728      -0.51546355      -1.48237448
H        3.53517588      -0.69425792       0.01998893
H        0.18160391      -0.22517395      -1.01052356
H        0.35392814       1.46624693      -0.66887709
H       -0.08129788       1.11586230       1.76986263
H       -3.37994292       0.15974344       0.41373909
H       -2.46853300      -0.04560545      -1.08292034
H       -2.48075789       1.41585220      -0.22639071
H       -1.60674232      -1.15157295       0.45730216
16
Frame=16 idx=005016 GeodesicLength=1.8364686646993484 rxn_smarts="[C:1]([O:2][C:3]([C@@:4]([C:5]([H:13])([H:14])[H:15])([O:6][H:16])[H:12])([H:10])[H:11])([H:7])([H:8])[H:9]>>[C:1]([O:2][C:3]([C:4](=[O:6])[H:12])([H:10])[H:11])([H:7])([H:8])[H:9].[C:5]([H:13])([H:14])([H:15])[H:16]"
C        2.53399941      -0.67945588      -0.41890817
O        1.81924886       0.33535725       0.23331255
C        0.49396527       0.47212723      -0.19462345
C       -0.40811681       0.43143537       1.02291727
C       -2.41975702       0.32326262      -0.07139429
O       -0.76903890      -0.71918557       1.52446219
H        2.04884001      -1.65439800      -0.28053383
H        2.62272820      -0.45818630      -1.49071355
H        3.53622990      -0.71589701       0.00482307
H        0.17472168      -0.22322559      -0.98183613
H        0.37694877       1.46354809      -0.64910833
H       -0.04437789       1.12550414       1.80244685
H       -3.39973605       0.20616989       0.39948878
H       -2.48784278      -0.10279464      -1.07538830
H       -2.46761730       1.39530727      -0.30160610
H       -1.61019536      -1.19956888       0.47666144
