11
Frame=0 idx=002847 GeodesicLength=0.0 rxn_smarts="[C:1]([N:2]([C:3]([C:4]#[N:5])([H:10])[H:11])[H:9])([H:6])([H:7])[H:8]>>[C:1]([N:2]([N:5]=[C:4]=[C:3]([H:10])[H:11])[H:9])([H:6])([H:7])[H:8]"
C        1.59824532      -1.00066310      -0.25612982
N        0.32639465      -0.33207129      -0.15650118
C       -1.38117420       1.57015656       0.19894247
C       -1.88256830       0.34706639      -0.08013678
N       -1.92037306      -0.80636861      -0.31369094
H        1.49814789      -2.06178846       0.00878475
H        2.32572439      -0.57826026       0.45076160
H        1.99420416      -0.92205703      -1.26798124
H        0.02954044      -0.42327391       0.81375924
H       -1.40293595       1.94788760       1.21231523
H       -1.18520536       2.25937210      -0.61012338
11
Frame=1 idx=002847 GeodesicLength=0.0781798931509063 rxn_smarts="[C:1]([N:2]([C:3]([C:4]#[N:5])([H:10])[H:11])[H:9])([H:6])([H:7])[H:8]>>[C:1]([N:2]([N:5]=[C:4]=[C:3]([H:10])[H:11])[H:9])([H:6])([H:7])[H:8]"
C        1.58387600      -0.99206274      -0.25584530
N        0.33761152      -0.29738638      -0.07158442
C       -1.36108571       1.56348267       0.17097531
C       -1.87021671       0.33597468      -0.08751057
N       -1.87789056      -0.82603044      -0.28134736
H        1.45507879      -2.06962364      -0.08716220
H        2.33727598      -0.65245193       0.46759009
H        1.96127009      -0.83312817      -1.26561128
H        0.04511592      -0.44256818       0.89201102
H       -1.42251291       1.97163758       1.17122516
H       -1.18852241       2.24215656      -0.65274043
11
Frame=2 idx=002847 GeodesicLength=0.1567108714816515 rxn_smarts="[C:1]([N:2]([C:3]([C:4]#[N:5])([H:10])[H:11])[H:9])([H:6])([H:7])[H:8]>>[C:1]([N:2]([N:5]=[C:4]=[C:3]([H:10])[H:11])[H:9])([H:6])([H:7])[H:8]"
C        1.56633411      -0.97974920      -0.25573597
N        0.34454529      -0.27195774       0.01249815
C       -1.33698664       1.55388120       0.14292213
C       -1.85674942       0.32373928      -0.09559920
N       -1.84015639      -0.84547706      -0.24378745
H        1.41069563      -2.06449678      -0.18448070
H        2.34066905      -0.72215777       0.47836289
H        1.92954838      -0.73941437      -1.25457300
H        0.05931729      -0.46557894       0.96826784
H       -1.43663396       1.99218027       1.12752050
H       -1.18058336       2.21903110      -0.69539519
11
Frame=3 idx=002847 GeodesicLength=0.2360245496434905 rxn_smarts="[C:1]([N:2]([C:3]([C:4]#[N:5])([H:10])[H:11])[H:9])([H:6])([H:7])[H:8]>>[C:1]([N:2]([N:5]=[C:4]=[C:3]([H:10])[H:11])[H:9])([H:6])([H:7])[H:8]"
C        1.54601277      -0.96407053      -0.25539211
N        0.34770180      -0.25417238       0.09497476
C       -1.30964267       1.54145703       0.11549111
C       -1.84237029       0.31045723      -0.10574209
N       -1.80709293      -0.86420558      -0.20457131
H        1.36576584      -2.04712424      -0.27759325
H        2.33884504      -0.78406823       0.48136884
H        1.89653599      -0.64587101      -1.23708304
H        0.07189795      -0.49244382       1.04206663
H       -1.44511435       2.00816249       1.08301492
H       -1.16253915       2.19187903      -0.73653446
11
Frame=4 idx=002847 GeodesicLength=0.31678152800394116 rxn_smarts="[C:1]([N:2]([C:3]([C:4]#[N:5])([H:10])[H:11])[H:9])([H:6])([H:7])[H:8]>>[C:1]([N:2]([N:5]=[C:4]=[C:3]([H:10])[H:11])[H:9])([H:6])([H:7])[H:8]"
C        1.52314037      -0.94562421      -0.25449287
N        0.34770015      -0.24252739       0.17506580
C       -1.27967300       1.52652983       0.08965860
C       -1.82644875       0.29655763      -0.12004466
N       -1.77759645      -0.88148504      -0.16723105
H        1.32155373      -2.01989033      -0.35989622
H        2.33422150      -0.83397561       0.47491718
H        1.85855209      -0.55782341      -1.21626363
H        0.08274413      -0.52300744       1.11228691
H       -1.44942331       2.01814755       1.03961882
H       -1.13477047       2.16309843      -0.77361888
11
Frame=5 idx=002847 GeodesicLength=0.39841817631496856 rxn_smarts="[C:1]([N:2]([C:3]([C:4]#[N:5])([H:10])[H:11])[H:9])([H:6])([H:7])[H:8]>>[C:1]([N:2]([N:5]=[C:4]=[C:3]([H:10])[H:11])[H:9])([H:6])([H:7])[H:8]"
C        1.49844539      -0.92500476      -0.25346965
N        0.34508321      -0.23579440       0.25066922
C       -1.24781534       1.50925375       0.06461312
C       -1.80993208       0.28129803      -0.13492910
N       -1.75221944      -0.89797185      -0.12727657
H        1.27599162      -1.98414174      -0.43910091
H        2.32492759      -0.87872383       0.46478400
H        1.82231512      -0.47093626      -1.18998570
H        0.09419442      -0.55425284       1.17836570
H       -1.44906286       2.02494011       0.99585401
H       -1.10192763       2.13133378      -0.80952410
11
Frame=6 idx=002847 GeodesicLength=0.48112758647600923 rxn_smarts="[C:1]([N:2]([C:3]([C:4]#[N:5])([H:10])[H:11])[H:9])([H:6])([H:7])[H:8]>>[C:1]([N:2]([N:5]=[C:4]=[C:3]([H:10])[H:11])[H:9])([H:6])([H:7])[H:8]"
C        1.47237987      -0.90268842      -0.25229066
N        0.34045850      -0.23267442       0.32133065
C       -1.21489137       1.48977793       0.04009059
C       -1.79341729       0.26449549      -0.14874342
N       -1.73046056      -0.91352965      -0.08459187
H        1.22854103      -1.93999454      -0.51710383
H        2.31087626      -0.92125795       0.45225804
H        1.78992011      -0.38476501      -1.15740057
H        0.10717139      -0.58506112       1.24020561
H       -1.44397483       2.02956743       0.95139265
H       -1.06660312       2.09613025      -0.84514718
11
Frame=7 idx=002847 GeodesicLength=0.5650345044495213 rxn_smarts="[C:1]([N:2]([C:3]([C:4]#[N:5])([H:10])[H:11])[H:9])([H:6])([H:7])[H:8]>>[C:1]([N:2]([N:5]=[C:4]=[C:3]([H:10])[H:11])[H:9])([H:6])([H:7])[H:8]"
C        1.44531480      -0.87935068      -0.25079386
N        0.33428820      -0.23215710       0.38690383
C       -1.18146927       1.46862222       0.01682179
C       -1.77685250       0.24670171      -0.16271714
N       -1.71150782      -0.92757740      -0.04229822
H        1.18037111      -1.88961369      -0.58940334
H        2.29382647      -0.95883009       0.43642379
H        1.75923951      -0.30308357      -1.12135628
H        0.12134886      -0.61529843       1.29739085
H       -1.43551713       2.03129598       0.90780394
H       -1.02904224       2.05929105      -0.87877534
11
Frame=8 idx=002847 GeodesicLength=0.6500297373835205 rxn_smarts="[C:1]([N:2]([C:3]([C:4]#[N:5])([H:10])[H:11])[H:9])([H:6])([H:7])[H:8]>>[C:1]([N:2]([N:5]=[C:4]=[C:3]([H:10])[H:11])[H:9])([H:6])([H:7])[H:8]"
C        1.41771586      -0.85547655      -0.24905023
N        0.32712182      -0.23316634       0.44717456
C       -1.14827245       1.44613285      -0.00520456
C       -1.76055543       0.22798224      -0.17633701
N       -1.69473950      -0.94012561      -0.00056737
H        1.13137685      -1.83384881      -0.65669337
H        2.27386988      -0.99333969       0.41825604
H        1.73166826      -0.22613415      -1.08216120
H        0.13724563      -0.64377626       1.34990174
H       -1.42454117       2.03059325       0.86526300
H       -0.99088973       2.02115908      -0.91058160
11
Frame=9 idx=002847 GeodesicLength=0.7360401363837956 rxn_smarts="[C:1]([N:2]([C:3]([C:4]#[N:5])([H:10])[H:11])[H:9])([H:6])([H:7])[H:8]>>[C:1]([N:2]([N:5]=[C:4]=[C:3]([H:10])[H:11])[H:9])([H:6])([H:7])[H:8]"
C        1.38992983      -0.83146105      -0.24708836
N        0.31926556      -0.23506102       0.50229999
C       -1.11574995       1.42264362      -0.02596267
C       -1.74487790       0.20854748      -0.18913094
N       -1.67963359      -0.95122998       0.03995016
H        1.08193354      -1.77356815      -0.71914245
H        2.25124773      -1.02559028       0.39827849
H        1.70768437      -0.15421403      -1.04036091
H        0.15491336      -0.67000650       1.39788153
H       -1.41160320       2.02792699       0.82394872
H       -0.95310974       1.98201292      -0.94067356
11
Frame=10 idx=002847 GeodesicLength=0.8230483769736701 rxn_smarts="[C:1]([N:2]([C:3]([C:4]#[N:5])([H:10])[H:11])[H:9])([H:6])([H:7])[H:8]>>[C:1]([N:2]([N:5]=[C:4]=[C:3]([H:10])[H:11])[H:9])([H:6])([H:7])[H:8]"
C        1.36220577      -0.80760016      -0.24491982
N        0.31091969      -0.23741907       0.55264771
C       -1.08417182       1.39847585      -0.04540409
C       -1.73003836       0.18867390      -0.20092861
N       -1.66571770      -0.96102310       0.07853145
H        1.03254225      -1.70972297      -0.77655926
H        2.22633714      -1.05577360       0.37676176
H        1.68710157      -0.08763783      -0.99672926
H        0.17418643      -0.69380962       1.44156718
H       -1.39722470       2.02363590       0.78405692
H       -0.91614028       1.94220071      -0.96902398
11
Frame=11 idx=002847 GeodesicLength=0.9110463698452519 rxn_smarts="[C:1]([N:2]([C:3]([C:4]#[N:5])([H:10])[H:11])[H:9])([H:6])([H:7])[H:8]>>[C:1]([N:2]([N:5]=[C:4]=[C:3]([H:10])[H:11])[H:9])([H:6])([H:7])[H:8]"
C        1.33471619      -0.78413311      -0.24256118
N        0.30219456      -0.24000029       0.59863611
C       -1.05366875       1.37393848      -0.06345856
C       -1.71613647       0.16866733      -0.21178452
N       -1.65262516      -0.96967656       0.11453739
H        0.98376719      -1.64343447      -0.82861347
H        2.19959625      -1.08365471       0.35393865
H        1.66931917      -0.02664386      -0.95220280
H        0.19478909      -0.71517329       1.48122110
H       -1.38187123       2.01797448       0.74579469
H       -0.88008084       1.90213601      -0.99550740
11
Frame=12 idx=002847 GeodesicLength=1.0000199064714035 rxn_smarts="[C:1]([N:2]([C:3]([C:4]#[N:5])([H:10])[H:11])[H:9])([H:6])([H:7])[H:8]>>[C:1]([N:2]([N:5]=[C:4]=[C:3]([H:10])[H:11])[H:9])([H:6])([H:7])[H:8]"
C        1.30757824      -0.76126589      -0.24003594
N        0.29314430      -0.24268764       0.64067412
C       -1.02427967       1.34932120      -0.08005482
C       -1.70317177       0.14882112      -0.22189074
N       -1.64009499      -0.97737179       0.14748690
H        0.93613015      -1.57594384      -0.87503477
H        2.17153495      -1.10882112       0.33010242
H        1.65354131       0.02869072      -0.90775986
H        0.21641785      -0.73415575       1.51711758
H       -1.36594016       2.01114828       0.70935686
H       -0.84486020       1.86226471      -1.01996174
11
Frame=13 idx=002847 GeodesicLength=1.089965367245467 rxn_smarts="[C:1]([N:2]([C:3]([C:4]#[N:5])([H:10])[H:11])[H:9])([H:6])([H:7])[H:8]>>[C:1]([N:2]([N:5]=[C:4]=[C:3]([H:10])[H:11])[H:9])([H:6])([H:7])[H:8]"
C        1.28087206      -0.73912973      -0.23739141
N        0.28381556      -0.24540585       0.67914686
C       -0.99602629       1.32481846      -0.09522322
C       -1.69115944       0.12931822      -0.23130149
N       -1.62794999      -0.98433149       0.17730575
H        0.88993271      -1.50803980      -0.91615058
H        2.14244350      -1.13136101       0.30559956
H        1.63936739       0.07868051      -0.86389057
H        0.23887665      -0.75073813       1.54958614
H       -1.34969252       2.00340122       0.67475131
H       -0.81047961       1.82278761      -1.04243235
11
Frame=14 idx=002847 GeodesicLength=1.1808312438437492 rxn_smarts="[C:1]([N:2]([C:3]([C:4]#[N:5])([H:10])[H:11])[H:9])([H:6])([H:7])[H:8]>>[C:1]([N:2]([N:5]=[C:4]=[C:3]([H:10])[H:11])[H:9])([H:6])([H:7])[H:8]"
C        1.25465191      -0.71788029      -0.23466322
N        0.27422484      -0.24814222       0.71438380
C       -0.96887090       1.30066620      -0.10890806
C       -1.67995876       0.11036382      -0.24035927
N       -1.61608166      -0.99067864       0.20381293
H        0.84549958      -1.44093595      -0.95190052
H        2.11283965      -1.15089925       0.28079469
H        1.62600280       0.12347632      -0.82145658
H        0.26191083      -0.76498680       1.57889233
H       -1.33344386       1.99484716       0.64214601
H       -0.77677444       1.78416964      -1.06274211
11
Frame=15 idx=002847 GeodesicLength=1.2724029273858088 rxn_smarts="[C:1]([N:2]([C:3]([C:4]#[N:5])([H:10])[H:11])[H:9])([H:6])([H:7])[H:8]>>[C:1]([N:2]([N:5]=[C:4]=[C:3]([H:10])[H:11])[H:9])([H:6])([H:7])[H:8]"
C        1.22897357      -0.69774097      -0.23189708
N        0.26437610      -0.25091527       0.74660330
C       -0.94275203       1.27715418      -0.12098595
C       -1.66931307       0.09217327      -0.24958515
N       -1.60445343      -0.99643324       0.22678912
H        0.80317325      -1.37628045      -0.98209910
H        2.08341412      -1.16684054       0.25621009
H        1.61252004       0.16315725      -0.78157239
H        0.28523428      -0.77694769       1.60523706
H       -1.31754215       1.98552326       0.61186543
H       -0.74363067       1.74715022      -1.08056532
11
Frame=16 idx=002847 GeodesicLength=1.3644257545455556 rxn_smarts="[C:1]([N:2]([C:3]([C:4]#[N:5])([H:10])[H:11])[H:9])([H:6])([H:7])[H:8]>>[C:1]([N:2]([N:5]=[C:4]=[C:3]([H:10])[H:11])[H:9])([H:6])([H:7])[H:8]"
C        1.20388166      -0.67888109      -0.22914703
N        0.25427913      -0.25374200       0.77600827
C       -0.91762249       1.25450093      -0.13141349
C       -1.65900418       0.07486819      -0.25933924
N       -1.59307152      -1.00161453       0.24625446
H        0.76311961      -1.31533515      -1.00700810
H        2.05469847      -1.17903239       0.23237720
H        1.59837737       0.19805471      -0.74494360
H        0.30864211      -0.78661659       1.62885482
H       -1.30223168       1.97550558       0.58411235
H       -0.71106849       1.71229234      -1.09575564
