12
Frame=0 idx=011891 GeodesicLength=0.0 rxn_smarts="[C:1]([C@@:2]([O:3][H:11])([C:4]#[C:5][H:12])[C:6]#[N:7])([H:8])([H:9])[H:10]>>[C:1]([C@@:2]([O:3][H:11])([C:4]#[C:5][H:12])[N+:7]#[C-:6])([H:8])([H:9])[H:10]"
C       -1.04233279      -0.62456332       0.80271883
C       -0.14252032       0.34130310       0.07165675
O       -0.10645629       1.51209861       0.73351538
C        1.14028837      -0.22344923      -0.30649118
C        2.20387090      -0.71631145      -0.54163171
C       -0.54387018       1.02371440      -1.71320611
N       -1.43140858       0.26719755      -1.54891372
H       -1.14316204      -1.55533821       0.25390677
H       -0.56671759      -0.81392373       1.76803612
H       -2.01947529      -0.17604486       0.95858890
H        0.50140932       2.11435906       0.28961165
H        3.15037449      -1.14904193      -0.76779168
12
Frame=1 idx=011891 GeodesicLength=0.06889460223457679 rxn_smarts="[C:1]([C@@:2]([O:3][H:11])([C:4]#[C:5][H:12])[C:6]#[N:7])([H:8])([H:9])[H:10]>>[C:1]([C@@:2]([O:3][H:11])([C:4]#[C:5][H:12])[N+:7]#[C-:6])([H:8])([H:9])[H:10]"
C       -1.04077156      -0.62147371       0.80296781
C       -0.15151824       0.34467600       0.05650142
O       -0.09939139       1.50932477       0.73671417
C        1.13412497      -0.22308783      -0.31602072
C        2.19756127      -0.71911196      -0.54550375
C       -0.59472374       1.07592304      -1.69786110
N       -1.39386352       0.22249960      -1.58657703
H       -1.13746743      -1.56307055       0.27183033
H       -0.56239159      -0.80298882       1.76828114
H       -2.01930992      -0.17538250       0.95788200
H        0.52136545       2.10796971       0.30651167
H        3.14638570      -1.15527774      -0.75472596
12
Frame=2 idx=011891 GeodesicLength=0.13751692482731265 rxn_smarts="[C:1]([C@@:2]([O:3][H:11])([C:4]#[C:5][H:12])[C:6]#[N:7])([H:8])([H:9])[H:10]>>[C:1]([C@@:2]([O:3][H:11])([C:4]#[C:5][H:12])[N+:7]#[C-:6])([H:8])([H:9])[H:10]"
C       -1.03951908      -0.61828422       0.80285140
C       -0.15942309       0.34777403       0.04254095
O       -0.09096277       1.50655383       0.73981518
C        1.12915843      -0.22315925      -0.32372008
C        2.19160574      -0.72369923      -0.54832843
C       -0.65186463       1.12152900      -1.67907137
N       -1.35104628       0.18339336      -1.62381783
H       -1.13341925      -1.56882191       0.28700985
H       -0.55867754      -0.79370893       1.76791157
H       -2.01890445      -0.17373011       0.95768821
H        0.53938380       2.10192868       0.31964225
H        3.14366911      -1.15977525      -0.74252171
12
Frame=3 idx=011891 GeodesicLength=0.20582868374080604 rxn_smarts="[C:1]([C@@:2]([O:3][H:11])([C:4]#[C:5][H:12])[C:6]#[N:7])([H:8])([H:9])[H:10]>>[C:1]([C@@:2]([O:3][H:11])([C:4]#[C:5][H:12])[N+:7]#[C-:6])([H:8])([H:9])[H:10]"
C       -1.03811829      -0.61524603       0.80223336
C       -0.16623748       0.35064401       0.02936027
O       -0.08152022       1.50389865       0.74240484
C        1.12545176      -0.22336398      -0.33013293
C        2.18639783      -0.72922107      -0.55029586
C       -0.71521690       1.16029961      -1.65719097
N       -1.30447415       0.15144504      -1.66011093
H       -1.13091887      -1.57274909       0.29885361
H       -0.55456841      -0.78654955       1.76651414
H       -2.01772993      -0.17149637       0.95880134
H        0.55504893       2.09677883       0.32859851
H        3.14188574      -1.16444005      -0.72903536
12
Frame=4 idx=011891 GeodesicLength=0.27362791437919437 rxn_smarts="[C:1]([C@@:2]([O:3][H:11])([C:4]#[C:5][H:12])[C:6]#[N:7])([H:8])([H:9])[H:10]>>[C:1]([C@@:2]([O:3][H:11])([C:4]#[C:5][H:12])[N+:7]#[C-:6])([H:8])([H:9])[H:10]"
C       -1.03644775      -0.61245650       0.80114869
C       -0.17199572       0.35325436       0.01683022
O       -0.07164432       1.50155164       0.74413124
C        1.12311376      -0.22366279      -0.33495548
C        2.18232437      -0.73511049      -0.55092875
C       -0.78365408       1.19164984      -1.63270718
N       -1.25499970       0.12756613      -1.69520471
H       -1.12995984      -1.57500519       0.30723245
H       -0.54981147      -0.78157411       1.76407649
H       -2.01565030      -0.16887707       0.96158598
H        0.56812632       2.09283225       0.33342206
H        3.14059873      -1.17016808      -0.71463102
12
Frame=5 idx=011891 GeodesicLength=0.34074227874470664 rxn_smarts="[C:1]([C@@:2]([O:3][H:11])([C:4]#[C:5][H:12])[C:6]#[N:7])([H:8])([H:9])[H:10]>>[C:1]([C@@:2]([O:3][H:11])([C:4]#[C:5][H:12])[N+:7]#[C-:6])([H:8])([H:9])[H:10]"
C       -1.03457889      -0.60997007       0.79973883
C       -0.17678876       0.35547602       0.00487370
O       -0.06178985       1.49964550       0.74472695
C        1.12209891      -0.22427881      -0.33786963
C        2.17967714      -0.74107200      -0.54947849
C       -0.85570887       1.21509788      -1.60615040
N       -1.20332609       0.11234902      -1.72912734
H       -1.13064977      -1.57580486       0.31234851
H       -0.54447968      -0.77861127       1.76081448
H       -2.01271060      -0.16594646       0.96624098
H        0.57863329       2.09017397       0.33433104
H        3.13962317      -1.17705891      -0.70044863
12
Frame=6 idx=011891 GeodesicLength=0.4068707407852169 rxn_smarts="[C:1]([C@@:2]([O:3][H:11])([C:4]#[C:5][H:12])[C:6]#[N:7])([H:8])([H:9])[H:10]>>[C:1]([C@@:2]([O:3][H:11])([C:4]#[C:5][H:12])[N+:7]#[C-:6])([H:8])([H:9])[H:10]"
C       -1.03315145      -0.60769513       0.79828356
C       -0.18086263       0.35654365      -0.00690817
O       -0.05095925       1.49742627       0.74371066
C        1.12136654      -0.22729118      -0.33994085
C        2.17730367      -0.74947209      -0.54691349
C       -0.92982712       1.23054641      -1.57797447
N       -1.15160031       0.10667924      -1.76163905
H       -1.13479240      -1.57508249       0.31464747
H       -0.53884277      -0.77782331       1.75676222
H       -2.00898869      -0.16173576       0.97364209
H        0.58835258       2.08736045       0.33103800
H        3.14200181      -1.17945607      -0.68470795
12
Frame=7 idx=011891 GeodesicLength=0.47215101813315935 rxn_smarts="[C:1]([C@@:2]([O:3][H:11])([C:4]#[C:5][H:12])[C:6]#[N:7])([H:8])([H:9])[H:10]>>[C:1]([C@@:2]([O:3][H:11])([C:4]#[C:5][H:12])[N+:7]#[C-:6])([H:8])([H:9])[H:10]"
C       -1.03289023      -0.60509469       0.79742403
C       -0.18386766       0.35749304      -0.01607157
O       -0.04416838       1.49740515       0.74224245
C        1.12370112      -0.22957051      -0.33263164
C        2.17846627      -0.75652774      -0.53363487
C       -1.00019878       1.23497648      -1.55105556
N       -1.09216755       0.10660803      -1.79309676
H       -1.13952795      -1.57317695       0.31579398
H       -0.53681691      -0.77656069       1.75455159
H       -2.00675055      -0.15736145       0.98003448
H        0.59351248       2.08708909       0.32707209
H        3.14070815      -1.18527976      -0.69062822
12
Frame=8 idx=011891 GeodesicLength=0.5362926462647383 rxn_smarts="[C:1]([C@@:2]([O:3][H:11])([C:4]#[C:5][H:12])[C:6]#[N:7])([H:8])([H:9])[H:10]>>[C:1]([C@@:2]([O:3][H:11])([C:4]#[C:5][H:12])[N+:7]#[C-:6])([H:8])([H:9])[H:10]"
C       -1.03115283      -0.60349902       0.79589836
C       -0.18690010       0.35730919      -0.02747381
O       -0.03455779       1.49596189       0.73799565
C        1.12408681      -0.23412510      -0.33264628
C        2.17842860      -0.76434419      -0.52738386
C       -1.07526973       1.23444332      -1.52182216
N       -1.04060433       0.11951854      -1.82231242
H       -1.14735158      -1.56998023       0.31302635
H       -0.52947227      -0.77924198       1.74899474
H       -2.00107043      -0.15274378       0.99221862
H        0.59964935       2.08547126       0.31764359
H        3.14421430      -1.18876991      -0.67413879
12
Frame=9 idx=011891 GeodesicLength=0.5996724442698669 rxn_smarts="[C:1]([C@@:2]([O:3][H:11])([C:4]#[C:5][H:12])[C:6]#[N:7])([H:8])([H:9])[H:10]>>[C:1]([C@@:2]([O:3][H:11])([C:4]#[C:5][H:12])[N+:7]#[C-:6])([H:8])([H:9])[H:10]"
C       -1.02941513      -0.60227672       0.79468596
C       -0.18968045       0.35652782      -0.03854056
O       -0.02608459       1.49522675       0.73230508
C        1.12480525      -0.23940517      -0.33142803
C        2.17933744      -0.77191086      -0.51917014
C       -1.14869184       1.22599386      -1.49335807
N       -0.98932411       0.14125300      -1.85005779
H       -1.15676644      -1.56596488       0.30860720
H       -0.52162780      -0.78322095       1.74333236
H       -1.99462776      -0.14807011       1.00643393
H        0.60427798       2.08449041       0.30614911
H        3.14779745      -1.19264316      -0.65895906
12
Frame=10 idx=011891 GeodesicLength=0.6623219796233113 rxn_smarts="[C:1]([C@@:2]([O:3][H:11])([C:4]#[C:5][H:12])[C:6]#[N:7])([H:8])([H:9])[H:10]>>[C:1]([C@@:2]([O:3][H:11])([C:4]#[C:5][H:12])[N+:7]#[C-:6])([H:8])([H:9])[H:10]"
C       -1.02934328      -0.60069449       0.79466969
C       -0.19188371       0.35515759      -0.04708158
O       -0.02161510       1.49625215       0.72628902
C        1.12738711      -0.24479781      -0.32190737
C        2.18261263      -0.77872652      -0.50151050
C       -1.21467301       1.20690471      -1.46901032
N       -0.93187180       0.16822827      -1.87569118
H       -1.16711108      -1.56116869       0.30471396
H       -0.51794621      -0.78599425       1.74023565
H       -1.99011120      -0.14301127       1.01947273
H        0.60615265       2.08464317       0.29544171
H        3.14840298      -1.19679287      -0.66562182
12
Frame=11 idx=011891 GeodesicLength=0.7244178079930972 rxn_smarts="[C:1]([C@@:2]([O:3][H:11])([C:4]#[C:5][H:12])[C:6]#[N:7])([H:8])([H:9])[H:10]>>[C:1]([C@@:2]([O:3][H:11])([C:4]#[C:5][H:12])[N+:7]#[C-:6])([H:8])([H:9])[H:10]"
C       -1.02860745      -0.59970462       0.79489232
C       -0.19420755       0.35333131      -0.05594866
O       -0.01797280       1.49763488       0.71879322
C        1.12944090      -0.25036084      -0.31413286
C        2.18627206      -0.78416058      -0.48462354
C       -1.27873065       1.18105336      -1.44658132
N       -0.87732340       0.20445680      -1.89883402
H       -1.17829015      -1.55583486       0.29953981
H       -0.51227383      -0.79022495       1.73644292
H       -1.98415900      -0.13841874       1.03481614
H        0.60738832       2.08487713       0.28321019
H        3.14846356      -1.20264889      -0.66757420
12
Frame=12 idx=011891 GeodesicLength=0.7861875206175458 rxn_smarts="[C:1]([C@@:2]([O:3][H:11])([C:4]#[C:5][H:12])[C:6]#[N:7])([H:8])([H:9])[H:10]>>[C:1]([C@@:2]([O:3][H:11])([C:4]#[C:5][H:12])[N+:7]#[C-:6])([H:8])([H:9])[H:10]"
C       -1.02660169      -0.59952573       0.79509010
C       -0.19712867       0.35099159      -0.06622259
O       -0.01358748       1.49852535       0.70940143
C        1.12972016      -0.25660627      -0.31237060
C        2.18837995      -0.78943677      -0.47448973
C       -1.34243290       1.15012966      -1.42500329
N       -0.82982891       0.25137190      -1.91926005
H       -1.19071870      -1.54994388       0.29293904
H       -0.50262827      -0.79671495       1.73072435
H       -1.97556795      -0.13431158       1.05359794
H        0.60937496       2.08428144       0.26872866
H        3.15101949      -1.20876075      -0.65313524
12
Frame=13 idx=011891 GeodesicLength=0.8477075855598571 rxn_smarts="[C:1]([C@@:2]([O:3][H:11])([C:4]#[C:5][H:12])[C:6]#[N:7])([H:8])([H:9])[H:10]>>[C:1]([C@@:2]([O:3][H:11])([C:4]#[C:5][H:12])[N+:7]#[C-:6])([H:8])([H:9])[H:10]"
C       -1.02547234      -0.59927454       0.79633241
C       -0.19993050       0.34811812      -0.07503217
O       -0.01214760       1.50047358       0.69970553
C        1.13057442      -0.26284540      -0.30696059
C        2.19228784      -0.79302204      -0.45763190
C       -1.39869456       1.11052560      -1.40889445
N       -0.78067859       0.30406137      -1.93629862
H       -1.20308191      -1.54403271       0.28769149
H       -0.49533103      -0.80193351       1.72699798
H       -1.96819494      -0.13024499       1.07104832
H        0.61037764       2.08391364       0.25569057
H        3.15029157      -1.21573913      -0.65264857
12
Frame=14 idx=011891 GeodesicLength=0.908771215758408 rxn_smarts="[C:1]([C@@:2]([O:3][H:11])([C:4]#[C:5][H:12])[C:6]#[N:7])([H:8])([H:9])[H:10]>>[C:1]([C@@:2]([O:3][H:11])([C:4]#[C:5][H:12])[N+:7]#[C-:6])([H:8])([H:9])[H:10]"
C       -1.02415013      -0.59928810       0.79808657
C       -0.20307366       0.34490179      -0.08378522
O       -0.01172559       1.50257377       0.68934227
C        1.13062961      -0.26919439      -0.30334649
C        2.19598008      -0.79532617      -0.44236620
C       -1.44973292       1.06475849      -1.39713464
N       -0.73556033       0.36370429      -1.94925560
H       -1.21544557      -1.53821663       0.28321154
H       -0.48739251      -0.80714554       1.72345939
H       -1.96041990      -0.12643492       1.08859797
H        0.61194945       2.08299575       0.24335815
H        3.14894147      -1.22332834      -0.65016774
12
Frame=15 idx=011891 GeodesicLength=0.9692592218258163 rxn_smarts="[C:1]([C@@:2]([O:3][H:11])([C:4]#[C:5][H:12])[C:6]#[N:7])([H:8])([H:9])[H:10]>>[C:1]([C@@:2]([O:3][H:11])([C:4]#[C:5][H:12])[N+:7]#[C-:6])([H:8])([H:9])[H:10]"
C       -1.02341832      -0.59926569       0.80043056
C       -0.20667553       0.34079019      -0.09269272
O       -0.01077622       1.50386094       0.67835739
C        1.12899432      -0.27767243      -0.30263638
C        2.19815860      -0.79928148      -0.42929844
C       -1.49482706       1.01420736      -1.38982932
N       -0.69636032       0.42899597      -1.95768437
H       -1.22922947      -1.53242462       0.28024255
H       -0.47969656      -0.81219638       1.72022193
H       -1.95271993      -0.12168408       1.10593075
H        0.61621038       2.07995268       0.23180636
H        3.15034011      -1.22528246      -0.64484833
12
Frame=16 idx=011891 GeodesicLength=1.0302194945419036 rxn_smarts="[C:1]([C@@:2]([O:3][H:11])([C:4]#[C:5][H:12])[C:6]#[N:7])([H:8])([H:9])[H:10]>>[C:1]([C@@:2]([O:3][H:11])([C:4]#[C:5][H:12])[N+:7]#[C-:6])([H:8])([H:9])[H:10]"
C       -1.02125162      -0.59964003       0.80268694
C       -0.21067145       0.33736015      -0.10209462
O       -0.01117250       1.50577766       0.66710721
C        1.12683048      -0.28412925      -0.30606367
C        2.20066485      -0.79943185      -0.41871124
C       -1.53570551       0.95803498      -1.38683884
N       -0.66384192       0.50137690      -1.96143836
H       -1.24064264      -1.52732146       0.27781677
H       -0.46963651      -0.81684783       1.71639765
H       -1.94400199      -0.11831797       1.12256755
H        0.62037429       2.07748487       0.22178345
H        3.14905450      -1.23434615      -0.63321284
