10
Frame=0 idx=004441 GeodesicLength=0.0 rxn_smarts="[N:1]#[C:2][C:3]1([H:6])[C:4]([H:7])([H:8])[C:5]1([H:9])[H:10]>>[N-:1]=[C:2]=[C+:3][C:5]([C:4]([H:6])([H:7])[H:8])([H:9])[H:10]"
N        2.77424258      -0.29416639      -0.49943003
C        1.77099551      -0.06635634       0.02294895
C        0.61000370       0.26114540       0.79319359
C       -0.80826946      -0.60126916      -0.06046827
C       -0.46489137       0.89311323       0.02144681
H       -0.07523424      -1.11068093       0.68825496
H       -1.74549777      -0.84881340       0.42800462
H       -0.65057417      -1.03788633      -1.03941923
H       -1.17687332       1.47803681       0.59296719
H       -0.23390145       1.32687709      -0.94749858
10
Frame=1 idx=004441 GeodesicLength=0.053298527710833196 rxn_smarts="[N:1]#[C:2][C:3]1([H:6])[C:4]([H:7])([H:8])[C:5]1([H:9])[H:10]>>[N-:1]=[C:2]=[C+:3][C:5]([C:4]([H:6])([H:7])[H:8])([H:9])[H:10]"
N        2.78669408      -0.28441523      -0.48816022
C        1.77669645      -0.06183974       0.02344046
C        0.60917191       0.25355623       0.78649643
C       -0.81295843      -0.60143994      -0.06211161
C       -0.46510663       0.89111720       0.01736671
H       -0.06913665      -1.12096720       0.69250501
H       -1.74552535      -0.84640954       0.43638801
H       -0.67472355      -1.03315090      -1.04621235
H       -1.17296403       1.47858296       0.59135496
H       -0.23214781       1.32496616      -0.95106741
10
Frame=2 idx=004441 GeodesicLength=0.10656851874483675 rxn_smarts="[N:1]#[C:2][C:3]1([H:6])[C:4]([H:7])([H:8])[C:5]1([H:9])[H:10]>>[N-:1]=[C:2]=[C+:3][C:5]([C:4]([H:6])([H:7])[H:8])([H:9])[H:10]"
N        2.79913546      -0.27448898      -0.47663529
C        1.78246728      -0.05724138       0.02401582
C        0.60836130       0.24580702       0.77959066
C       -0.81771564      -0.60161548      -0.06389968
C       -0.46528638       0.88907052       0.01319805
H       -0.06287106      -1.13137668       0.69683367
H       -1.74539242      -0.84404339       0.44478167
H       -0.69941463      -1.02819081      -1.05287419
H       -1.16892077       1.47908548       0.58971726
H       -0.23036313       1.32299371      -0.95472796
10
Frame=3 idx=004441 GeodesicLength=0.1597926976727416 rxn_smarts="[N:1]#[C:2][C:3]1([H:6])[C:4]([H:7])([H:8])[C:5]1([H:9])[H:10]>>[N-:1]=[C:2]=[C+:3][C:5]([C:4]([H:6])([H:7])[H:8])([H:9])[H:10]"
N        2.81149878      -0.26444600      -0.46491640
C        1.78831464      -0.05253081       0.02471816
C        0.60756779       0.23791174       0.77248449
C       -0.82252425      -0.60179551      -0.06584194
C       -0.46543371       0.88697656       0.00894444
H       -0.05643100      -1.14189406       0.70127560
H       -1.74508890      -0.84172881       0.45314161
H       -0.72460139      -1.02299505      -1.05938698
H       -1.16475913       1.47953341       0.58805244
H       -0.22854282       1.32096853      -0.95847141
10
Frame=4 idx=004441 GeodesicLength=0.21294825703927298 rxn_smarts="[N:1]#[C:2][C:3]1([H:6])[C:4]([H:7])([H:8])[C:5]1([H:9])[H:10]>>[N-:1]=[C:2]=[C+:3][C:5]([C:4]([H:6])([H:7])[H:8])([H:9])[H:10]"
N        2.82370826      -0.25435809      -0.45308903
C        1.79424735      -0.04767417       0.02560360
C        0.60678544       0.22988620       0.76519581
C       -0.82736247      -0.60198237      -0.06794884
C       -0.46555400       0.88484106       0.00461126
H       -0.04981251      -1.15249792       0.70587726
H       -1.74460682      -0.83948319       0.46141874
H       -0.75022089      -1.01755393      -1.06573950
H       -1.16050426       1.47991824       0.58635946
H       -0.22668011       1.31890415      -0.96228877
10
Frame=5 idx=004441 GeodesicLength=0.2660756145825434 rxn_smarts="[N:1]#[C:2][C:3]1([H:6])[C:4]([H:7])([H:8])[C:5]1([H:9])[H:10]>>[N-:1]=[C:2]=[C+:3][C:5]([C:4]([H:6])([H:7])[H:8])([H:9])[H:10]"
N        2.83570254      -0.24430432      -0.44121746
C        1.80027322      -0.04263141       0.02671954
C        0.60600774       0.22175938       0.75772474
C       -0.83221680      -0.60216464      -0.07023347
C       -0.46565525       0.88267206       0.00020333
H       -0.04299078      -1.16319197       0.71066724
H       -1.74393997      -0.83731427       0.46955123
H       -0.77622545      -1.01186671      -1.07188847
H       -1.15617739       1.48022313       0.58463609
H       -0.22477785       1.31681876      -0.96616278
10
Frame=6 idx=004441 GeodesicLength=0.3190875620352675 rxn_smarts="[N:1]#[C:2][C:3]1([H:6])[C:4]([H:7])([H:8])[C:5]1([H:9])[H:10]>>[N-:1]=[C:2]=[C+:3][C:5]([C:4]([H:6])([H:7])[H:8])([H:9])[H:10]"
N        2.84727561      -0.23447758      -0.42956497
C        1.80639722      -0.03732506       0.02821069
C        0.60521771       0.21355222       0.75014978
C       -0.83701952      -0.60236913      -0.07272917
C       -0.46574759       0.88047581      -0.00426031
H       -0.03601078      -1.17383364       0.71584383
H       -1.74304899      -0.83530126       0.47746995
H       -0.80240809      -1.00589504      -1.07793736
H       -1.15185350       1.48042942       0.58288390
H       -0.22280207       1.31474426      -0.97006634
10
Frame=7 idx=004441 GeodesicLength=0.37211597221465725 rxn_smarts="[N:1]#[C:2][C:3]1([H:6])[C:4]([H:7])([H:8])[C:5]1([H:9])[H:10]>>[N-:1]=[C:2]=[C+:3][C:5]([C:4]([H:6])([H:7])[H:8])([H:9])[H:10]"
N        2.85863094      -0.22470312      -0.41789881
C        1.81261571      -0.03180864       0.02997880
C        0.60443129       0.20525716       0.74236531
C       -0.84184153      -0.60255543      -0.07541541
C       -0.46582232       0.87824852      -0.00880281
H       -0.02879432      -1.18460738       0.72122048
H       -1.74198362      -0.83335561       0.48518648
H       -0.82898929      -0.99966797      -1.08370831
H       -1.14745918       1.48053992       0.58109336
H       -0.22078768       1.31265254      -0.97401908
10
Frame=8 idx=004441 GeodesicLength=0.4249512152239853 rxn_smarts="[N:1]#[C:2][C:3]1([H:6])[C:4]([H:7])([H:8])[C:5]1([H:9])[H:10]>>[N-:1]=[C:2]=[C+:3][C:5]([C:4]([H:6])([H:7])[H:8])([H:9])[H:10]"
N        2.86949383      -0.21525799      -0.40657064
C        1.81892719      -0.02596509       0.03220181
C        0.60363581       0.19688728       0.73448669
C       -0.84658468      -0.60277649      -0.07833747
C       -0.46589131       0.87598703      -0.01339380
H       -0.02142293      -1.19524845       0.72708720
H       -1.74068147      -0.83160262       0.49262398
H       -0.85568946      -0.99312081      -1.08939419
H       -1.14309372       1.48052014       0.57927575
H       -0.21869326       1.31057700      -0.97797933
10
Frame=9 idx=004441 GeodesicLength=0.4777677123635302 rxn_smarts="[N:1]#[C:2][C:3]1([H:6])[C:4]([H:7])([H:8])[C:5]1([H:9])[H:10]>>[N-:1]=[C:2]=[C+:3][C:5]([C:4]([H:6])([H:7])[H:8])([H:9])[H:10]"
N        2.88006994      -0.20597712      -0.39535775
C        1.82533260      -0.01985117       0.03478770
C        0.60283061       0.18843394       0.72641765
C       -0.85132115      -0.60299740      -0.08147562
C       -0.46595201       0.87370026      -0.01806071
H       -0.01380985      -1.20596635       0.73326456
H       -1.73920044      -0.82996116       0.49980856
H       -0.88270446      -0.98628653      -1.09482639
H       -1.13869288       1.48039647       0.57742809
H       -0.21655234       1.30850906      -0.98198610
10
Frame=10 idx=004441 GeodesicLength=0.530513563130117 rxn_smarts="[N:1]#[C:2][C:3]1([H:6])[C:4]([H:7])([H:8])[C:5]1([H:9])[H:10]>>[N-:1]=[C:2]=[C+:3][C:5]([C:4]([H:6])([H:7])[H:8])([H:9])[H:10]"
N        2.89012511      -0.19714201      -0.38456952
C        1.83182990      -0.01335322       0.03789089
C        0.60200958       0.17993524       0.71822938
C       -0.85597506      -0.60323730      -0.08488004
C       -0.46602549       0.87139663      -0.02277235
H       -0.00599901      -1.21655965       0.74001666
H       -1.73748688      -0.82852629       0.50663896
H       -0.90977429      -0.97914007      -1.10014068
H       -1.13435612       1.48012328       0.57556757
H       -0.21434775       1.30650338      -0.98598088
10
Frame=11 idx=004441 GeodesicLength=0.5831853701770627 rxn_smarts="[N:1]#[C:2][C:3]1([H:6])[C:4]([H:7])([H:8])[C:5]1([H:9])[H:10]>>[N-:1]=[C:2]=[C+:3][C:5]([C:4]([H:6])([H:7])[H:8])([H:9])[H:10]"
N        2.89979355      -0.18859997      -0.37405606
C        1.83840636      -0.00652040       0.04145192
C        0.60119287       0.17135308       0.70985804
C       -0.86058206      -0.60349520      -0.08854622
C       -0.46609609       0.86906296      -0.02754976
H        0.00202577      -1.22710978       0.74726360
H       -1.73556580      -0.82725675       0.51314420
H       -0.93706108      -0.97167279      -1.10526401
H       -1.13002381       1.47970928       0.57369265
H       -0.21208972       1.30452955      -0.98999437
10
Frame=12 idx=004441 GeodesicLength=0.6358123259284771 rxn_smarts="[N:1]#[C:2][C:3]1([H:6])[C:4]([H:7])([H:8])[C:5]1([H:9])[H:10]>>[N-:1]=[C:2]=[C+:3][C:5]([C:4]([H:6])([H:7])[H:8])([H:9])[H:10]"
N        2.90915611      -0.18024317      -0.36374546
C        1.84505276       0.00060071       0.04544053
C        0.60037987       0.16263709       0.70125902
C       -0.86518202      -0.60377457      -0.09247928
C       -0.46615396       0.86668471      -0.03240733
H        0.01027171      -1.23762576       0.75500851
H       -1.73345522      -0.82615111       0.51935878
H       -0.96464277      -0.96385210      -1.11019101
H       -1.12565221       1.47915994       0.57180433
H       -0.20977426       1.30256425      -0.99404811
10
Frame=13 idx=004441 GeodesicLength=0.6883795148625211 rxn_smarts="[N:1]#[C:2][C:3]1([H:6])[C:4]([H:7])([H:8])[C:5]1([H:9])[H:10]>>[N-:1]=[C:2]=[C+:3][C:5]([C:4]([H:6])([H:7])[H:8])([H:9])[H:10]"
N        2.91830897      -0.17195947      -0.35350425
C        1.85174977       0.00796467       0.04978521
C        0.59960156       0.15373694       0.69236575
C       -0.86979809      -0.60408455      -0.09669434
C       -0.46618656       0.86424519      -0.03736164
H        0.01872344      -1.24810972       0.76326030
H       -1.73114502      -0.82520235       0.52531619
H       -0.99264371      -0.95564914      -1.11491863
H       -1.12119301       1.47847084       0.56991865
H       -0.20741736       1.30058759      -0.99816724
10
Frame=14 idx=004441 GeodesicLength=0.740926034976485 rxn_smarts="[N:1]#[C:2][C:3]1([H:6])[C:4]([H:7])([H:8])[C:5]1([H:9])[H:10]>>[N-:1]=[C:2]=[C+:3][C:5]([C:4]([H:6])([H:7])[H:8])([H:9])[H:10]"
N        2.92734086      -0.16362641      -0.34321904
C        1.85847485       0.01551730       0.05443412
C        0.59885950       0.14459572       0.68310722
C       -0.87447892      -0.60442414      -0.10119753
C       -0.46618365       0.86173016      -0.04243118
H        0.02739526      -1.25858382       0.77200775
H       -1.72864684      -0.82440251       0.53104961
H       -1.02115011      -0.94703248      -1.11941571
H       -1.11658474       1.47764721       0.56804057
H       -0.20502622       1.29857898      -1.00237581
10
Frame=15 idx=004441 GeodesicLength=0.7934858408077197 rxn_smarts="[N:1]#[C:2][C:3]1([H:6])[C:4]([H:7])([H:8])[C:5]1([H:9])[H:10]>>[N-:1]=[C:2]=[C+:3][C:5]([C:4]([H:6])([H:7])[H:8])([H:9])[H:10]"
N        2.93641805      -0.15507435      -0.33266859
C        1.86522504       0.02317900       0.05926557
C        0.59818671       0.13513730       0.67338176
C       -0.87927797      -0.60479572      -0.10600180
C       -0.46613690       0.85911728      -0.04764390
H        0.03628933      -1.26907028       0.78123107
H       -1.72596718      -0.82373353       0.53661682
H       -1.05034183      -0.93795578      -1.12365183
H       -1.11176330       1.47668443       0.56619072
H       -0.20263195       1.29651165      -1.00671982
10
Frame=16 idx=004441 GeodesicLength=0.8460331766506963 rxn_smarts="[N:1]#[C:2][C:3]1([H:6])[C:4]([H:7])([H:8])[C:5]1([H:9])[H:10]>>[N-:1]=[C:2]=[C+:3][C:5]([C:4]([H:6])([H:7])[H:8])([H:9])[H:10]"
N        2.94562241      -0.14613753      -0.32164980
C        1.87195978       0.03088576       0.06417337
C        0.59760295       0.12529565       0.66308364
C       -0.88423943      -0.60520370      -0.11112164
C       -0.46601956       0.85637861      -0.05302210
H        0.04540284      -1.27957332       0.79090949
H       -1.72308815      -0.82318741       0.54204967
H       -1.08036633      -0.92837228      -1.12757895
H       -1.10662360       1.47557133       0.56438453
H       -0.20025091       1.29434290      -1.01122821
