11
Frame=0 idx=003828 GeodesicLength=0.0 rxn_smarts="[C:1]([C@@:2]([O:3][H:10])([C:4]#[C:5][H:11])[H:9])([H:6])([H:7])[H:8]>>[C:1]([C:2](=[C:4]=[C:5]([O:3][H:10])[H:11])[H:9])([H:6])([H:7])[H:8]"
C       -0.94876940      -1.12085102       0.11703341
C       -0.25938138       0.06071069      -0.48681943
O        0.28975001       0.99233442       0.80440878
C        1.08091661      -0.07237972      -1.05241731
C        1.61324482       0.66735938      -0.12668897
H       -1.81455451      -0.82334510       0.70911236
H       -0.25557881      -1.69158723       0.73397914
H       -1.28469996      -1.76327495      -0.69935769
H       -0.93541967       0.73771121      -1.01328046
H        0.01894411       1.91404534       0.69919229
H        2.49554818       1.09927694       0.31483790
11
Frame=1 idx=003828 GeodesicLength=0.08284497913717623 rxn_smarts="[C:1]([C@@:2]([O:3][H:10])([C:4]#[C:5][H:11])[H:9])([H:6])([H:7])[H:8]>>[C:1]([C:2](=[C:4]=[C:5]([O:3][H:10])[H:11])[H:9])([H:6])([H:7])[H:8]"
C       -0.95101517      -1.12903202       0.11397860
C       -0.27177642       0.06164412      -0.48548930
O        0.28564910       1.01493785       0.81178043
C        1.06941188      -0.05924375      -1.04023908
C        1.62175026       0.68139878      -0.13113859
H       -1.82163837      -0.83964488       0.70306884
H       -0.25507724      -1.69269328       0.73436155
H       -1.27846923      -1.77584181      -0.70239028
H       -0.95098338       0.72640262      -1.02336503
H        0.03183630       1.94059837       0.70374841
H        2.52031227       1.07147401       0.31568445
11
Frame=2 idx=003828 GeodesicLength=0.16566140126518691 rxn_smarts="[C:1]([C@@:2]([O:3][H:10])([C:4]#[C:5][H:11])[H:9])([H:6])([H:7])[H:8]>>[C:1]([C:2](=[C:4]=[C:5]([O:3][H:10])[H:11])[H:9])([H:6])([H:7])[H:8]"
C       -0.95328284      -1.13731527       0.11081602
C       -0.28438741       0.06259509      -0.48393442
O        0.28141943       1.03805935       0.81941915
C        1.05781506      -0.04576244      -1.02726264
C        1.63058855       0.69518075      -0.13521886
H       -1.82889168      -0.85628108       0.69664679
H       -0.25479104      -1.69375372       0.73487471
H       -1.27175831      -1.78844045      -0.70567105
H       -0.96634909       0.71473586      -1.03366530
H        0.04555745       1.96760332       0.70875882
H        2.54407988       1.04337858       0.31523679
11
Frame=3 idx=003828 GeodesicLength=0.24844918848478892 rxn_smarts="[C:1]([C@@:2]([O:3][H:10])([C:4]#[C:5][H:11])[H:9])([H:6])([H:7])[H:8]>>[C:1]([C:2](=[C:4]=[C:5]([O:3][H:10])[H:11])[H:9])([H:6])([H:7])[H:8]"
C       -0.95569957      -1.14572269       0.10751181
C       -0.29718674       0.06348625      -0.48211276
O        0.27710810       1.06156808       0.82743453
C        1.04617733      -0.03211962      -1.01331699
C        1.63984100       0.70835448      -0.13870114
H       -1.83646702      -0.87320939       0.68972934
H       -0.25496128      -1.69486395       0.73554451
H       -1.26466923      -1.80104380      -0.70927178
H       -0.98134597       0.70269274      -1.04420649
H        0.06029771       1.99491945       0.71436357
H        2.56690567       1.01593846       0.31302539
11
Frame=4 idx=003828 GeodesicLength=0.3312098552991353 rxn_smarts="[C:1]([C@@:2]([O:3][H:10])([C:4]#[C:5][H:11])[H:9])([H:6])([H:7])[H:8]>>[C:1]([C:2](=[C:4]=[C:5]([O:3][H:10])[H:11])[H:9])([H:6])([H:7])[H:8]"
C       -0.95826696      -1.15425915       0.10406968
C       -0.31022211       0.06431838      -0.48004359
O        0.27268454       1.08551303       0.83579724
C        1.03443898      -0.01828729      -0.99840204
C        1.64946760       0.72091124      -0.14163402
H       -1.84436676      -0.89045252       0.68229984
H       -0.25558768      -1.69600158       0.73638783
H       -1.25717485      -1.81367159      -0.71316606
H       -0.99599889       0.69023229      -1.05503284
H        0.07610119       2.02254273       0.72058432
H        2.58892494       0.98915446       0.30913964
11
Frame=5 idx=003828 GeodesicLength=0.41394649169223074 rxn_smarts="[C:1]([C@@:2]([O:3][H:10])([C:4]#[C:5][H:11])[H:9])([H:6])([H:7])[H:8]>>[C:1]([C:2](=[C:4]=[C:5]([O:3][H:10])[H:11])[H:9])([H:6])([H:7])[H:8]"
C       -0.96100715      -1.16293360       0.10048751
C       -0.32351940       0.06507586      -0.47773511
O        0.26813774       1.10991809       0.84450723
C        1.02256891      -0.00428186      -0.98247517
C        1.65944549       0.73281866      -0.14403555
H       -1.85262482      -0.90802340       0.67432788
H       -0.25671204      -1.69716840       0.73742791
H       -1.24927616      -1.82633655      -0.71734999
H       -1.01028321       0.67731932      -1.06618438
H        0.09301539       2.05045578       0.72746801
H        2.61025525       0.96315609       0.30356166
11
Frame=6 idx=003828 GeodesicLength=0.49666442634558766 rxn_smarts="[C:1]([C@@:2]([O:3][H:10])([C:4]#[C:5][H:11])[H:9])([H:6])([H:7])[H:8]>>[C:1]([C:2](=[C:4]=[C:5]([O:3][H:10])[H:11])[H:9])([H:6])([H:7])[H:8]"
C       -0.96391316      -1.17174717       0.09677037
C       -0.33712337       0.06576608      -0.47520518
O        0.26343331       1.13484914       0.85354037
C        1.01051136       0.00993883      -0.96551558
C        1.66972325       0.74411554      -0.14597031
H       -1.86124336      -0.92595053       0.66578333
H       -0.25833412      -1.69833053       0.73869540
H       -1.24091510      -1.83905473      -0.72179102
H       -1.02420859       0.66390550      -1.07771460
H        0.11107847       2.07865630       0.73506282
H        2.63099131       0.93785156       0.29634438
11
Frame=7 idx=003828 GeodesicLength=0.57936600765946 rxn_smarts="[C:1]([C@@:2]([O:3][H:10])([C:4]#[C:5][H:11])[H:9])([H:6])([H:7])[H:8]>>[C:1]([C:2](=[C:4]=[C:5]([O:3][H:10])[H:11])[H:9])([H:6])([H:7])[H:8]"
C       -0.96697323      -1.18070073       0.09292179
C       -0.35106811       0.06639174      -0.47247207
O        0.25853692       1.16037638       0.86287322
C        0.99821789       0.02441276      -0.94749715
C        1.68024976       0.75485391      -0.14751255
H       -1.87021735      -0.94425885       0.65664280
H       -0.26045051      -1.69945492       0.74021917
H       -1.23204133      -1.85184337      -0.72645954
H       -1.03776598       0.64995096      -1.08966910
H        0.13030760       2.10714896       0.74342237
H        2.65120433       0.91312315       0.28753107
11
Frame=8 idx=003828 GeodesicLength=0.6620535398825637 rxn_smarts="[C:1]([C@@:2]([O:3][H:10])([C:4]#[C:5][H:11])[H:9])([H:6])([H:7])[H:8]>>[C:1]([C:2](=[C:4]=[C:5]([O:3][H:10])[H:11])[H:9])([H:6])([H:7])[H:8]"
C       -0.97017790      -1.18979037       0.08894803
C       -0.36538760       0.06695913      -0.46955353
O        0.25340800       1.18657266       0.87248702
C        0.98563934       0.03917490      -0.92837691
C        1.69097632       0.76507413      -0.14872113
H       -1.87954514      -0.96297364       0.64685795
H       -0.26307821      -1.70050278       0.74203597
H       -1.22258691      -1.86471152      -0.73131732
H       -1.05092112       0.63540583      -1.10209585
H        0.15073745       2.13591771       0.75262639
H        2.67093576       0.88887394       0.27710937
11
Frame=9 idx=003828 GeodesicLength=0.7447617041385846 rxn_smarts="[C:1]([C@@:2]([O:3][H:10])([C:4]#[C:5][H:11])[H:9])([H:6])([H:7])[H:8]>>[C:1]([C:2](=[C:4]=[C:5]([O:3][H:10])[H:11])[H:9])([H:6])([H:7])[H:8]"
C       -0.97365007      -1.19903160       0.08482634
C       -0.38004450       0.06737906      -0.46644831
O        0.24806181       1.21338306       0.88245558
C        0.97283698       0.05400655      -0.90788485
C        1.70192663       0.77461715      -0.14947429
H       -1.88943749      -0.98204095       0.63621843
H       -0.26651896      -1.70151114       0.74428710
H       -1.21256255      -1.87768045      -0.73638715
H       -1.06342195       0.62020570      -1.11507492
H        0.17266209       2.16475360       0.76296442
H        2.69014801       0.86591902       0.26451767
11
Frame=10 idx=003828 GeodesicLength=0.8274655916993972 rxn_smarts="[C:1]([C@@:2]([O:3][H:10])([C:4]#[C:5][H:11])[H:9])([H:6])([H:7])[H:8]>>[C:1]([C:2](=[C:4]=[C:5]([O:3][H:10])[H:11])[H:9])([H:6])([H:7])[H:8]"
C       -0.97723475      -1.20839793       0.08059576
C       -0.39514168       0.06774776      -0.46320799
O        0.24238227       1.24103371       0.89265075
C        0.95964188       0.06921131      -0.88618357
C        1.71294415       0.78378151      -0.15007862
H       -1.89968567      -1.00155909       0.62480909
H       -0.27051888      -1.70233863       0.74694281
H       -1.20177202      -1.89076548      -0.74154972
H       -1.07542332       0.60431484      -1.12863899
H        0.19587836       2.19380637       0.77439001
H        2.70892965       0.84316564       0.25027047
11
Frame=11 idx=003828 GeodesicLength=0.9101468192278588 rxn_smarts="[C:1]([C@@:2]([O:3][H:10])([C:4]#[C:5][H:11])[H:9])([H:6])([H:7])[H:8]>>[C:1]([C:2](=[C:4]=[C:5]([O:3][H:10])[H:11])[H:9])([H:6])([H:7])[H:8]"
C       -0.98095303      -1.21788664       0.07625637
C       -0.41067314       0.06804303      -0.45983702
O        0.23635069       1.26955669       0.90310049
C        0.94605010       0.08476176      -0.86314561
C        1.72399063       0.79255812      -0.15055025
H       -1.91035297      -1.02152353       0.61254216
H       -0.27516999      -1.70296586       0.75008878
H       -1.19015412      -1.90396817      -0.74679239
H       -1.08678682       0.58768349      -1.14285443
H        0.22046257       2.22301482       0.78704326
H        2.72723607       0.82072629       0.23414864
11
Frame=12 idx=003828 GeodesicLength=0.9928025971856358 rxn_smarts="[C:1]([C@@:2]([O:3][H:10])([C:4]#[C:5][H:11])[H:9])([H:6])([H:7])[H:8]>>[C:1]([C:2](=[C:4]=[C:5]([O:3][H:10])[H:11])[H:9])([H:6])([H:7])[H:8]"
C       -0.98479741      -1.22748829       0.07181802
C       -0.42665384       0.06825827      -0.45636036
O        0.22991883       1.29903221       0.91379754
C        0.93201786       0.10067701      -0.83866961
C        1.73499612       0.80099699      -0.15097240
H       -1.92145949      -1.04194179       0.59930829
H       -0.28055118      -1.70333553       0.75381376
H       -1.17759245      -1.91730067      -0.75205319
H       -1.09739170       0.57025410      -1.15778580
H        0.24648319       2.25230765       0.80109742
H        2.74503007       0.79854006       0.21600633
11
Frame=13 idx=003828 GeodesicLength=1.0754163408206372 rxn_smarts="[C:1]([C@@:2]([O:3][H:10])([C:4]#[C:5][H:11])[H:9])([H:6])([H:7])[H:8]>>[C:1]([C:2](=[C:4]=[C:5]([O:3][H:10])[H:11])[H:9])([H:6])([H:7])[H:8]"
C       -0.98877053      -1.23719214       0.06729254
C       -0.44307341       0.06837404      -0.45280057
O        0.22304542       1.32953341       0.92474480
C        0.91752121       0.11694948      -0.81262510
C        1.74589625       0.80912234      -0.15141661
H       -1.93304557      -1.06280122       0.58500227
H       -0.28675657      -1.70340598       0.75821583
H       -1.16399674      -1.93076769      -0.75728491
H       -1.10706887       0.55197124      -1.17349851
H        0.27399888       2.28158614       0.81673139
H        2.76224991       0.77663039       0.19563889
11
Frame=14 idx=003828 GeodesicLength=1.1579874955633553 rxn_smarts="[C:1]([C@@:2]([O:3][H:10])([C:4]#[C:5][H:11])[H:9])([H:6])([H:7])[H:8]>>[C:1]([C:2](=[C:4]=[C:5]([O:3][H:10])[H:11])[H:9])([H:6])([H:7])[H:8]"
C       -0.99289383      -1.24698314       0.06269104
C       -0.45992398       0.06836440      -0.44919622
O        0.21566960       1.36113821       0.93594538
C        0.90253690       0.13355295      -0.78483517
C        1.75661396       0.81695087      -0.15193827
H       -1.94516979      -1.08409074       0.56943305
H       -0.29397263      -1.70310203       0.76344273
H       -1.14921591      -1.94438804      -0.76238357
H       -1.11559051       0.53276234      -1.19008302
H        0.30311939       2.31070050       0.83422618
H        2.77882678       0.75509469       0.17269788
11
Frame=15 idx=003828 GeodesicLength=1.2404983456681957 rxn_smarts="[C:1]([C@@:2]([O:3][H:10])([C:4]#[C:5][H:11])[H:9])([H:6])([H:7])[H:8]>>[C:1]([C:2](=[C:4]=[C:5]([O:3][H:10])[H:11])[H:9])([H:6])([H:7])[H:8]"
C       -0.99716599      -1.25684073       0.05802925
C       -0.47717209       0.06820331      -0.44559323
O        0.20773203       1.39395653       0.94739189
C        0.88704105       0.15047710      -0.75512437
C        1.76705821       0.82450396      -0.15261863
H       -1.95787160      -1.10578004       0.55244960
H       -0.30234835      -1.70234753       0.76962932
H       -1.13311695      -1.95816864      -0.76725334
H       -1.12269841       0.51255722      -1.20761747
H        0.33390994       2.33947332       0.85384039
H        2.79463217       0.73396550       0.14686659
11
Frame=16 idx=003828 GeodesicLength=1.32295361208001 rxn_smarts="[C:1]([C@@:2]([O:3][H:10])([C:4]#[C:5][H:11])[H:9])([H:6])([H:7])[H:8]>>[C:1]([C:2](=[C:4]=[C:5]([O:3][H:10])[H:11])[H:9])([H:6])([H:7])[H:8]"
C       -1.00159466      -1.26674075       0.05333132
C       -0.49478993       0.06786020      -0.44206137
O        0.19911574       1.42812946       0.95904662
C        0.87099881       0.16771998      -0.72328390
C        1.77711657       0.83180424      -0.15353251
H       -1.97121255      -1.12783670       0.53381255
H       -0.31210264      -1.70101972       0.77697774
H       -1.11549394      -1.97215860      -0.77174100
H       -1.12808621       0.49125908      -1.22622083
H        0.36652615       2.36767840       0.87597727
H        2.80952266       0.71330442       0.11769410
