11
Frame=0 idx=004095 GeodesicLength=0.0 rxn_smarts="[N:1]1([H:7])[C@@:2]2([H:8])[C@:3]3([H:9])[O:4][C@@:5]2([H:10])[C@:6]13[H:11]>>[N:1]([C:2]1([H:8])[C:3]([H:9])=[O+:4][C:5]1[H:10])([C-:6][H:11])[H:7]"
N       -1.02484497      -0.36924032      -0.56449820
C       -0.28737839      -0.04339578       0.63662876
C        1.12356084      -0.30918393       0.18787799
O        1.62511180       0.82641773       0.39055544
C        0.15663357       1.45153019       0.71546515
C       -0.21447845      -0.57689625      -1.54621813
H       -2.03282825      -0.25461466      -0.61967012
H       -0.66420135      -0.53920433       1.53391669
H        1.73179036      -1.19047652       0.00645154
H        0.30558519       1.71266526       1.77243426
H       -0.71895032      -0.70760135      -2.51294342
11
Frame=1 idx=004095 GeodesicLength=0.06571731206902023 rxn_smarts="[N:1]1([H:7])[C@@:2]2([H:8])[C@:3]3([H:9])[O:4][C@@:5]2([H:10])[C@:6]13[H:11]>>[N:1]([C:2]1([H:8])[C:3]([H:9])=[O+:4][C:5]1[H:10])([C-:6][H:11])[H:7]"
N       -1.03612146      -0.39165208      -0.54946106
C       -0.28277355      -0.06488104       0.64134909
C        1.12796632      -0.31988822       0.18695620
O        1.62435121       0.82223337       0.40599704
C        0.15708642       1.43096563       0.69014428
C       -0.21624681      -0.56092487      -1.53729120
H       -2.03342692      -0.21112094      -0.61760381
H       -0.64888002      -0.55507808       1.54558532
H        1.74805293      -1.19207533       0.00216774
H        0.27386227       1.73422228       1.73942210
H       -0.71387038      -0.69180071      -2.50726569
11
Frame=2 idx=004095 GeodesicLength=0.1317605047306331 rxn_smarts="[N:1]1([H:7])[C@@:2]2([H:8])[C@:3]3([H:9])[O:4][C@@:5]2([H:10])[C@:6]13[H:11]>>[N:1]([C:2]1([H:8])[C:3]([H:9])=[O+:4][C:5]1[H:10])([C-:6][H:11])[H:7]"
N       -1.04765291      -0.41072935      -0.53564008
C       -0.27851514      -0.08526425       0.64532934
C        1.13186203      -0.33060534       0.18588340
O        1.62325977       0.81778328       0.42129470
C        0.15845637       1.41054081       0.66574220
C       -0.21845644      -0.54695693      -1.52754840
H       -2.03211639      -0.17314714      -0.61307198
H       -0.63454433      -0.56984823       1.55595970
H        1.76335281      -1.19399117      -0.00104106
H        0.24275941       1.75498784       1.70482453
H       -0.70840517      -0.67276950      -2.50173234
11
Frame=3 idx=004095 GeodesicLength=0.1978310877440405 rxn_smarts="[N:1]1([H:7])[C@@:2]2([H:8])[C@:3]3([H:9])[O:4][C@@:5]2([H:10])[C@:6]13[H:11]>>[N:1]([C:2]1([H:8])[C:3]([H:9])=[O+:4][C:5]1[H:10])([C-:6][H:11])[H:7]"
N       -1.05945545      -0.42619430      -0.52306076
C       -0.27455337      -0.10462344       0.64868715
C        1.13549931      -0.34093194       0.18453140
O        1.62201999       0.81346503       0.43666886
C        0.16066114       1.39035390       0.64302800
C       -0.22092836      -0.53354123      -1.51764189
H       -2.02985897      -0.13837746      -0.60720382
H       -0.62107300      -0.58421016       1.56506730
H        1.77814459      -1.19562900      -0.00381108
H        0.21245905       1.77429564       1.66980288
H       -0.70291493      -0.65460704      -2.49606805
11
Frame=4 idx=004095 GeodesicLength=0.26401268812220685 rxn_smarts="[N:1]1([H:7])[C@@:2]2([H:8])[C@:3]3([H:9])[O:4][C@@:5]2([H:10])[C@:6]13[H:11]>>[N:1]([C:2]1([H:8])[C:3]([H:9])=[O+:4][C:5]1[H:10])([C-:6][H:11])[H:7]"
N       -1.07143146      -0.43949107      -0.51114997
C       -0.27080966      -0.12333410       0.65165105
C        1.13896356      -0.35116380       0.18309635
O        1.62048555       0.80917706       0.45184595
C        0.16339600       1.37023628       0.62131319
C       -0.22354393      -0.52168206      -1.50735857
H       -2.02688981      -0.10644110      -0.60011194
H       -0.60820199      -0.59811707       1.57343793
H        1.79269132      -1.19722717      -0.00575503
H        0.18268725       1.79273776       1.63346607
H       -0.69734682      -0.63469471      -2.49043505
11
Frame=5 idx=004095 GeodesicLength=0.330428241469266 rxn_smarts="[N:1]1([H:7])[C@@:2]2([H:8])[C@:3]3([H:9])[O:4][C@@:5]2([H:10])[C@:6]13[H:11]>>[N:1]([C:2]1([H:8])[C:3]([H:9])=[O+:4][C:5]1[H:10])([C-:6][H:11])[H:7]"
N       -1.08350996      -0.45102914      -0.49976761
C       -0.26720787      -0.14153182       0.65424039
C        1.14223593      -0.36123474       0.18161061
O        1.61856466       0.80497447       0.46694942
C        0.16659269       1.35008193       0.60061176
C       -0.22628875      -0.51122217      -1.49673932
H       -2.02322966      -0.07659160      -0.59213876
H       -0.59572997      -0.61169137       1.58104060
H        1.80697579      -1.19856617      -0.00696890
H        0.15343897       1.81023201       1.59578839
H       -0.69184183      -0.61342140      -2.48462658
11
Frame=6 idx=004095 GeodesicLength=0.39703593119775415 rxn_smarts="[N:1]1([H:7])[C@@:2]2([H:8])[C@:3]3([H:9])[O:4][C@@:5]2([H:10])[C@:6]13[H:11]>>[N:1]([C:2]1([H:8])[C:3]([H:9])=[O+:4][C:5]1[H:10])([C-:6][H:11])[H:7]"
N       -1.09565466      -0.46117196      -0.48868978
C       -0.26376998      -0.15936103       0.65654861
C        1.14538322      -0.37126270       0.18009306
O        1.61621563       0.80086719       0.48179994
C        0.17005274       1.32994242       0.58076103
C       -0.22903679      -0.50210637      -1.48580383
H       -2.01906098      -0.04851895      -0.58332939
H       -0.58365525      -0.62509198       1.58807805
H        1.82117162      -1.19981320      -0.00744546
H        0.12465223       1.82692705       1.55653454
H       -0.68629780      -0.59041047      -2.47854677
11
Frame=7 idx=004095 GeodesicLength=0.4636347761740781 rxn_smarts="[N:1]1([H:7])[C@@:2]2([H:8])[C@:3]3([H:9])[O:4][C@@:5]2([H:10])[C@:6]13[H:11]>>[N:1]([C:2]1([H:8])[C:3]([H:9])=[O+:4][C:5]1[H:10])([C-:6][H:11])[H:7]"
N       -1.10794372      -0.46968571      -0.47799973
C       -0.26049421      -0.17680020       0.65860497
C        1.14847844      -0.38106097       0.17846211
O        1.61354654       0.79694496       0.49661732
C        0.17376170       1.30987786       0.56215626
C       -0.23182805      -0.49355808      -1.47487196
H       -2.01456796      -0.02136118      -0.57403166
H       -0.57194736      -0.63853859       1.59453973
H        1.83539001      -1.20068300      -0.00757055
H        0.09641883       1.84255097       1.51634777
H       -0.68081421      -0.56768606      -2.47225425
11
Frame=8 idx=004095 GeodesicLength=0.5304901351810093 rxn_smarts="[N:1]1([H:7])[C@@:2]2([H:8])[C@:3]3([H:9])[O:4][C@@:5]2([H:10])[C@:6]13[H:11]>>[N:1]([C:2]1([H:8])[C:3]([H:9])=[O+:4][C:5]1[H:10])([C-:6][H:11])[H:7]"
N       -1.12027692      -0.47671870      -0.46761578
C       -0.25735977      -0.19390969       0.66033241
C        1.15137435      -0.39057041       0.17669687
O        1.61040410       0.79324259       0.51145107
C        0.17770311       1.28987845       0.54482757
C       -0.23466523      -0.48538892      -1.46382706
H       -2.00956136       0.00507266      -0.56431905
H       -0.56053364      -0.65212808       1.60020520
H        1.84938301      -1.20103727      -0.00744473
H        0.06887491       1.85704877       1.47519825
H       -0.67534257      -0.54548940      -2.46550476
11
Frame=9 idx=004095 GeodesicLength=0.5974352176714877 rxn_smarts="[N:1]1([H:7])[C@@:2]2([H:8])[C@:3]3([H:9])[O:4][C@@:5]2([H:10])[C@:6]13[H:11]>>[N:1]([C:2]1([H:8])[C:3]([H:9])=[O+:4][C:5]1[H:10])([C-:6][H:11])[H:7]"
N       -1.13269785      -0.48279570      -0.45733736
C       -0.25437173      -0.21081180       0.66190512
C        1.15422469      -0.40001216       0.17493870
O        1.60686935       0.78965358       0.52612826
C        0.18173350       1.26989316       0.52835426
C       -0.23751449      -0.47811727      -1.45268041
H       -2.00428144       0.03051873      -0.55411546
H       -0.54939133      -0.66574533       1.60552489
H        1.86344134      -1.20114266      -0.00675398
H        0.04186416       1.87072246       1.43252895
H       -0.66987620      -0.52216301      -2.45849297
11
Frame=10 idx=004095 GeodesicLength=0.6645748903581349 rxn_smarts="[N:1]1([H:7])[C@@:2]2([H:8])[C@:3]3([H:9])[O:4][C@@:5]2([H:10])[C@:6]13[H:11]>>[N:1]([C:2]1([H:8])[C:3]([H:9])=[O+:4][C:5]1[H:10])([C-:6][H:11])[H:7]"
N       -1.14519068      -0.48815962      -0.44706186
C       -0.25152493      -0.22758293       0.66334898
C        1.15701621      -0.40943504       0.17323067
O        1.60291430       0.78616560       0.54063389
C        0.18581422       1.24988624       0.51259769
C       -0.24038480      -0.47184566      -1.44137795
H       -1.99871772       0.05495879      -0.54344195
H       -0.53848029      -0.67940972       1.61054559
H        1.87754821      -1.20101080      -0.00544399
H        0.01539050       1.88362390       1.38805077
H       -0.66438503      -0.49719075      -2.45108184
11
Frame=11 idx=004095 GeodesicLength=0.7319137233749408 rxn_smarts="[N:1]1([H:7])[C@@:2]2([H:8])[C@:3]3([H:9])[O:4][C@@:5]2([H:10])[C@:6]13[H:11]>>[N:1]([C:2]1([H:8])[C:3]([H:9])=[O+:4][C:5]1[H:10])([C-:6][H:11])[H:7]"
N       -1.15770798      -0.49252393      -0.43688088
C       -0.24882226      -0.24416033       0.66459337
C        1.15965309      -0.41866253       0.17145188
O        1.59846114       0.78283922       0.55512987
C        0.18992612       1.22993590       0.49791192
C       -0.24329549      -0.46591861      -1.43004859
H       -1.99281274       0.07882722      -0.53241696
H       -0.52778009      -0.69326529       1.61504933
H        1.89153337      -1.20040924      -0.00384936
H       -0.01032719       1.89552160       1.34229769
H       -0.65882797      -0.47218400      -2.44323826
11
Frame=12 idx=004095 GeodesicLength=0.7994702106943503 rxn_smarts="[N:1]1([H:7])[C@@:2]2([H:8])[C@:3]3([H:9])[O:4][C@@:5]2([H:10])[C@:6]13[H:11]>>[N:1]([C:2]1([H:8])[C:3]([H:9])=[O+:4][C:5]1[H:10])([C-:6][H:11])[H:7]"
N       -1.17027396      -0.49630368      -0.42663280
C       -0.24627342      -0.26065867       0.66573203
C        1.16221295      -0.42785865       0.16972188
O        1.59355082       0.77962063       0.56947276
C        0.19399096       1.20998121       0.48395330
C       -0.24624193      -0.46074426      -1.41860754
H       -1.98669859       0.10181795      -0.52096540
H       -0.51729478      -0.70726332       1.61926714
H        1.90553858      -1.19951515      -0.00171196
H       -0.03535202       1.90660723       1.29464664
H       -0.65315861      -0.44568329      -2.43487605
11
Frame=13 idx=004095 GeodesicLength=0.8672016893009569 rxn_smarts="[N:1]1([H:7])[C@@:2]2([H:8])[C@:3]3([H:9])[O:4][C@@:5]2([H:10])[C@:6]13[H:11]>>[N:1]([C:2]1([H:8])[C:3]([H:9])=[O+:4][C:5]1[H:10])([C-:6][H:11])[H:7]"
N       -1.18288933      -0.49932261      -0.41637963
C       -0.24389566      -0.27705171       0.66673209
C        1.16466232      -0.43690405       0.16796608
O        1.58817172       0.77655955       0.58378556
C        0.19798397       1.19010322       0.47094967
C       -0.24924204      -0.45585831      -1.40715936
H       -1.98039318       0.12423029      -0.50916848
H       -0.50703439      -0.72154494       1.62309465
H        1.91950458      -1.19817255       0.00075455
H       -0.05950663       1.91674052       1.24545364
H       -0.64736135      -0.41877942      -2.42602878
11
Frame=14 idx=004095 GeodesicLength=0.9351110967642055 rxn_smarts="[N:1]1([H:7])[C@@:2]2([H:8])[C@:3]3([H:9])[O:4][C@@:5]2([H:10])[C@:6]13[H:11]>>[N:1]([C:2]1([H:8])[C:3]([H:9])=[O+:4][C:5]1[H:10])([C-:6][H:11])[H:7]"
N       -1.19553147      -0.50158356      -0.40612352
C       -0.24169300      -0.29334450       0.66757958
C        1.16698733      -0.44575915       0.16616895
O        1.58230879       0.77366600       0.59812057
C        0.20187388       1.17033461       0.45895847
C       -0.25229440      -0.45108466      -1.39572781
H       -1.97390305       0.14614325      -0.49702996
H       -0.49700364      -0.73616218       1.62648857
H        1.93339013      -1.19632701       0.00348469
H       -0.08269602       1.92587513       1.19477279
H       -0.64143855      -0.39175794      -2.41669233
11
Frame=15 idx=004095 GeodesicLength=1.0031947472479092 rxn_smarts="[N:1]1([H:7])[C@@:2]2([H:8])[C@:3]3([H:9])[O:4][C@@:5]2([H:10])[C@:6]13[H:11]>>[N:1]([C:2]1([H:8])[C:3]([H:9])=[O+:4][C:5]1[H:10])([C-:6][H:11])[H:7]"
N       -1.20817946      -0.50306833      -0.39587702
C       -0.23966580      -0.30953524       0.66825955
C        1.16917066      -0.45436712       0.16432278
O        1.57594463       0.77094170       0.61255227
C        0.20562806       1.15070068       0.44804650
C       -0.25540606      -0.44622297      -1.38433696
H       -1.96723674       0.16763608      -0.48457032
H       -0.48719241      -0.75116937       1.62940377
H        1.94715405      -1.19389369       0.00642944
H       -0.10479186       1.93393998       1.14267837
H       -0.63542507      -0.36496170      -2.40690838
11
Frame=16 idx=004095 GeodesicLength=1.071417375152929 rxn_smarts="[N:1]1([H:7])[C@@:2]2([H:8])[C@:3]3([H:9])[O:4][C@@:5]2([H:10])[C@:6]13[H:11]>>[N:1]([C:2]1([H:8])[C:3]([H:9])=[O+:4][C:5]1[H:10])([C-:6][H:11])[H:7]"
N       -1.22082853      -0.50378196      -0.38563466
C       -0.23782897      -0.32563797       0.66876965
C        1.17122468      -0.46269590       0.16241383
O        1.56908290       0.76839790       0.62713510
C        0.20920205       1.13125849       0.43826414
C       -0.25855927      -0.44110108      -1.37300942
H       -1.96044712       0.18877077      -0.47178268
H       -0.47762476      -0.76665228       1.63182581
H        1.96080994      -1.19084509       0.00954438
H       -0.12568319       1.94093596       1.08922260
H       -0.62934771      -0.33864886      -2.39674876
