9
Frame=0 idx=005263 GeodesicLength=0.0 rxn_smarts="[n:1]1([H:6])[c:2]([H:7])[c:3]([H:8])[c:4]([H:9])[n:5]1>>[N:1](=[C:2](/[C:3]([C:4]#[N:5])([H:8])[H:9])[H:7])\[H:6]"
N       -1.48407853      -0.53350846      -0.17398534
C       -0.82369977       0.54704683      -0.01226607
C        0.59461580       0.53066941       0.19584715
C        1.19613471      -0.74919190       0.20629451
N        1.12389392      -1.94647477       0.33139280
H       -2.48543562      -0.36105937      -0.17191905
H       -1.28853275       1.53679432       0.03665203
H        1.20734477       1.41761350       0.17352047
H        1.95975748      -0.44188958      -0.58553651
9
Frame=1 idx=005263 GeodesicLength=0.096791075686171 rxn_smarts="[n:1]1([H:6])[c:2]([H:7])[c:3]([H:8])[c:4]([H:9])[n:5]1>>[N:1](=[C:2](/[C:3]([C:4]#[N:5])([H:8])[H:9])[H:7])\[H:6]"
N       -1.45793288      -0.54490424      -0.15063167
C       -0.81260431       0.55185782      -0.02612932
C        0.60764658       0.53974549       0.16782780
C        1.19545893      -0.74600980       0.22723533
N        1.05177959      -1.94227631       0.30896894
H       -2.46226908      -0.39360682      -0.15954081
H       -1.28933327       1.53527147       0.01974175
H        1.21772471       1.42771516       0.20204608
H        1.94952972      -0.42779276      -0.58951810
9
Frame=2 idx=005263 GeodesicLength=0.1937150016023179 rxn_smarts="[n:1]1([H:6])[c:2]([H:7])[c:3]([H:8])[c:4]([H:9])[n:5]1>>[N:1](=[C:2](/[C:3]([C:4]#[N:5])([H:8])[H:9])[H:7])\[H:6]"
N       -1.43323180      -0.55421979      -0.13106813
C       -0.80191997       0.55608655      -0.03924025
C        0.62019804       0.54658764       0.14144732
C        1.19283988      -0.74466990       0.24256009
N        0.98544815      -1.93515260       0.28981877
H       -2.44009227      -0.42400583      -0.14136815
H       -1.28857014       1.53422582      -0.00337215
H        1.22493306       1.43363918       0.23612743
H        1.94039505      -0.41249107      -0.59490494
9
Frame=3 idx=005263 GeodesicLength=0.29078970175246815 rxn_smarts="[n:1]1([H:6])[c:2]([H:7])[c:3]([H:8])[c:4]([H:9])[n:5]1>>[N:1](=[C:2](/[C:3]([C:4]#[N:5])([H:8])[H:9])[H:7])\[H:6]"
N       -1.40976301      -0.56212372      -0.11071012
C       -0.79150160       0.55973963      -0.04894772
C        0.63253575       0.55199572       0.11848936
C        1.18949915      -0.74457139       0.25370262
N        0.92446005      -1.92612199       0.27484522
H       -2.41849404      -0.45194400      -0.12562898
H       -1.28674813       1.53320391      -0.02933370
H        1.22973404       1.43609819       0.27139854
H        1.93027780      -0.39627634      -0.60381522
9
Frame=4 idx=005263 GeodesicLength=0.38788803139600825 rxn_smarts="[n:1]1([H:6])[c:2]([H:7])[c:3]([H:8])[c:4]([H:9])[n:5]1>>[N:1](=[C:2](/[C:3]([C:4]#[N:5])([H:8])[H:9])[H:7])\[H:6]"
N       -1.38731139      -0.56867962      -0.09284672
C       -0.78108151       0.56304192      -0.05810649
C        0.64436569       0.55615254       0.10078475
C        1.18549718      -0.74592692       0.26155349
N        0.86752332      -1.91635969       0.26094110
H       -2.39757536      -0.47781704      -0.10561187
H       -1.28382971       1.53205939      -0.06123726
H        1.23241253       1.43548199       0.30855833
H        1.91999925      -0.37795256      -0.61403533
9
Frame=5 idx=005263 GeodesicLength=0.4850806290720488 rxn_smarts="[n:1]1([H:6])[c:2]([H:7])[c:3]([H:8])[c:4]([H:9])[n:5]1>>[N:1](=[C:2](/[C:3]([C:4]#[N:5])([H:8])[H:9])[H:7])\[H:6]"
N       -1.36575057      -0.57417340      -0.07582840
C       -0.77079089       0.56608857      -0.06531412
C        0.65587839       0.55952192       0.08705762
C        1.18136027      -0.74822567       0.26695167
N        0.81403287      -1.90585561       0.25047736
H       -2.37708995      -0.50189595      -0.08766983
H       -1.28041723       1.53034608      -0.09331478
H        1.23407671       1.43271787       0.34411370
H        1.90870040      -0.35852381      -0.62647323
9
Frame=6 idx=005263 GeodesicLength=0.5822893747573958 rxn_smarts="[n:1]1([H:6])[c:2]([H:7])[c:3]([H:8])[c:4]([H:9])[n:5]1>>[N:1](=[C:2](/[C:3]([C:4]#[N:5])([H:8])[H:9])[H:7])\[H:6]"
N       -1.34510727      -0.57879377      -0.06117165
C       -0.76064761       0.56895609      -0.07178064
C        0.66693733       0.56212726       0.07713677
C        1.17700566      -0.75158944       0.27011233
N        0.76335333      -1.89510109       0.24160026
H       -2.35718401      -0.52423974      -0.06780521
H       -1.27636871       1.52800432      -0.12779076
H        1.23476140       1.42807884       0.37943665
H        1.89724987      -0.33744247      -0.63973775
9
Frame=7 idx=005263 GeodesicLength=0.6795291780309721 rxn_smarts="[n:1]1([H:6])[c:2]([H:7])[c:3]([H:8])[c:4]([H:9])[n:5]1>>[N:1](=[C:2](/[C:3]([C:4]#[N:5])([H:8])[H:9])[H:7])\[H:6]"
N       -1.32537502      -0.58269196      -0.04746171
C       -0.75073153       0.57171556      -0.07687870
C        0.67764570       0.56416070       0.06981893
C        1.17265994      -0.75570863       0.27135788
N        0.71517652      -1.88406623       0.23549231
H       -2.33783454      -0.54513642      -0.04941833
H       -1.27191035       1.52495408      -0.16195872
H        1.23501396       1.42202882       0.41328258
H        1.88535532      -0.31525592      -0.65423424
9
Frame=8 idx=005263 GeodesicLength=0.7768004066082889 rxn_smarts="[n:1]1([H:6])[c:2]([H:7])[c:3]([H:8])[c:4]([H:9])[n:5]1>>[N:1](=[C:2](/[C:3]([C:4]#[N:5])([H:8])[H:9])[H:7])\[H:6]"
N       -1.30654150      -0.58599499      -0.03561742
C       -0.74102980       0.57440607      -0.08148099
C        0.68796937       0.56564832       0.06458350
C        1.16820705      -0.76054940       0.27082845
N        0.66911907      -1.87287755       0.23147279
H       -2.31903961      -0.56465321      -0.03060882
H       -1.26698998       1.52119133      -0.19627006
H        1.23476708       1.41465959       0.44629744
H        1.87353832      -0.29183017      -0.66920490
9
Frame=9 idx=005263 GeodesicLength=0.8740514309918269 rxn_smarts="[n:1]1([H:6])[c:2]([H:7])[c:3]([H:8])[c:4]([H:9])[n:5]1>>[N:1](=[C:2](/[C:3]([C:4]#[N:5])([H:8])[H:9])[H:7])\[H:6]"
N       -1.28859483      -0.58876463      -0.02419852
C       -0.73157791       0.57706943      -0.08503706
C        0.69797443       0.56663281       0.06079225
C        1.16379529      -0.76593496       0.26872567
N        0.62506716      -1.86143363       0.23030780
H       -2.30085472      -0.58309066      -0.01412778
H       -1.26177797       1.51678069      -0.22903290
H        1.23447968       1.40627361       0.47754401
H        1.86148886      -0.26753266      -0.68497347
9
Frame=10 idx=005263 GeodesicLength=0.9713204287927286 rxn_smarts="[n:1]1([H:6])[c:2]([H:7])[c:3]([H:8])[c:4]([H:9])[n:5]1>>[N:1](=[C:2](/[C:3]([C:4]#[N:5])([H:8])[H:9])[H:7])\[H:6]"
N       -1.27149761      -0.59106407      -0.01313775
C       -0.72233683       0.57967985      -0.08796659
C        0.70770608       0.56718982       0.05801344
C        1.15941607      -0.77179865       0.26507119
N        0.58282342      -1.84985540       0.23207740
H       -2.28328649      -0.60058723       0.00016091
H       -1.25629713       1.51185451      -0.26009156
H        1.23417483       1.39693281       0.50735430
H        1.84929768      -0.24235165      -0.70148135
9
Frame=11 idx=005263 GeodesicLength=1.068595274401045 rxn_smarts="[n:1]1([H:6])[c:2]([H:7])[c:3]([H:8])[c:4]([H:9])[n:5]1>>[N:1](=[C:2](/[C:3]([C:4]#[N:5])([H:8])[H:9])[H:7])\[H:6]"
N       -1.25518106      -0.59296619      -0.00273568
C       -0.71328307       0.58222411      -0.09061963
C        0.71719131       0.56731325       0.05589478
C        1.15502889      -0.77809192       0.25995848
N        0.54223092      -1.83809448       0.23697265
H       -2.26629702      -0.61729064       0.01232931
H       -1.25064425       1.50658609      -0.28892568
H        1.23390025       1.38669444       0.53568743
H        1.83705401      -0.21637466      -0.71856167
9
Frame=12 idx=005263 GeodesicLength=1.1658711778240398 rxn_smarts="[n:1]1([H:6])[c:2]([H:7])[c:3]([H:8])[c:4]([H:9])[n:5]1>>[N:1](=[C:2](/[C:3]([C:4]#[N:5])([H:8])[H:9])[H:7])\[H:6]"
N       -1.23962484      -0.59453207       0.00708508
C       -0.70440082       0.58470450      -0.09297015
C        0.72645031       0.56699830       0.05430899
C        1.15059267      -0.78482414       0.25335738
N        0.50318993      -1.82612814       0.24491944
H       -2.24989030      -0.63331866       0.02249617
H       -1.24482274       1.50106364      -0.31579036
H        1.23374278       1.37556911       0.56273475
H        1.82476302      -0.18953254      -0.73614130
9
Frame=13 idx=005263 GeodesicLength=1.2631307501941746 rxn_smarts="[n:1]1([H:6])[c:2]([H:7])[c:3]([H:8])[c:4]([H:9])[n:5]1>>[N:1](=[C:2](/[C:3]([C:4]#[N:5])([H:8])[H:9])[H:7])\[H:6]"
N       -1.22475003      -0.59582119       0.01630201
C       -0.69567926       0.58712318      -0.09497815
C        0.73552730       0.56624125       0.05294849
C        1.14607936      -0.79196228       0.24531494
N        0.46562999      -1.81382098       0.25653238
H       -2.23400308      -0.64891606       0.02987460
H       -1.23897266       1.49553478      -0.33987195
H        1.23387410       1.36362342       0.58820194
H        1.81229428      -0.16200211      -0.75432426
9
Frame=14 idx=005263 GeodesicLength=1.3603834610159808 rxn_smarts="[n:1]1([H:6])[c:2]([H:7])[c:3]([H:8])[c:4]([H:9])[n:5]1>>[N:1](=[C:2](/[C:3]([C:4]#[N:5])([H:8])[H:9])[H:7])\[H:6]"
N       -1.21052600      -0.59692862       0.02456158
C       -0.68711261       0.58948139      -0.09666772
C        0.74443478       0.56502161       0.05174169
C        1.14138557      -0.79955696       0.23574939
N        0.42948053      -1.80106783       0.27180695
H       -2.21859171      -0.66416096       0.03494836
H       -1.23309463       1.49009635      -0.36148240
H        1.23433541       1.35079797       0.61233123
H        1.79968866      -0.13368294      -0.77298906
9
Frame=15 idx=005263 GeodesicLength=1.4576176545876478 rxn_smarts="[n:1]1([H:6])[c:2]([H:7])[c:3]([H:8])[c:4]([H:9])[n:5]1>>[N:1](=[C:2](/[C:3]([C:4]#[N:5])([H:8])[H:9])[H:7])\[H:6]"
N       -1.19689010      -0.59794994       0.03158260
C       -0.67869939       0.59178139      -0.09799479
C        0.75319743       0.56330960       0.05050921
C        1.13640654      -0.80764560       0.22460289
N        0.39471572      -1.78764091       0.29118473
H       -2.20358389      -0.67921704       0.03749216
H       -1.22727075       1.48493695      -0.38028634
H        1.23523455       1.33706071       0.63504915
H        1.78688989      -0.10463516      -0.79213960
9
Frame=16 idx=005263 GeodesicLength=1.554848593325709 rxn_smarts="[n:1]1([H:6])[c:2]([H:7])[c:3]([H:8])[c:4]([H:9])[n:5]1>>[N:1](=[C:2](/[C:3]([C:4]#[N:5])([H:8])[H:9])[H:7])\[H:6]"
N       -1.18379020      -0.59908673       0.03636700
C       -0.67042960       0.59397238      -0.09931632
C        0.76180443       0.56105526       0.04917862
C        1.13095300      -0.81632388       0.21179756
N        0.36129653      -1.77333713       0.31451389
H       -2.18893770      -0.69400502       0.03879615
H       -1.22150038       1.48016469      -0.39660092
H        1.23642271       1.32229227       0.65666125
H        1.77418119      -0.07473183      -0.81139722
