16
Frame=0 idx=003563 GeodesicLength=0.0 rxn_smarts="[C:1]([C:2]([C:3]([C@@:4]1([H:14])[C:5]([H:15])([H:16])[O:6]1)([H:12])[H:13])([H:10])[H:11])([H:7])([H:8])[H:9]>>[C:1]([C:2]([C:3]([C:4]([O+:6]=[C-:5][H:15])([H:14])[H:16])([H:12])[H:13])([H:10])[H:11])([H:7])([H:8])[H:9]"
C       -1.58348944       1.08947475       0.15623629
C       -1.35265060      -0.40491221       0.35200667
C        0.09478671      -0.77599250       0.66139760
C        1.05178327      -0.45725529      -0.46481621
C        2.71885400       0.45112671      -0.42001139
O        2.37906152      -0.85796222      -0.13374194
H       -1.06832273       1.47298964      -0.72763361
H       -1.22889523       1.65854541       1.01894189
H       -2.64465125       1.30669874       0.02652864
H       -1.68777341      -0.94990903      -0.53672197
H       -1.97639605      -0.76121074       1.17545949
H        0.17849431      -1.84808780       0.85713106
H        0.44572195      -0.26139127       1.55959771
H        0.77027876      -0.83925801      -1.44798091
H        2.81263656       0.48924186      -1.54046230
H        1.09056158       0.68790196      -0.53593095
16
Frame=1 idx=003563 GeodesicLength=0.06040071089419151 rxn_smarts="[C:1]([C:2]([C:3]([C@@:4]1([H:14])[C:5]([H:15])([H:16])[O:6]1)([H:12])[H:13])([H:10])[H:11])([H:7])([H:8])[H:9]>>[C:1]([C:2]([C:3]([C:4]([O+:6]=[C-:5][H:15])([H:14])[H:16])([H:12])[H:13])([H:10])[H:11])([H:7])([H:8])[H:9]"
C       -1.58562703       1.08776252       0.15301428
C       -1.35257396      -0.40553186       0.35406339
C        0.09584486      -0.77502164       0.66121143
C        1.05079588      -0.45632835      -0.46653797
C        2.72074701       0.43518949      -0.41827842
O        2.37661400      -0.87253950      -0.14603149
H       -1.06974134       1.46867231      -0.73154779
H       -1.23233988       1.65996094       1.01421291
H       -2.64696208       1.30308896       0.02154414
H       -1.68898868      -0.95402850      -0.53205091
H       -1.97462100      -0.75941674       1.17986162
H        0.17826923      -1.84671120       0.85990629
H        0.44807394      -0.25818045       1.55773450
H        0.76143660      -0.83642018      -1.44828934
H        2.81191014       0.50428545      -1.53585872
H        1.10716232       0.70521875      -0.52295393
16
Frame=2 idx=003563 GeodesicLength=0.12078175623439436 rxn_smarts="[C:1]([C:2]([C:3]([C@@:4]1([H:14])[C:5]([H:15])([H:16])[O:6]1)([H:12])[H:13])([H:10])[H:11])([H:7])([H:8])[H:9]>>[C:1]([C:2]([C:3]([C:4]([O+:6]=[C-:5][H:15])([H:14])[H:16])([H:12])[H:13])([H:10])[H:11])([H:7])([H:8])[H:9]"
C       -1.58765311       1.08605125       0.14977020
C       -1.35251269      -0.40614907       0.35611392
C        0.09686980      -0.77414012       0.66098892
C        1.04973377      -0.45550517      -0.46834124
C        2.72225073       0.41953995      -0.41712121
O        2.37398960      -0.88662008      -0.15829409
H       -1.07096004       1.46433262      -0.73543425
H       -1.23566400       1.66134472       1.00946464
H       -2.64913543       1.29955302       0.01650102
H       -1.69025686      -0.95811941      -0.52736409
H       -1.97286713      -0.75754952       1.18426436
H        0.17802675      -1.84541658       0.86261910
H        0.45039103      -0.25509897       1.55584883
H        0.75263432      -0.83400025      -1.44852806
H        2.81120192       0.51934838      -1.53095421
H        1.12395132       0.72242922      -0.50953385
16
Frame=3 idx=003563 GeodesicLength=0.18114280133957755 rxn_smarts="[C:1]([C:2]([C:3]([C@@:4]1([H:14])[C:5]([H:15])([H:16])[O:6]1)([H:12])[H:13])([H:10])[H:11])([H:7])([H:8])[H:9]>>[C:1]([C:2]([C:3]([C:4]([O+:6]=[C-:5][H:15])([H:14])[H:16])([H:12])[H:13])([H:10])[H:11])([H:7])([H:8])[H:9]"
C       -1.58956277       1.08434796       0.14651570
C       -1.35246698      -0.40676134       0.35814667
C        0.09785790      -0.77335092       0.66072829
C        1.04859764      -0.45480514      -0.47022747
C        2.72334445       0.40423287      -0.41655297
O        2.37121808      -0.90017312      -0.17047651
H       -1.07197095       1.45998759      -0.73927516
H       -1.23886120       1.66269048       1.00471747
H       -2.65116559       1.29610508       0.01141502
H       -1.69157304      -0.96216345      -0.52268485
H       -1.97114354      -0.75561925       1.18864360
H        0.17775882      -1.84420665       0.86527233
H        0.45266671      -0.25214911       1.55393994
H        0.74389200      -0.83206421      -1.44869088
H        2.81049253       0.53440520      -1.52578357
H        1.14091593       0.73952403      -0.49568760
16
Frame=4 idx=003563 GeodesicLength=0.241490644361837 rxn_smarts="[C:1]([C:2]([C:3]([C@@:4]1([H:14])[C:5]([H:15])([H:16])[O:6]1)([H:12])[H:13])([H:10])[H:11])([H:7])([H:8])[H:9]>>[C:1]([C:2]([C:3]([C:4]([O+:6]=[C-:5][H:15])([H:14])[H:16])([H:12])[H:13])([H:10])[H:11])([H:7])([H:8])[H:9]"
C       -1.59135341       1.08265975       0.14326231
C       -1.35243785      -0.40736642       0.36015107
C        0.09880558      -0.77265641       0.66042764
C        1.04738630      -0.45424912      -0.47220020
C        2.72400829       0.38932283      -0.41657984
O        2.36833369      -0.91317472      -0.18252604
H       -1.07276927       1.45565367      -0.74305506
H       -1.24192674       1.66399234       0.99999195
H       -2.65305051       1.29275915       0.00630344
H       -1.69293401      -0.96614304      -0.51803503
H       -1.96945922      -0.75363687       1.19297773
H        0.17745764      -1.84308337       0.86787054
H        0.45489605      -0.24933073       1.55200535
H        0.73522543      -0.83067416      -1.44877859
H        2.80976616       0.54943110      -1.52038037
H        1.15805188       0.75649599      -0.48143491
16
Frame=5 idx=003563 GeodesicLength=0.30180519743537854 rxn_smarts="[C:1]([C:2]([C:3]([C@@:4]1([H:14])[C:5]([H:15])([H:16])[O:6]1)([H:12])[H:13])([H:10])[H:11])([H:7])([H:8])[H:9]>>[C:1]([C:2]([C:3]([C:4]([O+:6]=[C-:5][H:15])([H:14])[H:16])([H:12])[H:13])([H:10])[H:11])([H:7])([H:8])[H:9]"
C       -1.59301553       1.08099602       0.14001922
C       -1.35242081      -0.40796098       0.36210886
C        0.09971295      -0.77205641       0.66008697
C        1.04610866      -0.45384714      -0.47425398
C        2.72423211       0.37483214      -0.41721092
O        2.36535138      -0.92559878      -0.19440569
H       -1.07333955       1.45135362      -0.74675085
H       -1.24485668       1.66524652       0.99530974
H       -2.65477702       1.28952843       0.00117237
H       -1.69432595      -0.97003830      -0.51344948
H       -1.96782222      -0.75161544       1.19722975
H        0.17711807      -1.84204675       0.87041660
H        0.45707281      -0.24664459       1.55004918
H        0.72667135      -0.82992005      -1.44875254
H        2.80896040       0.56442218      -1.51480728
H        1.17533003       0.77334954      -0.46676195
16
Frame=6 idx=003563 GeodesicLength=0.36217175846803207 rxn_smarts="[C:1]([C:2]([C:3]([C@@:4]1([H:14])[C:5]([H:15])([H:16])[O:6]1)([H:12])[H:13])([H:10])[H:11])([H:7])([H:8])[H:9]>>[C:1]([C:2]([C:3]([C:4]([O+:6]=[C-:5][H:15])([H:14])[H:16])([H:12])[H:13])([H:10])[H:11])([H:7])([H:8])[H:9]"
C       -1.59455533       1.07936763       0.13678170
C       -1.35241802      -0.40854883       0.36402156
C        0.10058140      -0.77156187       0.65971109
C        1.04475821      -0.45362218      -0.47639814
C        2.72400920       0.36078473      -0.41843437
O        2.36230329      -0.93746880      -0.20610234
H       -1.07369364       1.44709832      -0.75038077
H       -1.24765070       1.66647099       0.99067356
H       -2.65635589       1.28642757      -0.00398175
H       -1.69575770      -0.97385976      -0.50893260
H       -1.96623051      -0.74955874       1.20141123
H        0.17674207      -1.84111687       0.87292247
H        0.45920472      -0.24409246       1.54808119
H        0.71821826      -0.82981566      -1.44864058
H        2.80807006       0.57938887      -1.50907678
H        1.19277458       0.79010703      -0.45165548
16
Frame=7 idx=003563 GeodesicLength=0.42217936544603035 rxn_smarts="[C:1]([C:2]([C:3]([C@@:4]1([H:14])[C:5]([H:15])([H:16])[O:6]1)([H:12])[H:13])([H:10])[H:11])([H:7])([H:8])[H:9]>>[C:1]([C:2]([C:3]([C:4]([O+:6]=[C-:5][H:15])([H:14])[H:16])([H:12])[H:13])([H:10])[H:11])([H:7])([H:8])[H:9]"
C       -1.59595925       1.07774916       0.13356439
C       -1.35242841      -0.40911064       0.36588576
C        0.10140136      -0.77113843       0.65926655
C        1.04332608      -0.45354149      -0.47865486
C        2.72333024       0.34725366      -0.42020812
O        2.35920368      -0.94875437      -0.21756634
H       -1.07381445       1.44284821      -0.75391187
H       -1.25029424       1.66761452       0.98606877
H       -2.65776808       1.28343123      -0.00911767
H       -1.69722567      -0.97756529      -0.50446014
H       -1.96468793      -0.74744685       1.20550327
H        0.17630918      -1.84022752       0.87535109
H        0.46128039      -0.24165677       1.54603645
H        0.70986851      -0.83038773      -1.44844941
H        2.80706203       0.59428660      -1.50319750
H        1.21039657       0.80664569      -0.43611037
16
Frame=8 idx=003563 GeodesicLength=0.4823385149761523 rxn_smarts="[C:1]([C:2]([C:3]([C@@:4]1([H:14])[C:5]([H:15])([H:16])[O:6]1)([H:12])[H:13])([H:10])[H:11])([H:7])([H:8])[H:9]>>[C:1]([C:2]([C:3]([C:4]([O+:6]=[C-:5][H:15])([H:14])[H:16])([H:12])[H:13])([H:10])[H:11])([H:7])([H:8])[H:9]"
C       -1.59723580       1.07616567       0.13033078
C       -1.35245308      -0.40966653       0.36771093
C        0.10218336      -0.77082924       0.65878627
C        1.04180873      -0.45366292      -0.48101335
C        2.72220665       0.33416998      -0.42255701
O        2.35606704      -0.95952643      -0.22886682
H       -1.07372040       1.43862611      -0.75740906
H       -1.25278582       1.66874353       0.98147715
H       -2.65902832       1.28056445      -0.01429814
H       -1.69875253      -0.98121633      -0.50003425
H       -1.96318301      -0.74527905       1.20954434
H        0.17583396      -1.83945420       0.87774308
H        0.46332488      -0.23935861       1.54397316
H        0.70159242      -0.83161137      -1.44818418
H        2.80590985       0.60921511      -1.49717398
H        1.22823207       0.82311981      -0.42002892
16
Frame=9 idx=003563 GeodesicLength=0.5424941860936934 rxn_smarts="[C:1]([C:2]([C:3]([C@@:4]1([H:14])[C:5]([H:15])([H:16])[O:6]1)([H:12])[H:13])([H:10])[H:11])([H:7])([H:8])[H:9]>>[C:1]([C:2]([C:3]([C:4]([O+:6]=[C-:5][H:15])([H:14])[H:16])([H:12])[H:13])([H:10])[H:11])([H:7])([H:8])[H:9]"
C       -1.59838083       1.07460474       0.12707022
C       -1.35249192      -0.41020999       0.36950698
C        0.10292644      -0.77062417       0.65825684
C        1.04019533      -0.45397437      -0.48349165
C        2.72064310       0.32155126      -0.42545362
O        2.35289962      -0.96980613      -0.24001555
H       -1.07340840       1.43440249      -0.76088235
H       -1.25512151       1.66985172       0.97686761
H       -2.66013096       1.27781205      -0.01953088
H       -1.70034982      -0.98481538      -0.49561975
H       -1.96170671      -0.74303022       1.21355449
H        0.17531054      -1.83877683       0.88008077
H        0.46534614      -0.23719179       1.54186211
H        0.69336602      -0.83346991      -1.44786484
H        2.80458266       0.62419515      -1.49099465
H        1.24632029       0.83948136      -0.40334574
16
Frame=10 idx=003563 GeodesicLength=0.6026231181764936 rxn_smarts="[C:1]([C:2]([C:3]([C@@:4]1([H:14])[C:5]([H:15])([H:16])[O:6]1)([H:12])[H:13])([H:10])[H:11])([H:7])([H:8])[H:9]>>[C:1]([C:2]([C:3]([C:4]([O+:6]=[C-:5][H:15])([H:14])[H:16])([H:12])[H:13])([H:10])[H:11])([H:7])([H:8])[H:9]"
C       -1.59939035       1.07306239       0.12376489
C       -1.35254466      -0.41073855       0.37128442
C        0.10363073      -0.77052635       0.65767445
C        1.03847275      -0.45447622      -0.48610343
C        2.71864204       0.30940196      -0.42888284
O        2.34970978      -0.97961943      -0.25104050
H       -1.07287551       1.43015741      -0.76435606
H       -1.25729645       1.67094789       0.97221227
H       -2.66106995       1.27516841      -0.02484360
H       -1.70203133      -0.98837595      -0.49118838
H       -1.96024604      -0.74067571       1.21756186
H        0.17473770      -1.83819831       0.88235847
H        0.46735369      -0.23516289       1.53969760
H        0.68516235      -0.83595252      -1.44750632
H        2.80304188       0.63927172      -1.48465218
H        1.26470338       0.85571616      -0.38598062
16
Frame=11 idx=003563 GeodesicLength=0.6627511103666534 rxn_smarts="[C:1]([C:2]([C:3]([C@@:4]1([H:14])[C:5]([H:15])([H:16])[O:6]1)([H:12])[H:13])([H:10])[H:11])([H:7])([H:8])[H:9]>>[C:1]([C:2]([C:3]([C:4]([O+:6]=[C-:5][H:15])([H:14])[H:16])([H:12])[H:13])([H:10])[H:11])([H:7])([H:8])[H:9]"
C       -1.60025512       1.07154923       0.12042834
C       -1.35260762      -0.41124888       0.37302773
C        0.10429678      -0.77053582       0.65703516
C        1.03664432      -0.45519685      -0.48885327
C        2.71615729       0.29775500      -0.43283842
O        2.34651514      -0.98893427      -0.26190579
H       -1.07211314       1.42591268      -0.76781177
H       -1.25929825       1.67202916       0.96753399
H       -2.66183737       1.27264720      -0.03021468
H       -1.70378965      -0.99187607      -0.48676915
H       -1.95880661      -0.73823133       1.22153485
H        0.17411257      -1.83771537       0.88458476
H        0.46934607      -0.23326466       1.53747081
H        0.67701490      -0.83914376      -1.44709069
H        2.80124837       0.65443662      -1.47816970
H        1.28337232       0.87181711      -0.36796219
16
Frame=12 idx=003563 GeodesicLength=0.7228871382330999 rxn_smarts="[C:1]([C:2]([C:3]([C@@:4]1([H:14])[C:5]([H:15])([H:16])[O:6]1)([H:12])[H:13])([H:10])[H:11])([H:7])([H:8])[H:9]>>[C:1]([C:2]([C:3]([C:4]([O+:6]=[C-:5][H:15])([H:14])[H:16])([H:12])[H:13])([H:10])[H:11])([H:7])([H:8])[H:9]"
C       -1.60097001       1.07007285       0.11703717
C       -1.35268291      -0.41174481       0.37474701
C        0.10492488      -0.77067052       0.65634256
C        1.03469442      -0.45614872      -0.49175865
C        2.71319832       0.28663649      -0.43731065
O        2.34333659      -0.99778031      -0.27262327
H       -1.07112636       1.42165751      -0.77129261
H       -1.26110580       1.67312487       0.96280179
H       -2.66242911       1.27026137      -0.03566883
H       -1.70564797      -0.99534085      -0.48234296
H       -1.95737866      -0.73567879       1.22550714
H        0.17343364      -1.83735959       0.88676227
H        0.47133665      -0.23151296       1.53519432
H        0.66888984      -0.84305066      -1.44664790
H        2.79915542       0.66975511      -1.47154899
H        1.30237107       0.88777902      -0.34919840
16
Frame=13 idx=003563 GeodesicLength=0.7829738792034019 rxn_smarts="[C:1]([C:2]([C:3]([C@@:4]1([H:14])[C:5]([H:15])([H:16])[O:6]1)([H:12])[H:13])([H:10])[H:11])([H:7])([H:8])[H:9]>>[C:1]([C:2]([C:3]([C:4]([O+:6]=[C-:5][H:15])([H:14])[H:16])([H:12])[H:13])([H:10])[H:11])([H:7])([H:8])[H:9]"
C       -1.60151865       1.06860132       0.11357383
C       -1.35276997      -0.41221082       0.37645483
C        0.10551019      -0.77091664       0.65557525
C        1.03260837      -0.45733197      -0.49482466
C        2.70974196       0.27603311      -0.44229400
O        2.34016827      -1.00614715      -0.28325343
H       -1.06990446       1.41732202      -0.77481296
H       -1.26268414       1.67420611       0.95794906
H       -2.66282545       1.26798010      -0.04120574
H       -1.70762068      -0.99875824      -0.47784861
H       -1.95595482      -0.73296175       1.22949170
H        0.17269098      -1.83708355       0.88886325
H        0.47332950      -0.22991284       1.53281311
H        0.66076699      -0.84764594      -1.44615048
H        2.79671703       0.68528095      -1.46472424
H        1.32174490       0.90354528      -0.32960690
16
Frame=14 idx=003563 GeodesicLength=0.8430811026249571 rxn_smarts="[C:1]([C:2]([C:3]([C@@:4]1([H:14])[C:5]([H:15])([H:16])[O:6]1)([H:12])[H:13])([H:10])[H:11])([H:7])([H:8])[H:9]>>[C:1]([C:2]([C:3]([C:4]([O+:6]=[C-:5][H:15])([H:14])[H:16])([H:12])[H:13])([H:10])[H:11])([H:7])([H:8])[H:9]"
C       -1.60189587       1.06716763       0.11003160
C       -1.35286630      -0.41265631       0.37814428
C        0.10605666      -0.77130232       0.65474776
C        1.03037966      -0.45878069      -0.49806813
C        2.70575929       0.26600267      -0.44778174
O        2.33704074      -1.01403768      -0.29375947
H       -1.06844568       1.41294766      -0.77839689
H       -1.26402028       1.67531662       0.95299604
H       -2.66302310       1.26584884      -0.04684083
H       -1.70971109      -1.00214639      -0.47332045
H       -1.95453125      -0.73009885       1.23349481
H        0.17188902      -1.83694591       0.89091105
H        0.47533476      -0.22847647       1.53036765
H        0.65265476      -0.85301439      -1.44562882
H        2.79386985       0.70104608      -1.45774335
H        1.34150883       0.91912949      -0.30915350
16
Frame=15 idx=003563 GeodesicLength=0.9031935389606993 rxn_smarts="[C:1]([C:2]([C:3]([C@@:4]1([H:14])[C:5]([H:15])([H:16])[O:6]1)([H:12])[H:13])([H:10])[H:11])([H:7])([H:8])[H:9]>>[C:1]([C:2]([C:3]([C:4]([O+:6]=[C-:5][H:15])([H:14])[H:16])([H:12])[H:13])([H:10])[H:11])([H:7])([H:8])[H:9]"
C       -1.60208653       1.06576802       0.10640541
C       -1.35297123      -0.41307433       0.37981323
C        0.10656046      -0.77182975       0.65385231
C        1.02799802      -0.46051651      -0.50149766
C        2.70121947       0.25658005      -0.45377612
O        2.33397264      -1.02142820      -0.30413733
H       -1.06673488       1.40851836      -0.78204740
H       -1.26508919       1.67644883       0.94792585
H       -2.66300517       1.26387101      -0.05257238
H       -1.71192698      -1.00549297      -0.46874893
H       -1.95310828      -0.72707191       1.23751104
H        0.17101712      -1.83693925       0.89290068
H        0.47735542      -0.22720924       1.52783824
H        0.64455579      -0.85920223      -1.44507012
H        2.79055103       0.71708214      -1.45060263
H        1.36169231       0.93449599      -0.28779419
16
Frame=16 idx=003563 GeodesicLength=0.9633130488149599 rxn_smarts="[C:1]([C:2]([C:3]([C@@:4]1([H:14])[C:5]([H:15])([H:16])[O:6]1)([H:12])[H:13])([H:10])[H:11])([H:7])([H:8])[H:9]>>[C:1]([C:2]([C:3]([C:4]([O+:6]=[C-:5][H:15])([H:14])[H:16])([H:12])[H:13])([H:10])[H:11])([H:7])([H:8])[H:9]"
C       -1.60207574       1.06440651       0.10268774
C       -1.35308308      -0.41346075       0.38145932
C        0.10701964      -0.77250778       0.65288566
C        1.02545262      -0.46256693      -0.50512453
C        2.69608710       0.24780540      -0.46027704
O        2.33098558      -1.02829945      -0.31438146
H       -1.06475857       1.40402730      -0.78577526
H       -1.26586490       1.67760736       0.94272546
H       -2.66275551       1.26206024      -0.05840401
H       -1.71427590      -1.00879240      -0.46413115
H       -1.95168411      -0.72386683       1.24153942
H        0.17006814      -1.83707067       0.89483322
H        0.47939706      -0.22611912       1.52521649
H        0.63647359      -0.86626658      -1.44446994
H        2.78668751       0.73343048      -1.44330279
H        1.38232656       0.94961321      -0.26548114
