15
Frame=0 idx=007809 GeodesicLength=0.0 rxn_smarts="[C:1]([C:2]1([C:3]([H:11])([H:12])[H:13])[C:4]([H:14])([H:15])[C:5](=[O:6])[O:7]1)([H:8])([H:9])[H:10]>>[C:1]([C:2]([C:3]([H:11])([H:12])[H:13])([C:4](=[C:5]=[O:6])[H:14])[O:7][H:15])([H:8])([H:9])[H:10]"
C       -1.04071745       1.15203592      -0.61822350
C       -0.11139559       0.15117507       0.03253751
C       -0.84637310      -0.79493047       0.96236306
C        0.93602404      -0.48496293      -0.88380075
C        1.91124798      -0.60128339       0.12078609
O        2.87856539      -0.98181767       0.62550023
O        0.98354596       0.81721870       0.73598828
H       -0.48462557       1.83860283      -1.25783071
H       -1.78868413       0.64116227      -1.22813345
H       -1.56079505       1.73066911       0.14695752
H       -0.14845910      -1.44353156       1.49448021
H       -1.41995195      -0.23019853       1.69857768
H       -1.53859865      -1.42351996       0.39874535
H        0.84647268      -1.17052904      -1.71899088
H        1.38374456       0.79990959      -0.50895659
15
Frame=1 idx=007809 GeodesicLength=0.05726398318143462 rxn_smarts="[C:1]([C:2]1([C:3]([H:11])([H:12])[H:13])[C:4]([H:14])([H:15])[C:5](=[O:6])[O:7]1)([H:8])([H:9])[H:10]>>[C:1]([C:2]([C:3]([H:11])([H:12])[H:13])([C:4](=[C:5]=[O:6])[H:14])[O:7][H:15])([H:8])([H:9])[H:10]"
C       -1.03999021       1.15122536      -0.61732593
C       -0.11061980       0.15051562       0.03432404
C       -0.84875605      -0.79573852       0.96077442
C        0.93969070      -0.48039322      -0.88314702
C        1.91622582      -0.60242258       0.12072691
O        2.88626667      -0.98519090       0.62050568
O        0.98342528       0.81767559       0.73726104
H       -0.48650959       1.84311837      -1.25346919
H       -1.78320453       0.63982667      -1.23254610
H       -1.56318218       1.72762501       0.14741885
H       -0.15532027      -1.44867970       1.49311845
H       -1.41977664      -0.23090431       1.69891561
H       -1.54023195      -1.42182277       0.39350804
H        0.83533928      -1.18416078      -1.70109308
H        1.38664347       0.81932617      -0.51897172
15
Frame=2 idx=007809 GeodesicLength=0.1145262971690468 rxn_smarts="[C:1]([C:2]1([C:3]([H:11])([H:12])[H:13])[C:4]([H:14])([H:15])[C:5](=[O:6])[O:7]1)([H:8])([H:9])[H:10]>>[C:1]([C:2]([C:3]([H:11])([H:12])[H:13])([C:4](=[C:5]=[O:6])[H:14])[O:7][H:15])([H:8])([H:9])[H:10]"
C       -1.03925593       1.15030590      -0.61645344
C       -0.10986111       0.14974852       0.03613846
C       -0.85119987      -0.79651091       0.95930125
C        0.94334139      -0.47600822      -0.88241868
C        1.92108107      -0.60397174       0.12081664
O        2.89400571      -0.98875181       0.61544671
O        0.98339967       0.81806288       0.73836347
H       -0.48845681       1.84740695      -1.24924961
H       -1.77774505       0.63839023      -1.23687740
H       -1.56548118       1.72457568       0.14781394
H       -0.16233797      -1.45376396       1.49195619
H       -1.41961914      -0.23148487       1.69932034
H       -1.54190403      -1.42012922       0.38843667
H        0.82473685      -1.19666084      -1.68335910
H        1.38929641       0.83879141      -0.52923544
15
Frame=3 idx=007809 GeodesicLength=0.17178767578082485 rxn_smarts="[C:1]([C:2]1([C:3]([H:11])([H:12])[H:13])[C:4]([H:14])([H:15])[C:5](=[O:6])[O:7]1)([H:8])([H:9])[H:10]>>[C:1]([C:2]([C:3]([H:11])([H:12])[H:13])([C:4](=[C:5]=[O:6])[H:14])[O:7][H:15])([H:8])([H:9])[H:10]"
C       -1.03851256       1.14928392      -0.61560136
C       -0.10911575       0.14888208       0.03798551
C       -0.85370253      -0.79724870       0.95793802
C        0.94698668      -0.47179050      -0.88160846
C        1.92581456      -0.60592998       0.12106582
O        2.90178785      -0.99249162       0.61032452
O        0.98346954       0.81838694       0.73930725
H       -0.49046591       1.85148446      -1.24516119
H       -1.77229854       0.63685724      -1.24113021
H       -1.56769757       1.72152079       0.14814909
H       -0.16951313      -1.45878624       1.49098880
H       -1.41948233      -0.23194759       1.69978732
H       -1.54360718      -1.41844057       0.38351770
H        0.81464143      -1.20810736      -1.66581313
H        1.39169547       0.85832715      -0.53974968
15
Frame=4 idx=007809 GeodesicLength=0.22904914224643558 rxn_smarts="[C:1]([C:2]1([C:3]([H:11])([H:12])[H:13])[C:4]([H:14])([H:15])[C:5](=[O:6])[O:7]1)([H:8])([H:9])[H:10]>>[C:1]([C:2]([C:3]([H:11])([H:12])[H:13])([C:4](=[C:5]=[O:6])[H:14])[O:7][H:15])([H:8])([H:9])[H:10]"
C       -1.03775811       1.14816505      -0.61476561
C       -0.10837983       0.14792395       0.03986934
C       -0.85626182      -0.79795290       0.95667973
C        0.95063719      -0.46772367      -0.88071003
C        1.93042655      -0.60829791       0.12148469
O        2.90961671      -0.99640375       0.60514064
O        0.98363594       0.81865369       0.74010298
H       -0.49253605       1.85536519      -1.24119485
H       -1.76685843       0.63523101      -1.24530713
H       -1.56983600       1.71846000       0.14843006
H       -0.17684653      -1.46374809       1.49021236
H       -1.41936848      -0.23229915       1.70031255
H       -1.54533386      -1.41675845       0.37873882
H        0.80503061      -1.21856963      -1.64847601
H        1.39383211       0.87795466      -0.55051754
15
Frame=5 idx=007809 GeodesicLength=0.2863088072309985 rxn_smarts="[C:1]([C:2]1([C:3]([H:11])([H:12])[H:13])[C:4]([H:14])([H:15])[C:5](=[O:6])[O:7]1)([H:8])([H:9])[H:10]>>[C:1]([C:2]([C:3]([H:11])([H:12])[H:13])([C:4](=[C:5]=[O:6])[H:14])[O:7][H:15])([H:8])([H:9])[H:10]"
C       -1.03699081       1.14695408      -0.61394235
C       -0.10764937       0.14688113       0.04179364
C       -0.85887449      -0.79862382       0.95552122
C        0.95430307      -0.46379272      -0.87971651
C        1.93491611      -0.61107819       0.12208334
O        2.91749351      -1.00048426       0.59989740
O        0.98389984       0.81886806       0.74075955
H       -0.49466771       1.85906140      -1.23734223
H       -1.76141829       0.63351437      -1.24940976
H       -1.57190062       1.71539268       0.14866152
H       -0.18433784      -1.46865001       1.48962283
H       -1.41927838      -0.23254497       1.70089121
H       -1.54707522      -1.41508361       0.37408874
H        0.79588430      -1.22810788      -1.63136571
H        1.39569592       0.89769375      -0.56154287
15
Frame=6 idx=007809 GeodesicLength=0.3435650363781912 rxn_smarts="[C:1]([C:2]1([C:3]([H:11])([H:12])[H:13])[C:4]([H:14])([H:15])[C:5](=[O:6])[O:7]1)([H:8])([H:9])[H:10]>>[C:1]([C:2]([C:3]([H:11])([H:12])[H:13])([C:4](=[C:5]=[O:6])[H:14])[O:7][H:15])([H:8])([H:9])[H:10]"
C       -1.03621002       1.14565545      -0.61312848
C       -0.10692051       0.14576006       0.04375988
C       -0.86153486      -0.79926344       0.95445938
C        0.95799451      -0.45998236      -0.87862537
C        1.93928253      -0.61427288       0.12286787
O        2.92540274      -1.00474359       0.59461575
O        0.98426260       0.81903654       0.74128501
H       -0.49686352       1.86257661      -1.23360875
H       -1.75598436       0.63170839      -1.25342843
H       -1.57388593       1.71232641       0.14884999
H       -0.19198102      -1.47348673       1.48922410
H       -1.41921555      -0.23269174       1.70151783
H       -1.54881564      -1.41342665       0.36955926
H        0.78719041      -1.23676161      -1.61451707
H        1.39727863       0.91756554      -0.57283097
15
Frame=7 idx=007809 GeodesicLength=0.4008121429181161 rxn_smarts="[C:1]([C:2]1([C:3]([H:11])([H:12])[H:13])[C:4]([H:14])([H:15])[C:5](=[O:6])[O:7]1)([H:8])([H:9])[H:10]>>[C:1]([C:2]([C:3]([H:11])([H:12])[H:13])([C:4](=[C:5]=[O:6])[H:14])[O:7][H:15])([H:8])([H:9])[H:10]"
C       -1.03541563       1.14427287      -0.61232040
C       -0.10618822       0.14456773       0.04576885
C       -0.86423547      -0.79987275       0.95349158
C        0.96172431      -0.45627531      -0.87743565
C        1.94352315      -0.61788630       0.12384902
O        2.93332272      -1.00919835       0.58932366
O        0.98472800       0.81916570       0.74168307
H       -0.49912845       1.86591518      -1.22999785
H       -1.75056206       0.62981311      -1.25735399
H       -1.57578774       1.70926684       0.14900290
H       -0.19976827      -1.47825144       1.48901994
H       -1.41918054      -0.23274509       1.70218831
H       -1.55053800      -1.41179806       0.36514370
H        0.77894001      -1.24456412      -1.59796924
H        1.39856618       0.93758998      -0.58439389
15
Frame=8 idx=007809 GeodesicLength=0.4580354726898207 rxn_smarts="[C:1]([C:2]1([C:3]([H:11])([H:12])[H:13])[C:4]([H:14])([H:15])[C:5](=[O:6])[O:7]1)([H:8])([H:9])[H:10]>>[C:1]([C:2]([C:3]([H:11])([H:12])[H:13])([C:4](=[C:5]=[O:6])[H:14])[O:7][H:15])([H:8])([H:9])[H:10]"
C       -1.03460673       1.14280818      -0.61151392
C       -0.10544721       0.14331025       0.04782162
C       -0.86696979      -0.80044723       0.95260309
C        0.96550234      -0.45265683      -0.87613723
C        1.94763833      -0.62192103       0.12502834
O        2.94125903      -1.01384146       0.58401048
O        0.98529490       0.81925430       0.74195921
H       -0.50146682       1.86909096      -1.22648708
H       -1.74513769       0.62783329      -1.26119250
H       -1.57761630       1.70620136       0.14912164
H       -0.20769568      -1.48294487       1.48898791
H       -1.41916506      -0.23270660       1.70288742
H       -1.55223192      -1.41018274       0.36082298
H        0.77109832      -1.25158250      -1.58168311
H        1.39954428       0.95778492      -0.59622885
15
Frame=9 idx=007809 GeodesicLength=0.5152606311855406 rxn_smarts="[C:1]([C:2]1([C:3]([H:11])([H:12])[H:13])[C:4]([H:14])([H:15])[C:5](=[O:6])[O:7]1)([H:8])([H:9])[H:10]>>[C:1]([C:2]([C:3]([H:11])([H:12])[H:13])([C:4](=[C:5]=[O:6])[H:14])[O:7][H:15])([H:8])([H:9])[H:10]"
C       -1.03377937       1.14126759      -0.61070893
C       -0.10469242       0.14199431       0.04992201
C       -0.86973768      -0.80099290       0.95179867
C        0.96934086      -0.44911500      -0.87473220
C        1.95162622      -0.62638163       0.12641827
O        2.94920710      -1.01867660       0.57868631
O        0.98597045       0.81931464       0.74212284
H       -0.50387524       1.87212004      -1.22308028
H       -1.73970508       0.62576652      -1.26495211
H       -1.57937328       1.70313443       0.14921268
H       -0.21576789      -1.48757410       1.48913778
H       -1.41917316      -0.23258434       1.70362613
H       -1.55389532      -1.40859502       0.35659422
H        0.76365167      -1.25785381      -1.56569300
H        1.40020314       0.97817587      -0.60835238
15
Frame=10 idx=007809 GeodesicLength=0.5724772865260066 rxn_smarts="[C:1]([C:2]1([C:3]([H:11])([H:12])[H:13])[C:4]([H:14])([H:15])[C:5](=[O:6])[O:7]1)([H:8])([H:9])[H:10]>>[C:1]([C:2]([C:3]([H:11])([H:12])[H:13])([C:4](=[C:5]=[O:6])[H:14])[O:7][H:15])([H:8])([H:9])[H:10]"
C       -1.03293193       1.13965319      -0.60990154
C       -0.10391884       0.14062560       0.05207221
C       -0.87253271      -0.80150778       0.95107182
C        0.97325019      -0.44563689      -0.87321334
C        1.95548273      -0.63127514       0.12802706
O        2.95716016      -1.02370936       0.57335329
O        0.98675694       0.81934787       0.74217820
H       -0.50635765       1.87500708      -1.21977201
H       -1.73425828       0.62361384      -1.26863078
H       -1.58106163       1.70006359       0.14927789
H       -0.22398126      -1.49213607       1.48946345
H       -1.41920284      -0.23238140       1.70439592
H       -1.55551640      -1.40703233       0.35244837
H        0.75658573      -1.26341159      -1.55000016
H        1.40052580       0.99877940      -0.62077036
15
Frame=11 idx=007809 GeodesicLength=0.6296873766679464 rxn_smarts="[C:1]([C:2]1([C:3]([H:11])([H:12])[H:13])[C:4]([H:14])([H:15])[C:5](=[O:6])[O:7]1)([H:8])([H:9])[H:10]>>[C:1]([C:2]([C:3]([H:11])([H:12])[H:13])([C:4](=[C:5]=[O:6])[H:14])[O:7][H:15])([H:8])([H:9])[H:10]"
C       -1.03206316       1.13796717      -0.60908991
C       -0.10312064       0.13921045       0.05427355
C       -0.87534839      -0.80199157       0.95041929
C        0.97724262      -0.44220967      -0.87157772
C        1.95920708      -0.63660623       0.12986018
O        2.96510456      -1.02895262       0.56802661
O        0.98765919       0.81936058       0.74212932
H       -0.50891762       1.87776088      -1.21655841
H       -1.72879089       0.62137385      -1.27223213
H       -1.58268770       1.69698442       0.14932038
H       -0.23233152      -1.49663234       1.48995881
H       -1.41924714      -0.23210131       1.70519779
H       -1.55708732      -1.40549438       0.34837944
H        0.74988388      -1.26828488      -1.53461286
H        1.40049705       1.01961566      -0.63349433
15
Frame=12 idx=007809 GeodesicLength=0.6868846126219903 rxn_smarts="[C:1]([C:2]1([C:3]([H:11])([H:12])[H:13])[C:4]([H:14])([H:15])[C:5](=[O:6])[O:7]1)([H:8])([H:9])[H:10]>>[C:1]([C:2]([C:3]([H:11])([H:12])[H:13])([C:4](=[C:5]=[O:6])[H:14])[O:7][H:15])([H:8])([H:9])[H:10]"
C       -1.03117173       1.13621166      -0.60827220
C       -0.10229187       0.13775489       0.05652679
C       -0.87817547      -0.80244321       0.94983721
C        0.98132850      -0.43882113      -0.86982147
C        1.96279455      -0.64238056       0.13192378
O        2.97302079      -1.03442202       0.56272445
O        0.98868110       0.81935736       0.74197773
H       -0.51156094       1.88039011      -1.21343452
H       -1.72329553       0.61904642      -1.27575874
H       -1.58425645       1.69389160       0.14934187
H       -0.24081119      -1.50106295       1.49061751
H       -1.41929524      -0.23174718       1.70603086
H       -1.55859674      -1.40397955       0.34438207
H        0.74353362      -1.27249830      -1.51953910
H        1.40009660       1.04070285      -0.64653624
15
Frame=13 idx=007809 GeodesicLength=0.7440753693573579 rxn_smarts="[C:1]([C:2]1([C:3]([H:11])([H:12])[H:13])[C:4]([H:14])([H:15])[C:5](=[O:6])[O:7]1)([H:8])([H:9])[H:10]>>[C:1]([C:2]([C:3]([H:11])([H:12])[H:13])([C:4](=[C:5]=[O:6])[H:14])[O:7][H:15])([H:8])([H:9])[H:10]"
C       -1.03025466       1.13438888      -0.60744582
C       -0.10142571       0.13626516       0.05883505
C       -0.88100964      -0.80286261       0.94932056
C        0.98551973      -0.43545943      -0.86793911
C        1.96624260      -0.64860384       0.13422487
O        2.98090502      -1.04012545       0.55744017
O        0.98982771       0.81934191       0.74172885
H       -0.51429140       1.88290583      -1.21039317
H       -1.71776160       0.61663010      -1.27921359
H       -1.58576962       1.69078219       0.14934547
H       -0.24942168      -1.50542712       1.49143808
H       -1.41935089      -0.23132265       1.70688659
H       -1.56003262      -1.40248969       0.34044529
H        0.73751744      -1.27608444      -1.50476564
H        1.39930533       1.06206117      -0.65990760
15
Frame=14 idx=007809 GeodesicLength=0.8012618489754317 rxn_smarts="[C:1]([C:2]1([C:3]([H:11])([H:12])[H:13])[C:4]([H:14])([H:15])[C:5](=[O:6])[O:7]1)([H:8])([H:9])[H:10]>>[C:1]([C:2]([C:3]([H:11])([H:12])[H:13])([C:4](=[C:5]=[O:6])[H:14])[O:7][H:15])([H:8])([H:9])[H:10]"
C       -1.02931161       1.13250048      -0.60660839
C       -0.10051565       0.13474764       0.06119896
C       -0.88384360      -0.80324934       0.94886700
C        0.98982891      -0.43211299      -0.86592955
C        1.96954982      -0.65528045       0.13676563
O        2.98873546      -1.04608617       0.55219584
O        0.99110602       0.81932148       0.74138525
H       -0.51711543       1.88531477      -1.20743273
H       -1.71218693       0.61412185      -1.28259595
H       -1.58723014       1.68765453       0.14933629
H       -0.25815668      -1.50972136       1.49241960
H       -1.41941096      -0.23083008       1.70776427
H       -1.56138323      -1.40102937       0.33656387
H        0.73182902      -1.27906106      -1.49030641
H        1.39810501       1.08371008      -0.67362369
15
Frame=15 idx=007809 GeodesicLength=0.8584411004017994 rxn_smarts="[C:1]([C:2]1([C:3]([H:11])([H:12])[H:13])[C:4]([H:14])([H:15])[C:5](=[O:6])[O:7]1)([H:8])([H:9])[H:10]>>[C:1]([C:2]([C:3]([H:11])([H:12])[H:13])([C:4](=[C:5]=[O:6])[H:14])[O:7][H:15])([H:8])([H:9])[H:10]"
C       -1.02834157       1.13054801      -0.60575801
C       -0.09955457       0.13320895       0.06361875
C       -0.88666623      -0.80360285       0.94847304
C        0.99426728      -0.42876903      -0.86379030
C        1.97271248      -0.66241349       0.13954745
O        2.99648309      -1.05233284       0.54701693
O        0.99252107       0.81930185       0.74094806
H       -0.52004143       1.88762278      -1.20455251
H       -1.70656751       0.61151956      -1.28590391
H       -1.58863933       1.68450575       0.14931722
H       -0.26700613      -1.51394227       1.49355949
H       -1.41946789      -0.23027294       1.70866021
H       -1.56263166      -1.39960165       0.33273288
H        0.72645960      -1.28144066      -1.47616951
H        1.39647281       1.10566884      -0.68769976
15
Frame=16 idx=007809 GeodesicLength=0.9156120567651311 rxn_smarts="[C:1]([C:2]1([C:3]([H:11])([H:12])[H:13])[C:4]([H:14])([H:15])[C:5](=[O:6])[O:7]1)([H:8])([H:9])[H:10]>>[C:1]([C:2]([C:3]([H:11])([H:12])[H:13])([C:4](=[C:5]=[O:6])[H:14])[O:7][H:15])([H:8])([H:9])[H:10]"
C       -1.02734386       1.12853298      -0.60489273
C       -0.09853508       0.13165597       0.06609440
C       -0.88946643      -0.80392264       0.94813559
C        0.99884657      -0.42541484      -0.86151993
C        1.97572773      -0.67000453       0.14256947
O        3.00411698      -1.05889789       0.54193233
O        0.99407873       0.81928975       0.74041855
H       -0.52307824       1.88983559      -1.20175228
H       -1.70090033       0.60882048      -1.28913537
H       -1.58999888       1.68133313       0.14929192
H       -0.27595943      -1.51808600       1.49485560
H       -1.41951460      -0.22965449       1.70957162
H       -1.56376125      -1.39821055       0.32894779
H        0.72140234      -1.28323384      -1.46236466
H        1.39438574       1.12795690      -0.70215231
