14
Frame=0 idx=008363 GeodesicLength=0.0 rxn_smarts="[O:1]([C@@:2]1([H:9])[C:3]([H:10])([H:11])[N:4]([H:12])[C@:5]1([C:6](=[O:7])[H:14])[H:13])[H:8]>>[C:3](=[N:4][H:12])([H:10])[H:11].[O:1](/[C:2](=[C:5](/[C:6](=[O:7])[H:14])[H:13])[H:9])[H:8]"
O       -1.21338160      -1.58141352       0.58964825
C       -0.67297488      -0.62697767      -0.23998799
C       -0.96380765       1.03930853       0.20612352
N       -0.24930713       1.55089484      -0.80699406
C        0.76571810      -0.75677972      -0.34105666
C        1.85547878      -0.00348062       0.21894074
O        1.83043194       1.03318299       0.87336978
H       -2.09253381      -1.83158815       0.29210872
H       -1.20018958      -0.56800781      -1.18745052
H       -0.57915653       1.12169221       1.22494375
H       -2.04735887       1.10763627       0.10819669
H        0.67328916       1.79775209      -0.44728522
H        1.06316037      -1.78741680      -0.53571259
H        2.83063173      -0.49480269       0.04515560
14
Frame=1 idx=008363 GeodesicLength=0.1010931870260921 rxn_smarts="[O:1]([C@@:2]1([H:9])[C:3]([H:10])([H:11])[N:4]([H:12])[C@:5]1([C:6](=[O:7])[H:14])[H:13])[H:8]>>[C:3](=[N:4][H:12])([H:10])[H:11].[O:1](/[C:2](=[C:5](/[C:6](=[O:7])[H:14])[H:13])[H:9])[H:8]"
O       -1.18599848      -1.60133416       0.60065927
C       -0.67002070      -0.63683708      -0.23162492
C       -0.97651441       1.06159619       0.20340366
N       -0.24622524       1.54310020      -0.81512966
C        0.76659359      -0.74465067      -0.36994332
C        1.85520924      -0.02008802       0.23414515
O        1.83333136       1.02165367       0.87800807
H       -2.07004218      -1.85373479       0.32039567
H       -1.21277738      -0.58021006      -1.17076204
H       -0.60091252       1.16314201       1.22403727
H       -2.05888058       1.13840226       0.09851651
H        0.67082927       1.80535200      -0.45255830
H        1.07027688      -1.76223286      -0.61847423
H        2.82513117      -0.53415869       0.09932688
14
Frame=2 idx=008363 GeodesicLength=0.2021662047326421 rxn_smarts="[O:1]([C@@:2]1([H:9])[C:3]([H:10])([H:11])[N:4]([H:12])[C@:5]1([C:6](=[O:7])[H:14])[H:13])[H:8]>>[C:3](=[N:4][H:12])([H:10])[H:11].[O:1](/[C:2](=[C:5](/[C:6](=[O:7])[H:14])[H:13])[H:9])[H:8]"
O       -1.15759829      -1.62225224       0.61020011
C       -0.66600760      -0.64717712      -0.22333202
C       -0.98939260       1.08397953       0.20101293
N       -0.24401411       1.53568514      -0.82220861
C        0.76751240      -0.73195528      -0.39799143
C        1.85461613      -0.03702051       0.24778808
O        1.83734529       1.00981219       0.88095358
H       -2.04631023      -1.87643554       0.34724573
H       -1.22415023      -0.59211844      -1.15385926
H       -0.62233292       1.20508666       1.22280272
H       -2.07045390       1.16961578       0.08914968
H        0.66764121       1.81347377      -0.45798948
H        1.07714562      -1.73450898      -0.69679924
H        2.81599922      -0.57618496       0.15302724
14
Frame=3 idx=008363 GeodesicLength=0.30322120831603405 rxn_smarts="[O:1]([C@@:2]1([H:9])[C:3]([H:10])([H:11])[N:4]([H:12])[C@:5]1([C:6](=[O:7])[H:14])[H:13])[H:8]>>[C:3](=[N:4][H:12])([H:10])[H:11].[O:1](/[C:2](=[C:5](/[C:6](=[O:7])[H:14])[H:13])[H:9])[H:8]"
O       -1.12857176      -1.64415139       0.61827201
C       -0.66100333      -0.65810657      -0.21503823
C       -1.00241872       1.10645921       0.19891540
N       -0.24243082       1.52846591      -0.82825103
C        0.76843937      -0.71897948      -0.42469340
C        1.85378940      -0.05432683       0.26024120
O        1.84242101       0.99755267       0.88263144
H       -2.02173255      -1.89954843       0.37254616
H       -1.23416860      -0.60382761      -1.13678112
H       -0.64354557       1.24757712       1.22125009
H       -2.08200941       1.20145831       0.07990818
H        0.66390385       1.82194836      -0.46344983
H        1.08384820      -1.70491583      -0.77041625
H        2.80347893      -0.61960543       0.20486539
14
Frame=4 idx=008363 GeodesicLength=0.40426655216318946 rxn_smarts="[O:1]([C@@:2]1([H:9])[C:3]([H:10])([H:11])[N:4]([H:12])[C@:5]1([C:6](=[O:7])[H:14])[H:13])[H:8]>>[C:3](=[N:4][H:12])([H:10])[H:11].[O:1](/[C:2](=[C:5](/[C:6](=[O:7])[H:14])[H:13])[H:9])[H:8]"
O       -1.09940527      -1.66703848       0.62493829
C       -0.65513266      -0.66974981      -0.20663244
C       -1.01559170       1.12905514       0.19701419
N       -0.24114274       1.52121447      -0.83323075
C        0.76931598      -0.70608353      -0.44951221
C        1.85272449      -0.07219315       0.27212210
O        1.84836984       0.98462525       0.88373426
H       -1.99681845      -1.92291419       0.39623725
H       -1.24273340      -0.61543955      -1.11956695
H       -0.66478992       1.29070775       1.21933549
H       -2.09348834       1.23418101       0.07042605
H        0.65988183       1.83050940      -0.46871522
H        1.09042142      -1.67407284      -0.83900310
H        2.78838893      -0.66280147       0.25285305
14
Frame=5 idx=008363 GeodesicLength=0.5054371733163336 rxn_smarts="[O:1]([C@@:2]1([H:9])[C:3]([H:10])([H:11])[N:4]([H:12])[C@:5]1([C:6](=[O:7])[H:14])[H:13])[H:8]>>[C:3](=[N:4][H:12])([H:10])[H:11].[O:1](/[C:2](=[C:5](/[C:6](=[O:7])[H:14])[H:13])[H:9])[H:8]"
O       -1.06994844      -1.69105089       0.63010365
C       -0.64844743      -0.68213674      -0.19818181
C       -1.02895986       1.15181160       0.19540568
N       -0.24040984       1.51394683      -0.83723644
C        0.77017253      -0.69320542      -0.47271949
C        1.85157360      -0.09021068       0.28300110
O        1.85524555       0.97132273       0.88389496
H       -1.97150371      -1.94665224       0.41856329
H       -1.25008510      -0.62694738      -1.10215348
H       -0.68591466       1.33451920       1.21705380
H       -2.10487543       1.26795247       0.06097141
H        0.65532179       1.83929213      -0.47404298
H        1.09695534      -1.64202420      -0.90328289
H        2.77087567      -0.70661742       0.29862318
14
Frame=6 idx=008363 GeodesicLength=0.6066379185208725 rxn_smarts="[O:1]([C@@:2]1([H:9])[C:3]([H:10])([H:11])[N:4]([H:12])[C@:5]1([C:6](=[O:7])[H:14])[H:13])[H:8]>>[C:3](=[N:4][H:12])([H:10])[H:11].[O:1](/[C:2](=[C:5](/[C:6](=[O:7])[H:14])[H:13])[H:9])[H:8]"
O       -1.04085904      -1.71615804       0.63395478
C       -0.64114016      -0.69540170      -0.18950634
C       -1.04254361       1.17477754       0.19387729
N       -0.23972192       1.50639193      -0.84014489
C        0.77090442      -0.68078848      -0.49366901
C        1.85018535      -0.10886865       0.29391980
O        1.86264726       0.95711798       0.88427070
H       -1.94645287      -1.97055109       0.43949086
H       -1.25613772      -0.63844931      -1.08458208
H       -0.70735804       1.37915494       1.21428451
H       -2.11609612       1.30305325       0.05083967
H        0.65066091       1.84787459      -0.47900306
H        1.10338336      -1.60944807      -0.96275110
H        2.75252818      -0.74870490       0.33901887
14
Frame=7 idx=008363 GeodesicLength=0.7078704767870112 rxn_smarts="[O:1]([C@@:2]1([H:9])[C:3]([H:10])([H:11])[N:4]([H:12])[C@:5]1([C:6](=[O:7])[H:14])[H:13])[H:8]>>[C:3](=[N:4][H:12])([H:10])[H:11].[O:1](/[C:2](=[C:5](/[C:6](=[O:7])[H:14])[H:13])[H:9])[H:8]"
O       -1.01219523      -1.74243619       0.63654125
C       -0.63330613      -0.70958964      -0.18060047
C       -1.05639274       1.19801019       0.19239610
N       -0.23911363       1.49850855      -0.84193808
C        0.77149857      -0.66888740      -0.51244676
C        1.84858667      -0.12810894       0.30488215
O        1.87042445       0.94198203       0.88500530
H       -1.92177156      -1.99465844       0.45924296
H       -1.26108545      -0.64995461      -1.06679745
H       -0.72917673       1.42471811       1.21094684
H       -2.12710643       1.33965281       0.03993067
H        0.64586715       1.85621844      -0.48361074
H        1.10969595      -1.57644539      -1.01785443
H        2.73407511      -0.78900951       0.37430264
14
Frame=8 idx=008363 GeodesicLength=0.8091335540953571 rxn_smarts="[O:1]([C@@:2]1([H:9])[C:3]([H:10])([H:11])[N:4]([H:12])[C@:5]1([C:6](=[O:7])[H:14])[H:13])[H:8]>>[C:3](=[N:4][H:12])([H:10])[H:11].[O:1](/[C:2](=[C:5](/[C:6](=[O:7])[H:14])[H:13])[H:9])[H:8]"
O       -0.98394805      -1.76996331       0.63788518
C       -0.62500962      -0.72474235      -0.17145110
C       -1.07056911       1.22156699       0.19093743
N       -0.23863590       1.49026929      -0.84258474
C        0.77193774      -0.65752111      -0.52914331
C        1.84681378      -0.14788140       0.31589378
O        1.87844814       0.92590018       0.88621250
H       -1.89748544      -2.01902190       0.47802891
H       -1.26509271      -0.66146844      -1.04874874
H       -0.75142563       1.47131899       1.20695201
H       -2.13787093       1.37791111       0.02814660
H        0.64089902       1.86429091      -0.48788658
H        1.11587999      -1.54305204      -1.06898137
H        2.71605871      -0.82760693       0.40473943
14
Frame=9 idx=008363 GeodesicLength=0.9105284249936587 rxn_smarts="[O:1]([C@@:2]1([H:9])[C:3]([H:10])([H:11])[N:4]([H:12])[C@:5]1([C:6](=[O:7])[H:14])[H:13])[H:8]>>[C:3](=[N:4][H:12])([H:10])[H:11].[O:1](/[C:2](=[C:5](/[C:6](=[O:7])[H:14])[H:13])[H:9])[H:8]"
O       -0.95611547      -1.79895576       0.63781903
C       -0.61633343      -0.74096484      -0.16202907
C       -1.08513481       1.24554680       0.18947539
N       -0.23828315       1.48159733      -0.84202807
C        0.77219127      -0.64676060      -0.54371945
C        1.84484152      -0.16822680       0.32719872
O        1.88651399       0.90882560       0.88822638
H       -1.87364291      -2.04370602       0.49614643
H       -1.26832171      -0.67299651      -1.03026794
H       -0.77414558       1.51906918       1.20216284
H       -2.14825465       1.41816080       0.01520890
H        0.63575083       1.87199078      -0.49183243
H        1.12189466      -1.50932264      -1.11643185
H        2.69903945      -0.86425733       0.43007112
14
Frame=10 idx=008363 GeodesicLength=1.0119551239800815 rxn_smarts="[O:1]([C@@:2]1([H:9])[C:3]([H:10])([H:11])[N:4]([H:12])[C@:5]1([C:6](=[O:7])[H:14])[H:13])[H:8]>>[C:3](=[N:4][H:12])([H:10])[H:11].[O:1](/[C:2](=[C:5](/[C:6](=[O:7])[H:14])[H:13])[H:9])[H:8]"
O       -0.92849945      -1.82937810       0.63642014
C       -0.60724715      -0.75822389      -0.15241875
C       -1.10015473       1.26998045       0.18802635
N       -0.23823837       1.47259077      -0.84023134
C        0.77225839      -0.63648577      -0.55656451
C        1.84280492      -0.18899357       0.33834745
O        1.89462755       0.89080382       0.89079803
H       -1.85000044      -2.06881820       0.51379432
H       -1.27097627      -0.68450708      -1.01133348
H       -0.79732577       1.56807618       1.19652581
H       -2.15828067       1.46035079       0.00123826
H        0.63028843       1.87943653      -0.49553121
H        1.12771213      -1.47512950      -1.16069446
H        2.68303144      -0.89970244       0.45162339
14
Frame=11 idx=008363 GeodesicLength=1.1134101418532887 rxn_smarts="[O:1]([C@@:2]1([H:9])[C:3]([H:10])([H:11])[N:4]([H:12])[C@:5]1([C:6](=[O:7])[H:14])[H:13])[H:8]>>[C:3](=[N:4][H:12])([H:10])[H:11].[O:1](/[C:2](=[C:5](/[C:6](=[O:7])[H:14])[H:13])[H:9])[H:8]"
O       -0.90102619      -1.86131734       0.63363766
C       -0.59777395      -0.77657145      -0.14262086
C       -1.11567661       1.29494880       0.18657384
N       -0.23855918       1.46323145      -0.83714613
C        0.77211694      -0.62669334      -0.56777158
C        1.84073658      -0.21016225       0.34931369
O        1.90269013       0.87181695       0.89401658
H       -1.82643418      -2.09448382       0.53116388
H       -1.27319801      -0.69600503      -0.99182299
H       -0.82097890       1.61846124       1.18994005
H       -2.16783314       1.50462399      -0.01387602
H        0.62446508       1.88660629      -0.49901926
H        1.13326233      -1.44036676      -1.20211065
H        2.66820910      -0.93408873       0.46972178
14
Frame=12 idx=008363 GeodesicLength=1.2148816657325328 rxn_smarts="[O:1]([C@@:2]1([H:9])[C:3]([H:10])([H:11])[N:4]([H:12])[C@:5]1([C:6](=[O:7])[H:14])[H:13])[H:8]>>[C:3](=[N:4][H:12])([H:10])[H:11].[O:1](/[C:2](=[C:5](/[C:6](=[O:7])[H:14])[H:13])[H:9])[H:8]"
O       -0.87360390      -1.89485005       0.62938345
C       -0.58792018      -0.79605235      -0.13264473
C       -1.13175154       1.32054123       0.18510727
N       -0.23931015       1.45351714      -0.83269788
C        0.77173885      -0.61736149      -0.57743505
C        1.83867665      -0.23172371       0.36006636
O        1.91061494       0.85184644       0.89795263
H       -1.80277340      -2.12082595       0.54843453
H       -1.27510683      -0.70748762      -0.97161972
H       -0.84510014       1.67033354       1.18229476
H       -2.17679276       1.55110353      -0.03022927
H        0.61823352       1.89348366      -0.50232861
H        1.13848725      -1.40497047      -1.24093859
H        2.65460769      -0.96755389       0.48465484
14
Frame=13 idx=008363 GeodesicLength=1.316374540474884 rxn_smarts="[O:1]([C@@:2]1([H:9])[C:3]([H:10])([H:11])[N:4]([H:12])[C@:5]1([C:6](=[O:7])[H:14])[H:13])[H:8]>>[C:3](=[N:4][H:12])([H:10])[H:11].[O:1](/[C:2](=[C:5](/[C:6](=[O:7])[H:14])[H:13])[H:9])[H:8]"
O       -0.84614061      -1.93006293       0.62353058
C       -0.57768733      -0.81672653      -0.12250774
C       -1.14844029       1.34685007       0.18361951
N       -0.24055486       1.44343944      -0.82680576
C        0.77107851      -0.60847902      -0.58562462
C        1.83664633      -0.25369758       0.37058130
O        1.91832225       0.83086238       0.90268906
H       -1.77882228      -2.14798480       0.56577795
H       -1.27682536      -0.71895411      -0.95058234
H       -0.86968667       1.72381121       1.17346896
H       -2.18502871       1.59993107      -0.04794836
H        0.61154745       1.90004808      -0.50550006
H        1.14331905      -1.36878993      -1.27732092
H        2.64227252      -1.00024736       0.49662245
14
Frame=14 idx=008363 GeodesicLength=1.4178829029595188 rxn_smarts="[O:1]([C@@:2]1([H:9])[C:3]([H:10])([H:11])[N:4]([H:12])[C@:5]1([C:6](=[O:7])[H:14])[H:13])[H:8]>>[C:3](=[N:4][H:12])([H:10])[H:11].[O:1](/[C:2](=[C:5](/[C:6](=[O:7])[H:14])[H:13])[H:9])[H:8]"
O       -0.81856340      -1.96700756       0.61596853
C       -0.56708091      -0.83864326      -0.11221986
C       -1.16579739       1.37400352       0.18210158
N       -0.24236861       1.43300414      -0.81935201
C        0.77009232      -0.60002088      -0.59239809
C        1.83467098      -0.27610789       0.38084130
O        1.92574014       0.80884498       0.90828603
H       -1.75433978      -2.17615909       0.58331047
H       -1.27847551      -0.73039411      -0.92852745
H       -0.89470705       1.77901569       1.16334666
H       -2.19236976       1.65120157      -0.06719051
H        0.60435431       1.90628373      -0.50856360
H        1.14765507      -1.33173711      -1.31145770
H        2.63118960      -1.03228372       0.50585465
14
Frame=15 idx=008363 GeodesicLength=1.519394124173463 rxn_smarts="[O:1]([C@@:2]1([H:9])[C:3]([H:10])([H:11])[N:4]([H:12])[C@:5]1([C:6](=[O:7])[H:14])[H:13])[H:8]>>[C:3](=[N:4][H:12])([H:10])[H:11].[O:1](/[C:2](=[C:5](/[C:6](=[O:7])[H:14])[H:13])[H:9])[H:8]"
O       -0.79080413      -2.00572125       0.60655591
C       -0.55610497      -0.86184631      -0.10180116
C       -1.18387944       1.40215121       0.18054135
N       -0.24483187       1.42222755      -0.81020049
C        0.76872085      -0.59195021      -0.59780184
C        1.83276182      -0.29897405       0.39083342
O        1.93280144       0.78577591       0.91479721
H       -1.72904951      -2.20556764       0.60110331
H       -1.28017653      -0.74178470      -0.90524806
H       -0.92011807       1.83606166       1.15180827
H       -2.19862672       1.70498652      -0.08810510
H        0.59659687       1.91218000      -0.51155882
H        1.15139543      -1.29376751      -1.34344512
H        2.62131484      -1.06377119       0.51252113
14
Frame=16 idx=008363 GeodesicLength=1.6208979212791923 rxn_smarts="[O:1]([C@@:2]1([H:9])[C:3]([H:10])([H:11])[N:4]([H:12])[C@:5]1([C:6](=[O:7])[H:14])[H:13])[H:8]>>[C:3](=[N:4][H:12])([H:10])[H:11].[O:1](/[C:2](=[C:5](/[C:6](=[O:7])[H:14])[H:13])[H:9])[H:8]"
O       -0.76281221      -2.04624760       0.59510399
C       -0.54476627      -0.88638717      -0.09126725
C       -1.20274524       1.43146104       0.17891781
N       -0.24803035       1.41112373      -0.79918100
C        0.76690006      -0.58423684      -0.60185612
C        1.83091803      -0.32232905       0.40055707
O        1.93943516       0.76161870       0.92229056
H       -1.70265821      -2.23643766       0.61923851
H       -1.28204975      -0.75310482      -0.88050580
H       -0.94586032       1.89507615       1.13871092
H       -2.20358413       1.76133172      -0.11087873
H        0.58821259       1.91771662      -0.51452305
H        1.15441892      -1.25478939      -1.37334800
H        2.61262171      -1.09479542       0.51674108
