17
Frame=0 idx=011162 GeodesicLength=0.0 rxn_smarts="[C:1]1([H:8])([H:9])[C@:2]2([H:10])[C@@:3]1([H:11])[C@:4]1([H:12])[C:5]([H:13])([H:14])[C:6]([H:15])([H:16])[C@:7]21[H:17]>>[C:1](=[C:3]([C@@:4]1([H:12])[C:5]([H:13])([H:14])[C:6]([H:15])([H:16])[C@:7]1([C:2][H:10])[H:17])[H:11])([H:8])[H:9]"
C        1.65117098      -1.34368761       0.93945566
C        0.99703721       1.10820484      -0.00527706
C        1.44635354      -0.63948125      -0.19256716
C       -0.02502948      -0.29789497      -0.69864521
C       -1.27466728      -0.40824016       0.18315362
C       -1.57457072       1.09518977      -0.05345464
C       -0.23131104       1.23331955      -0.79217851
H        2.56782422      -1.89803010       1.09000333
H        0.94905256      -1.31937423       1.76392779
H        0.78132238       1.11324740       1.07087818
H        2.15413166      -0.75147452      -1.00480769
H       -0.04093182      -0.79293373      -1.66677207
H       -1.07057990      -0.69289884       1.21424256
H       -2.02771155      -1.08728796      -0.21543003
H       -2.43620449       1.24882131      -0.70356971
H       -1.69009286       1.71752886       0.83494903
H       -0.17579337       1.71499162      -1.76390815
17
Frame=1 idx=011162 GeodesicLength=0.07332116243717746 rxn_smarts="[C:1]1([H:8])([H:9])[C@:2]2([H:10])[C@@:3]1([H:11])[C@:4]1([H:12])[C:5]([H:13])([H:14])[C:6]([H:15])([H:16])[C@:7]21[H:17]>>[C:1](=[C:3]([C@@:4]1([H:12])[C:5]([H:13])([H:14])[C:6]([H:15])([H:16])[C@:7]1([C:2][H:10])[H:17])[H:11])([H:8])[H:9]"
C        1.64866417      -1.31248580       0.94905313
C        1.01039650       1.09372505      -0.00296225
C        1.43482225      -0.66000225      -0.21437574
C       -0.03138694      -0.30985016      -0.70984822
C       -1.27982111      -0.41862924       0.17356148
C       -1.56693700       1.08978653      -0.04459736
C       -0.22270336       1.22778881      -0.78209111
H        2.57906533      -1.83618524       1.12399877
H        0.92735425      -1.31638161       1.75692421
H        0.80838251       1.13183698       1.07426491
H        2.14804846      -0.77936876      -1.02036258
H       -0.06022950      -0.78881611      -1.68585858
H       -1.08139221      -0.71486643       1.20237059
H       -2.04005863      -1.08643358      -0.23056075
H       -2.42715434       1.25922730      -0.69267823
H       -1.67799202       1.70088896       0.85207250
H       -0.16905837       1.71976556      -1.74891078
17
Frame=2 idx=011162 GeodesicLength=0.14679529437404693 rxn_smarts="[C:1]1([H:8])([H:9])[C@:2]2([H:10])[C@@:3]1([H:11])[C@:4]1([H:12])[C:5]([H:13])([H:14])[C:6]([H:15])([H:16])[C@:7]21[H:17]>>[C:1](=[C:3]([C@@:4]1([H:12])[C:5]([H:13])([H:14])[C:6]([H:15])([H:16])[C@:7]1([C:2][H:10])[H:17])[H:11])([H:8])[H:9]"
C        1.64487386      -1.28101542       0.95793999
C        1.02360326       1.07985228      -0.00062917
C        1.42337368      -0.67981605      -0.23413030
C       -0.03738265      -0.32171107      -0.72078439
C       -1.28482868      -0.42917149       0.16396463
C       -1.55927031       1.08385897      -0.03571579
C       -0.21415953       1.22185912      -0.77212861
H        2.58663579      -1.77634295       1.15427302
H        0.90744883      -1.31281110       1.75044106
H        0.83645240       1.15287762       1.07661059
H        2.14213800      -0.80673191      -1.03368441
H       -0.07831432      -0.78450750      -1.70426752
H       -1.09223142      -0.73691371       1.19039884
H       -2.05193864      -1.08575274      -0.24576272
H       -2.41801004       1.26893236      -0.68149768
H       -1.66596018       1.68360298       0.86905901
H       -0.16243003       1.72379061      -1.73408656
17
Frame=3 idx=011162 GeodesicLength=0.22044980313571594 rxn_smarts="[C:1]1([H:8])([H:9])[C@:2]2([H:10])[C@@:3]1([H:11])[C@:4]1([H:12])[C:5]([H:13])([H:14])[C:6]([H:15])([H:16])[C@:7]21[H:17]>>[C:1](=[C:3]([C@@:4]1([H:12])[C:5]([H:13])([H:14])[C:6]([H:15])([H:16])[C@:7]1([C:2][H:10])[H:17])[H:11])([H:8])[H:9]"
C        1.63975886      -1.24954954       0.96608843
C        1.03665372       1.06663182       0.00169766
C        1.41202645      -0.69890187      -0.25197368
C       -0.04303211      -0.33345507      -0.73151217
C       -1.28971252      -0.43989314       0.15427899
C       -1.55157049       1.07741144      -0.02672114
C       -0.20572412       1.21558178      -0.76227487
H        2.59094438      -1.71863354       1.18132403
H        0.88909287      -1.30824433       1.74458773
H        0.86565484       1.17626873       1.07769619
H        2.13638721      -0.83362074      -1.04490783
H       -0.09520999      -0.77997676      -1.72207977
H       -1.10313518      -0.75918037       1.17820375
H       -2.06338872      -1.08521307      -0.26118606
H       -2.40881250       1.27802058      -0.66987581
H       -1.65391354       1.66558786       0.88606304
H       -0.15601916       1.72716622      -1.71940850
17
Frame=4 idx=011162 GeodesicLength=0.2942945766844157 rxn_smarts="[C:1]1([H:8])([H:9])[C@:2]2([H:10])[C@@:3]1([H:11])[C@:4]1([H:12])[C:5]([H:13])([H:14])[C:6]([H:15])([H:16])[C@:7]21[H:17]>>[C:1](=[C:3]([C@@:4]1([H:12])[C:5]([H:13])([H:14])[C:6]([H:15])([H:16])[C@:7]1([C:2][H:10])[H:17])[H:11])([H:8])[H:9]"
C        1.63335996      -1.21822069       0.97353717
C        1.04954485       1.05412048       0.00399266
C        1.40081450      -0.71722184      -0.26803216
C       -0.04834195      -0.34506115      -0.74207570
C       -1.29448992      -0.45081472       0.14443859
C       -1.54384119       1.07044065      -0.01753972
C       -0.19743818       1.20900613      -0.75251595
H        2.59227359      -1.66326627       1.20553065
H        0.87203244      -1.30233746       1.73945596
H        0.89609646       1.20190717       1.07730011
H        2.13080700      -0.86007132      -1.05414312
H       -0.11093312      -0.77521000      -1.73936484
H       -1.11412487      -0.78177255       1.16568651
H       -2.07443748      -1.08479276      -0.27694755
H       -2.39960226       1.28654668      -0.65767839
H       -1.64178724       1.64676980       0.90320983
H       -0.14993260       1.72997784      -1.70485404
17
Frame=5 idx=011162 GeodesicLength=0.3683393697347306 rxn_smarts="[C:1]1([H:8])([H:9])[C@:2]2([H:10])[C@@:3]1([H:11])[C@:4]1([H:12])[C:5]([H:13])([H:14])[C:6]([H:15])([H:16])[C@:7]21[H:17]>>[C:1](=[C:3]([C@@:4]1([H:12])[C:5]([H:13])([H:14])[C:6]([H:15])([H:16])[C@:7]1([C:2][H:10])[H:17])[H:11])([H:8])[H:9]"
C        1.62569448      -1.18716506       0.98031841
C        1.06229205       1.04233444       0.00622517
C        1.38973981      -0.73479472      -0.28244007
C       -0.05333314      -0.35652408      -0.75252569
C       -1.29919304      -0.46194951       0.13437069
C       -1.53606691       1.06294609      -0.00808706
C       -0.18932711       1.20216807      -0.74283274
H        2.59098293      -1.61013946       1.22736863
H        0.85597206      -1.29487036       1.73506194
H        0.92789356       1.22961554       1.07518292
H        2.12538971      -0.88614734      -1.06150304
H       -0.12553294      -0.77019224      -1.75619989
H       -1.12523961      -0.80480416       1.15273034
H       -2.08514503      -1.08443325      -0.29316871
H       -2.39039706       1.29458843      -0.64474435
H       -1.62947289       1.62706237       0.92063260
H       -0.14425686       1.73230525      -1.69038915
17
Frame=6 idx=011162 GeodesicLength=0.44260403315270413 rxn_smarts="[C:1]1([H:8])([H:9])[C@:2]2([H:10])[C@@:3]1([H:11])[C@:4]1([H:12])[C:5]([H:13])([H:14])[C:6]([H:15])([H:16])[C@:7]21[H:17]>>[C:1](=[C:3]([C@@:4]1([H:12])[C:5]([H:13])([H:14])[C:6]([H:15])([H:16])[C@:7]1([C:2][H:10])[H:17])[H:11])([H:8])[H:9]"
C        1.61685752      -1.15638727       0.98651599
C        1.07490535       1.03130883       0.00837016
C        1.37882207      -0.75160710      -0.29531843
C       -0.05801439      -0.36783160      -0.76289405
C       -1.30383768      -0.47330317       0.12403031
C       -1.52823957       1.05491858       0.00169992
C       -0.18141270       1.19510492      -0.73320817
H        2.58727968      -1.55929010       1.24717500
H        0.84061355      -1.28569051       1.73141681
H        0.96113596       1.25922909       1.07111152
H        2.12014426      -0.91188423      -1.06707955
H       -0.13904421      -0.76491450      -1.77264142
H       -1.13648741      -0.82834585       1.13925467
H       -2.09554040      -1.08409769      -0.30992121
H       -2.38121418       1.30218084      -0.63095008
H       -1.61689760       1.60639259       0.93842443
H       -0.13907026       1.73421717      -1.67598589
17
Frame=7 idx=011162 GeodesicLength=0.5171108732582262 rxn_smarts="[C:1]1([H:8])([H:9])[C@:2]2([H:10])[C@@:3]1([H:11])[C@:4]1([H:12])[C:5]([H:13])([H:14])[C:6]([H:15])([H:16])[C@:7]21[H:17]>>[C:1](=[C:3]([C@@:4]1([H:12])[C:5]([H:13])([H:14])[C:6]([H:15])([H:16])[C@:7]1([C:2][H:10])[H:17])[H:11])([H:8])[H:9]"
C        1.60690637      -1.12592438       0.99218125
C        1.08740420       1.02104515       0.01041180
C        1.36804904      -0.76768660      -0.30677854
C       -0.06240695      -0.37898089      -0.77321094
C       -1.30844966      -0.48486801       0.11337092
C       -1.52034126       1.04635141       0.01188251
C       -0.17370207       1.18784334      -0.72362124
H        2.58147700      -1.51051868       1.26532914
H        0.82564244      -1.27475028       1.72847783
H        0.99589817       1.29052685       1.06487483
H        2.11505218      -0.93733635      -1.07095453
H       -0.15152558      -0.75936281      -1.78873997
H       -1.14788192      -0.85245210       1.12516723
H       -2.10567230      -1.08371446      -0.32726814
H       -2.37205449       1.30936797      -0.61616923
H       -1.60397221       1.58468748       0.95665667
H       -0.13442296       1.73577236      -1.66160958
17
Frame=8 idx=011162 GeodesicLength=0.5918763723945917 rxn_smarts="[C:1]1([H:8])([H:9])[C@:2]2([H:10])[C@@:3]1([H:11])[C@:4]1([H:12])[C:5]([H:13])([H:14])[C:6]([H:15])([H:16])[C@:7]21[H:17]>>[C:1](=[C:3]([C@@:4]1([H:12])[C:5]([H:13])([H:14])[C:6]([H:15])([H:16])[C@:7]1([C:2][H:10])[H:17])[H:11])([H:8])[H:9]"
C        1.59591150      -1.09575680       0.99738034
C        1.09980214       1.01156786       0.01235125
C        1.35742092      -0.78303274      -0.31690391
C       -0.06652174      -0.38995927      -0.78348716
C       -1.31303582      -0.49662705       0.10237463
C       -1.51236875       1.03723700       0.02249551
C       -0.16620287       1.18041583      -0.71405284
H        2.57372191      -1.46375441       1.28208066
H        0.81082737      -1.26204010       1.72618784
H        1.03222859       1.32329564       1.05626014
H        2.11011924      -0.96251997      -1.07317274
H       -0.16300778      -0.75352707      -1.80451459
H       -1.15940653      -0.87713833       1.11041664
H       -2.11555426      -1.08323757      -0.34522574
H       -2.36292976       1.31615416      -0.60032380
H       -1.59064918       1.56189985       0.97536758
H       -0.13035497       1.73702297      -1.64723382
17
Frame=9 idx=011162 GeodesicLength=0.6669810779007049 rxn_smarts="[C:1]1([H:8])([H:9])[C@:2]2([H:10])[C@@:3]1([H:11])[C@:4]1([H:12])[C:5]([H:13])([H:14])[C:6]([H:15])([H:16])[C@:7]21[H:17]>>[C:1](=[C:3]([C@@:4]1([H:12])[C:5]([H:13])([H:14])[C:6]([H:15])([H:16])[C@:7]1([C:2][H:10])[H:17])[H:11])([H:8])[H:9]"
C        1.58390614      -1.06574145       1.00228292
C        1.11219377       1.00282302       0.01402987
C        1.34690248      -0.79766144      -0.32584096
C       -0.07036567      -0.40077878      -0.79377970
C       -1.31762747      -0.50858546       0.09097928
C       -1.50420661       1.02754323       0.03365590
C       -0.15889116       1.17284314      -0.70446589
H        2.56407718      -1.41849801       1.29801618
H        0.79597723      -1.24756969       1.72436138
H        1.06995029       1.35704475       1.04492385
H        2.10530221      -0.98749809      -1.07382929
H       -0.17355934      -0.74739065      -1.82006220
H       -1.17106001      -0.90252394       1.09487467
H       -2.12529279      -1.08252877      -0.36388814
H       -2.35371743       1.32259980      -0.58314378
H       -1.57664658       1.53789651       0.99467957
H       -0.12694225       1.73802581      -1.63279366
17
Frame=10 idx=011162 GeodesicLength=0.7424144041530277 rxn_smarts="[C:1]1([H:8])([H:9])[C@:2]2([H:10])[C@@:3]1([H:11])[C@:4]1([H:12])[C:5]([H:13])([H:14])[C:6]([H:15])([H:16])[C@:7]21[H:17]>>[C:1](=[C:3]([C@@:4]1([H:12])[C:5]([H:13])([H:14])[C:6]([H:15])([H:16])[C@:7]1([C:2][H:10])[H:17])[H:11])([H:8])[H:9]"
C        1.57098287      -1.03596443       1.00683205
C        1.12451446       0.99486627       0.01559912
C        1.33652046      -0.81157567      -0.33362238
C       -0.07395349      -0.41140579      -0.80405561
C       -1.32220772      -0.52068085       0.07923875
C       -1.49594436       1.01728949       0.04528970
C       -0.15178321       1.16516396      -0.69485082
H        2.55283511      -1.37492673       1.31307429
H        0.78084567      -1.23142889       1.72299897
H        1.10919468       1.39169397       1.03086535
H        2.10063176      -1.01222763      -1.07293369
H       -0.18321357      -0.74094325      -1.83533048
H       -1.18278979      -0.92843984       1.07859826
H       -2.13482000      -1.08161285      -0.38312444
H       -2.34451151       1.32863336      -0.56477978
H       -1.56215636       1.51273363       1.01447833
H       -0.12414500       1.73882525      -1.61827762
17
Frame=11 idx=011162 GeodesicLength=0.8182215122850726 rxn_smarts="[C:1]1([H:8])([H:9])[C@:2]2([H:10])[C@@:3]1([H:11])[C@:4]1([H:12])[C:5]([H:13])([H:14])[C:6]([H:15])([H:16])[C@:7]21[H:17]>>[C:1](=[C:3]([C@@:4]1([H:12])[C:5]([H:13])([H:14])[C:6]([H:15])([H:16])[C@:7]1([C:2][H:10])[H:17])[H:11])([H:8])[H:9]"
C        1.55721050      -1.00639318       1.01106678
C        1.13677404       0.98768719       0.01706468
C        1.32627468      -0.82479074      -0.34033624
C       -0.07729472      -0.42183084      -0.81432112
C       -1.32677968      -0.53287845       0.06716602
C       -1.48757168       1.00647591       0.05739715
C       -0.14486520       1.15740629      -0.68518367
H        2.54013791      -1.33284986       1.32747314
H        0.76526724      -1.21370766       1.72200304
H        1.14989662       1.42693425       1.01398980
H        2.09609819      -1.03671155      -1.07054716
H       -0.19203009      -0.73417604      -1.85033896
H       -1.19455659      -0.95483051       1.06158016
H       -2.14414886      -1.08044199      -0.40288794
H       -2.33529220       1.33424129      -0.54520952
H       -1.54716153       1.48639908       1.03473099
H       -0.12195863       1.73946681      -1.60364715
17
Frame=12 idx=011162 GeodesicLength=0.8944361767188308 rxn_smarts="[C:1]1([H:8])([H:9])[C@:2]2([H:10])[C@@:3]1([H:11])[C@:4]1([H:12])[C:5]([H:13])([H:14])[C:6]([H:15])([H:16])[C@:7]21[H:17]>>[C:1](=[C:3]([C@@:4]1([H:12])[C:5]([H:13])([H:14])[C:6]([H:15])([H:16])[C@:7]1([C:2][H:10])[H:17])[H:11])([H:8])[H:9]"
C        1.54265219      -0.97700746       1.01501616
C        1.14898291       0.98128690       0.01845380
C        1.31616124      -0.83731274      -0.34605629
C       -0.08039665      -0.43203639      -0.82457078
C       -1.33133428      -0.54513105       0.05479132
C       -1.47909509       0.99511246       0.06995245
C       -0.13812323       1.14960340      -0.67544233
H        2.52610438      -1.29213760       1.34135487
H        0.74915246      -1.19452147       1.72127160
H        1.19194542       1.46245025       0.99424819
H        2.09169351      -1.06093973      -1.06671680
H       -0.20006426      -0.72707283      -1.86508611
H       -1.20630732      -0.98160297       1.04384567
H       -2.15327403      -1.07898812      -0.42309441
H       -2.32605328       1.33938960      -0.52447110
H       -1.53168586       1.45891495       1.05537263
H       -0.12035812       1.73999279      -1.58886889
17
Frame=13 idx=011162 GeodesicLength=0.9710991528551888 rxn_smarts="[C:1]1([H:8])([H:9])[C@:2]2([H:10])[C@@:3]1([H:11])[C@:4]1([H:12])[C:5]([H:13])([H:14])[C:6]([H:15])([H:16])[C@:7]21[H:17]>>[C:1](=[C:3]([C@@:4]1([H:12])[C:5]([H:13])([H:14])[C:6]([H:15])([H:16])[C@:7]1([C:2][H:10])[H:17])[H:11])([H:8])[H:9]"
C        1.52738059      -0.94779961       1.01868359
C        1.16114516       0.97565652       0.01981191
C        1.30617601      -0.84915584      -0.35085786
C       -0.08326889      -0.44200795      -0.83479157
C       -1.33585836      -0.55738853       0.04215504
C       -1.47052897       0.98321566       0.08291224
C       -0.13153760       1.14178400      -0.66560519
H        2.51086953      -1.25265187       1.35482592
H        0.73241652      -1.17400409       1.72071541
H        1.23521686       1.49791831       0.97165666
H        2.08739467      -1.08488012      -1.06150565
H       -0.20737915      -0.71961958      -1.87955919
H       -1.21797483      -1.00863657       1.02543972
H       -2.16218115      -1.07722677      -0.44364143
H       -2.31678766       1.34403434      -0.50263516
H       -1.51578497       1.43032544       1.07630727
H       -0.11929777       1.74043666      -1.57391173
17
Frame=14 idx=011162 GeodesicLength=1.0482520824294355 rxn_smarts="[C:1]1([H:8])([H:9])[C@:2]2([H:10])[C@@:3]1([H:11])[C@:4]1([H:12])[C:5]([H:13])([H:14])[C:6]([H:15])([H:16])[C@:7]21[H:17]>>[C:1](=[C:3]([C@@:4]1([H:12])[C:5]([H:13])([H:14])[C:6]([H:15])([H:16])[C@:7]1([C:2][H:10])[H:17])[H:11])([H:8])[H:9]"
C        1.51147082      -0.91875958       1.02208285
C        1.17325596       0.97078283       0.02120400
C        1.29631906      -0.86031917      -0.35480968
C       -0.08591512      -0.45172681      -0.84496660
C       -1.34033590      -0.56960210       0.02931010
C       -1.46189466       0.97080892       0.09621962
C       -0.12509117       1.13398039      -0.65564938
H        2.49452857      -1.21430195       1.36795765
H        0.71503140      -1.15230730       1.72022815
H        1.27956322       1.53302434       0.94622094
H        2.08319688      -1.10848992      -1.05496543
H       -0.21403185      -0.71179961      -1.89374116
H       -1.22949115      -1.03580451       1.00643206
H       -2.17085428      -1.07515407      -0.46441050
H       -2.30749530       1.34813325      -0.47980327
H       -1.49953258       1.40070041       1.09743561
H       -0.11872390       1.74083488      -1.55874497
17
Frame=15 idx=011162 GeodesicLength=1.1259347214103808 rxn_smarts="[C:1]1([H:8])([H:9])[C@:2]2([H:10])[C@@:3]1([H:11])[C@:4]1([H:12])[C:5]([H:13])([H:14])[C:6]([H:15])([H:16])[C@:7]21[H:17]>>[C:1](=[C:3]([C@@:4]1([H:12])[C:5]([H:13])([H:14])[C:6]([H:15])([H:16])[C@:7]1([C:2][H:10])[H:17])[H:11])([H:8])[H:9]"
C        1.49500181      -0.88989187       1.02521276
C        1.18530440       0.96664629       0.02270556
C        1.28659040      -0.87080956      -0.35798027
C       -0.08834309      -0.46117670      -0.85507447
C       -1.34474926      -0.58172147       0.01631266
C       -1.45321955       0.95792241       0.10980785
C       -0.11876525       1.12622172      -0.64555386
H        2.47720098      -1.17699661       1.38079523
H        0.69698350      -1.12959029       1.71972228
H        1.32483188       1.56746088       0.91799955
H        2.07908563      -1.13171248      -1.04716244
H       -0.22008439      -0.70359757      -1.90760680
H       -1.24078850      -1.06297083       0.98690514
H       -2.17927409      -1.07277107      -0.48527838
H       -2.29818024       1.35164354      -0.45610331
H       -1.48302404       1.37012686       1.11863914
H       -0.11857017       1.74121675      -1.54334067
17
Frame=16 idx=011162 GeodesicLength=1.204175607847138 rxn_smarts="[C:1]1([H:8])([H:9])[C@:2]2([H:10])[C@@:3]1([H:11])[C@:4]1([H:12])[C:5]([H:13])([H:14])[C:6]([H:15])([H:16])[C@:7]21[H:17]>>[C:1](=[C:3]([C@@:4]1([H:12])[C:5]([H:13])([H:14])[C:6]([H:15])([H:16])[C@:7]1([C:2][H:10])[H:17])[H:11])([H:8])[H:9]"
C        1.47805885      -0.86121355       1.02806821
C        1.19726996       0.96322481       0.02441091
C        1.27699204      -0.88063178      -0.36043449
C       -0.09055838      -0.47033982      -0.86508959
C       -1.34908144      -0.59370011       0.00322599
C       -1.44454150       0.94459547       0.12359649
C       -0.11254431       1.11853798      -0.63529796
H        2.45901105      -1.14066768       1.39335720
H        0.67829521      -1.10602368       1.71912071
H        1.37086845       1.60092780       0.88707011
H        2.07504812      -1.15447812      -1.03816842
H       -0.22559995      -0.69499691      -1.92112708
H       -1.25180405      -1.08999516       0.96696109
H       -2.18741967      -1.07009656      -0.50611841
H       -2.28885446       1.35452744      -0.43169444
H       -1.46637957       1.33871841       1.13979311
H       -0.11876036       1.74161146      -1.52767340
