12
Frame=0 idx=010551 GeodesicLength=0.0 rxn_smarts="[O:1]=[C:2]([C@@:3]1([H:9])[C:4]([H:10])([H:11])[N:5]=[C:6]([H:12])[O:7]1)[H:8]>>[O:1]([C@@:2]1([H:8])[C@@:3]2([H:9])[C:4]([H:10])=[N:5][C@:6]1([H:12])[O:7]2)[H:11]"
O       -1.53526174       0.30311704       1.17556889
C       -1.20866357      -0.36627174       0.14848895
C       -0.22297896       0.34187764      -0.80647095
C        0.68883546       1.00989138       0.20614904
N        1.37106534      -0.04127385       0.70551982
C        1.01629747      -1.09087705      -0.01540336
O        0.51183603      -0.76288503      -1.27622097
H       -1.81090134      -1.23356822      -0.10731946
H       -0.66261378       0.93476265      -1.60728391
H        1.06706287       2.02083290       0.25687752
H       -0.69047435       0.94806115       1.23647085
H        1.47579658      -2.06366682       0.08362362
12
Frame=1 idx=010551 GeodesicLength=0.07189975705346392 rxn_smarts="[O:1]=[C:2]([C@@:3]1([H:9])[C:4]([H:10])([H:11])[N:5]=[C:6]([H:12])[O:7]1)[H:8]>>[O:1]([C@@:2]1([H:8])[C@@:3]2([H:9])[C:4]([H:10])=[N:5][C@:6]1([H:12])[O:7]2)[H:11]"
O       -1.53905448       0.29360784       1.17801317
C       -1.20694615      -0.37152342       0.14779214
C       -0.22465592       0.34444114      -0.80598368
C        0.68625057       1.01246119       0.21017180
N        1.38008939      -0.03582799       0.70163864
C        1.00678633      -1.08979542      -0.00912926
O        0.51270824      -0.76158801      -1.27387825
H       -1.80802048      -1.23541209      -0.12326550
H       -0.66481356       0.93698089      -1.60634351
H        1.06938060       2.02248015       0.24399710
H       -0.67746967       0.94721096       1.24587351
H        1.46574512      -2.06303524       0.09111385
12
Frame=2 idx=010551 GeodesicLength=0.14377836753772175 rxn_smarts="[O:1]=[C:2]([C@@:3]1([H:9])[C:4]([H:10])([H:11])[N:5]=[C:6]([H:12])[O:7]1)[H:8]>>[O:1]([C@@:2]1([H:8])[C@@:3]2([H:9])[C:4]([H:10])=[N:5][C@:6]1([H:12])[O:7]2)[H:11]"
O       -1.54317086       0.28410492       1.18030744
C       -1.20528594      -0.37674828       0.14707750
C       -0.22636839       0.34698692      -0.80544807
C        0.68375179       1.01494955       0.21420901
N        1.38893323      -0.03053716       0.69767701
C        0.99743039      -1.08860166      -0.00294627
O        0.51349469      -0.76035095      -1.27149958
H       -1.80492349      -1.23721287      -0.13903149
H       -0.66698884       0.93920914      -1.60536832
H        1.07158477       2.02382900       0.23125277
H       -0.66428722       0.94666889       1.25524059
H        1.45582987      -2.06229751       0.09852938
12
Frame=3 idx=010551 GeodesicLength=0.21564587013816233 rxn_smarts="[O:1]=[C:2]([C@@:3]1([H:9])[C:4]([H:10])([H:11])[N:5]=[C:6]([H:12])[O:7]1)[H:8]>>[O:1]([C@@:2]1([H:8])[C@@:3]2([H:9])[C:4]([H:10])=[N:5][C@:6]1([H:12])[O:7]2)[H:11]"
O       -1.54761044       0.27457607       1.18245913
C       -1.20367530      -0.38195700       0.14634663
C       -0.22811699       0.34951749      -0.80486405
C        0.68134270       1.01736601       0.21825120
N        1.39760536      -0.02539060       0.69363807
C        0.98822874      -1.08729869       0.00314402
O        0.51420340      -0.75916403      -1.26909191
H       -1.80161648      -1.23897528      -0.15463592
H       -0.66914843       0.94145064      -1.60435431
H        1.07368027       2.02489856       0.21863774
H       -0.65091281       0.94644549       1.26457799
H        1.44601997      -2.06146867       0.10589140
12
Frame=4 idx=010551 GeodesicLength=0.2874924133849543 rxn_smarts="[O:1]=[C:2]([C@@:3]1([H:9])[C:4]([H:10])([H:11])[N:5]=[C:6]([H:12])[O:7]1)[H:8]>>[O:1]([C@@:2]1([H:8])[C@@:3]2([H:9])[C:4]([H:10])=[N:5][C@:6]1([H:12])[O:7]2)[H:11]"
O       -1.55240665       0.26504830       1.18443822
C       -1.20211358      -0.38714796       0.14560435
C       -0.22990553       0.35202678      -0.80423034
C        0.67902947       1.01970321       0.22228819
N        1.40610168      -0.02039409       0.68953498
C        0.97917379      -1.08590020       0.00914232
O        0.51482906      -0.75803105      -1.26665609
H       -1.79810322      -1.24070432      -0.17006108
H       -0.67129667       0.94369710      -1.60330004
H        1.07566554       2.02568935       0.20617855
H       -0.63732800       0.94655507       1.27388969
H        1.43635412      -2.06054219       0.11317126
12
Frame=5 idx=010551 GeodesicLength=0.35932567182940783 rxn_smarts="[O:1]=[C:2]([C@@:3]1([H:9])[C:4]([H:10])([H:11])[N:5]=[C:6]([H:12])[O:7]1)[H:8]>>[O:1]([C@@:2]1([H:8])[C@@:3]2([H:9])[C:4]([H:10])=[N:5][C@:6]1([H:12])[O:7]2)[H:11]"
O       -1.55757745       0.25551603       1.18624003
C       -1.20059330      -0.39232966       0.14485683
C       -0.23173483       0.35451563      -0.80354712
C        0.67681482       1.02196823       0.22631246
N        1.41442756      -0.01554199       0.68537406
C        0.97026350      -1.08441271       0.01504906
O        0.51537731      -0.75694675      -1.26419954
H       -1.79438516      -1.24240503      -0.18532230
H       -0.67344214       0.94594761      -1.60220543
H        1.07753930       2.02622079       0.19386991
H       -0.62350735       0.94699862       1.28319465
H        1.42681774      -2.05953077       0.12037738
12
Frame=6 idx=010551 GeodesicLength=0.4311484761518318 rxn_smarts="[O:1]=[C:2]([C@@:3]1([H:9])[C:4]([H:10])([H:11])[N:5]=[C:6]([H:12])[O:7]1)[H:8]>>[O:1]([C@@:2]1([H:8])[C@@:3]2([H:9])[C:4]([H:10])=[N:5][C@:6]1([H:12])[O:7]2)[H:11]"
O       -1.56313688       0.24596256       1.18785726
C       -1.19910937      -0.39750984       0.14410571
C       -0.23360686       0.35698415      -0.80281187
C        0.67469941       1.02416594       0.23031771
N        1.42259442      -0.01082353       0.68115474
C        0.96149628      -1.08283911       0.02086563
O        0.51585366      -0.75590464      -1.26172422
H       -1.79046791      -1.24407622      -0.20043707
H       -0.67559211       0.94820175      -1.60106457
H        1.07930231       2.02650703       0.18170147
H       -0.60942561       0.94777497       1.29251103
H        1.41739265      -2.05844306       0.12752418
12
Frame=7 idx=010551 GeodesicLength=0.5029639229013488 rxn_smarts="[O:1]=[C:2]([C@@:3]1([H:9])[C:4]([H:10])([H:11])[N:5]=[C:6]([H:12])[O:7]1)[H:8]>>[O:1]([C@@:2]1([H:8])[C@@:3]2([H:9])[C:4]([H:10])=[N:5][C@:6]1([H:12])[O:7]2)[H:11]"
O       -1.56910642       0.23637863       1.18927785
C       -1.19765627      -0.40269612       0.14335492
C       -0.23552427       0.35943215      -0.80202178
C        0.67268359       1.02630038       0.23429929
N        1.43060889      -0.00623224       0.67688148
C        0.95286871      -1.08118303       0.02659505
O        0.51626186      -0.75489877      -1.25923155
H       -1.78635543      -1.24571521      -0.21542149
H       -0.67775742       0.95045653      -1.59987249
H        1.08095998       2.02655781       0.16966193
H       -0.59505560       0.94888250       1.30185800
H        1.40807237      -2.05728264       0.13461878
12
Frame=8 idx=010551 GeodesicLength=0.5747738998084161 rxn_smarts="[O:1]=[C:2]([C@@:3]1([H:9])[C:4]([H:10])([H:11])[N:5]=[C:6]([H:12])[O:7]1)[H:8]>>[O:1]([C@@:2]1([H:8])[C@@:3]2([H:9])[C:4]([H:10])=[N:5][C@:6]1([H:12])[O:7]2)[H:11]"
O       -1.57551956       0.22677837       1.19047971
C       -1.19623448      -0.40789172       0.14260890
C       -0.23749183       0.36185736      -0.80117622
C        0.67077305       1.02837198       0.23825134
N        1.43846995      -0.00177470       0.67256992
C        0.94437637      -1.07945908       0.03223612
O        0.51660002      -0.75393141      -1.25672735
H       -1.78204880      -1.24733788      -0.23025980
H       -0.67994538       0.95271056      -1.59863063
H        1.08251862       2.02638505       0.15777198
H       -0.58038033       0.95034780       1.31123769
H        1.39888237      -2.05605633       0.14163833
12
Frame=9 idx=010551 GeodesicLength=0.6465752714660828 rxn_smarts="[O:1]=[C:2]([C@@:3]1([H:9])[C:4]([H:10])([H:11])[N:5]=[C:6]([H:12])[O:7]1)[H:8]>>[O:1]([C@@:2]1([H:8])[C@@:3]2([H:9])[C:4]([H:10])=[N:5][C@:6]1([H:12])[O:7]2)[H:11]"
O       -1.58242183       0.21717704       1.19142492
C       -1.19483596      -0.41309914       0.14187471
C       -0.23950765       0.36425895      -0.80027025
C        0.66896660       1.03037682       0.24216710
N        1.44618249       0.00255811       0.66821055
C        0.93601557      -1.07766571       0.03778824
O        0.51687274      -0.75299123      -1.25421210
H       -1.77753339      -1.24894920      -0.24494941
H       -0.68215303       0.95496071      -1.59732841
H        1.08396497       2.02599439       0.14601699
H       -0.56535198       0.95214110       1.32068779
H        1.38980146      -2.05476185       0.14858988
12
Frame=10 idx=010551 GeodesicLength=0.7183416438888027 rxn_smarts="[O:1]=[C:2]([C@@:3]1([H:9])[C:4]([H:10])([H:11])[N:5]=[C:6]([H:12])[O:7]1)[H:8]>>[O:1]([C@@:2]1([H:8])[C@@:3]2([H:9])[C:4]([H:10])=[N:5][C@:6]1([H:12])[O:7]2)[H:11]"
O       -1.58981786       0.20754004       1.19212374
C       -1.19345975      -0.41832880       0.14115747
C       -0.24157662       0.36663409      -0.79929831
C        0.66726467       1.03231627       0.24604250
N        1.45373599       0.00675867       0.66382660
C        0.92777368      -1.07581053       0.04325532
O        0.51708046      -0.75207424      -1.25168386
H       -1.77282863      -1.25054056      -0.25949731
H       -0.68438909       0.95719885      -1.59596238
H        1.08533168       2.02537940       0.13440119
H       -0.54997746       0.95431595       1.33018416
H        1.38086294      -2.05338914       0.15545088
12
Frame=11 idx=010551 GeodesicLength=0.7901064358915404 rxn_smarts="[O:1]=[C:2]([C@@:3]1([H:9])[C:4]([H:10])([H:11])[N:5]=[C:6]([H:12])[O:7]1)[H:8]>>[O:1]([C@@:2]1([H:8])[C@@:3]2([H:9])[C:4]([H:10])=[N:5][C@:6]1([H:12])[O:7]2)[H:11]"
O       -1.59776235       0.19789346       1.19253551
C       -1.19210584      -0.42358597       0.14046119
C       -0.24370519       0.36898434      -0.79825967
C        0.66567110       1.03419825       0.24987761
N        1.46115131       0.01083396       0.65941829
C        0.91965805      -1.07390682       0.04863558
O        0.51722281      -0.75118330      -1.24915103
H       -1.76792667      -1.25213402      -0.27390555
H       -0.68666668       0.95943321      -1.59453230
H        1.08660765       2.02457215       0.12292142
H       -0.53420345       0.95685910       1.33976953
H        1.37205926      -2.05196436       0.16222942
12
Frame=12 idx=010551 GeodesicLength=0.8618357070593459 rxn_smarts="[O:1]=[C:2]([C@@:3]1([H:9])[C:4]([H:10])([H:11])[N:5]=[C:6]([H:12])[O:7]1)[H:8]>>[O:1]([C@@:2]1([H:8])[C@@:3]2([H:9])[C:4]([H:10])=[N:5][C@:6]1([H:12])[O:7]2)[H:11]"
O       -1.60627488       0.18821372       1.19263996
C       -1.19076929      -0.42887655       0.13978456
C       -0.24589502       0.37130884      -0.79714800
C        0.66418081       1.03602335       0.25367009
N        1.46843858       0.01479256       0.65497502
C        0.91166279      -1.07194647       0.05393774
O        0.51730619      -0.75030771      -1.24660962
H       -1.76282914      -1.25372083      -0.28818826
H       -0.68899023       0.96166202      -1.59302439
H        1.08779778       2.02356655       0.11155296
H       -0.51800074       0.95976488       1.34947063
H        1.36337313      -2.05048036       0.16893931
12
Frame=13 idx=010551 GeodesicLength=0.9336338581115722 rxn_smarts="[O:1]=[C:2]([C@@:3]1([H:9])[C:4]([H:10])([H:11])[N:5]=[C:6]([H:12])[O:7]1)[H:8]>>[O:1]([C@@:2]1([H:8])[C@@:3]2([H:9])[C:4]([H:10])=[N:5][C@:6]1([H:12])[O:7]2)[H:11]"
O       -1.61541620       0.17849150       1.19240335
C       -1.18944708      -0.43420923       0.13913877
C       -0.24815188       0.37360994      -0.79595548
C        0.66279635       1.03779544       0.25741555
N        1.47560440       0.01864334       0.65050366
C        0.90378697      -1.06993687       0.05915696
O        0.51732850      -0.74944052      -1.24405962
H       -1.75752558      -1.25531169      -0.30235258
H       -0.69137100       0.96388187      -1.59143424
H        1.08890126       2.02238274       0.10029398
H       -0.50129716       0.96304036       1.35930350
H        1.35479142      -2.04894687       0.17558613
12
Frame=14 idx=010551 GeodesicLength=1.0054079468563544 rxn_smarts="[O:1]=[C:2]([C@@:3]1([H:9])[C:4]([H:10])([H:11])[N:5]=[C:6]([H:12])[O:7]1)[H:8]>>[O:1]([C@@:2]1([H:8])[C@@:3]2([H:9])[C:4]([H:10])=[N:5][C@:6]1([H:12])[O:7]2)[H:11]"
O       -1.62521350       0.16873685       1.19180105
C       -1.18813879      -0.43958665       0.13852626
C       -0.25047753       0.37588440      -0.79468121
C        0.66151818       1.03951425       0.26111098
N        1.48265291       0.02238103       0.64600379
C        0.89602569      -1.06788327       0.06429755
O        0.51729072      -0.74858275      -1.24150473
H       -1.75201719      -1.25691542      -0.31638254
H       -0.69380963       0.96609052      -1.58976101
H        1.08992051       2.02102311       0.08915578
H       -0.48408157       0.96670212       1.36928222
H        1.34633019      -2.04736421       0.18215184
12
Frame=15 idx=010551 GeodesicLength=1.077164883742575 rxn_smarts="[O:1]=[C:2]([C@@:3]1([H:9])[C:4]([H:10])([H:11])[N:5]=[C:6]([H:12])[O:7]1)[H:8]>>[O:1]([C@@:2]1([H:8])[C@@:3]2([H:9])[C:4]([H:10])=[N:5][C@:6]1([H:12])[O:7]2)[H:11]"
O       -1.63572593       0.15896223       1.19078644
C       -1.18684304      -0.44501343       0.13795726
C       -0.25287743       0.37812995      -0.79331743
C        0.66034674       1.04117685       0.26475562
N        1.48958592       0.02600307       0.64148201
C        0.88837613      -1.06579395       0.06935971
O        0.51718946      -0.74773189      -1.23894441
H       -1.74629920      -1.25854420      -0.33026230
H       -0.69631177       0.96828384      -1.58799805
H        1.09085919       2.01949270       0.07814490
H       -0.46630938       0.97076767       1.37942165
H        1.33800931      -2.04573284       0.18861460
12
Frame=16 idx=010551 GeodesicLength=1.1489079856067945 rxn_smarts="[O:1]=[C:2]([C@@:3]1([H:9])[C:4]([H:10])([H:11])[N:5]=[C:6]([H:12])[O:7]1)[H:8]>>[O:1]([C@@:2]1([H:8])[C@@:3]2([H:9])[C:4]([H:10])=[N:5][C@:6]1([H:12])[O:7]2)[H:11]"
O       -1.64701448       0.14917652       1.18931158
C       -1.18555869      -0.45049471       0.13744268
C       -0.25535713       0.38034445      -0.79185585
C        0.65928223       1.04278127       0.26834918
N        1.49640697       0.02950754       0.63694292
C        0.88083579      -1.06367627       0.07434425
O        0.51702167      -0.74688543      -1.23637823
H       -1.74036702      -1.26021016      -0.34397743
H       -0.69888316       0.97045809      -1.58613828
H        1.09172084       2.01779697       0.06726624
H       -0.44793335       0.97525579       1.38973863
H        1.32984632      -2.04405406       0.19495431
