19
Frame=0 idx=011858 GeodesicLength=0.0 rxn_smarts="[C:1]([C:2]([C@@:3]1([H:13])[C:4]([H:14])([H:15])[C@:5]1([C:6]([H:16])([H:17])[H:18])[O:7][H:19])([H:11])[H:12])([H:8])([H:9])[H:10]>>[C:1]([C:2]([C@@:3]1([H:13])[C:4]([H:14])([H:15])[C:5]1)([H:11])[H:12])([H:8])([H:9])[H:10].[C:6]([O:7][H:19])([H:16])([H:17])[H:18]"
C        2.35730265      -0.18927029       0.75943552
C        1.69222419      -0.44448650      -0.58728002
C        0.44848951       0.38809485      -0.77237214
C       -0.69355983      -0.04438939      -1.65103134
C       -0.83838121      -0.06642502      -0.16395612
C       -2.40600454      -0.24304741       1.14677722
O       -1.71812810       1.14469519       0.26794809
H        3.24916831      -0.80433204       0.89391824
H        1.66222501      -0.41572086       1.57133029
H        2.65772510       0.85753803       0.85794512
H        1.42137084      -1.50101131      -0.66852042
H        2.39679025      -0.24200288      -1.40070365
H        0.62110559       1.46495422      -0.76411898
H       -0.64107916      -1.00077546      -2.16064934
H       -1.20440503       0.73318658      -2.20831109
H       -2.87397587      -0.92803731       0.45622471
H       -3.13670575       0.42782928       1.61090108
H       -1.78331319      -0.74819719       1.86954583
H       -1.21084878       1.61139746       0.94291707
19
Frame=1 idx=011858 GeodesicLength=0.03396499786051331 rxn_smarts="[C:1]([C:2]([C@@:3]1([H:13])[C:4]([H:14])([H:15])[C@:5]1([C:6]([H:16])([H:17])[H:18])[O:7][H:19])([H:11])[H:12])([H:8])([H:9])[H:10]>>[C:1]([C:2]([C@@:3]1([H:13])[C:4]([H:14])([H:15])[C:5]1)([H:11])[H:12])([H:8])([H:9])[H:10].[C:6]([O:7][H:19])([H:16])([H:17])[H:18]"
C        2.36010154      -0.18156804       0.75960074
C        1.68934698      -0.44821721      -0.58216731
C        0.45041121       0.38995615      -0.77480310
C       -0.69591815      -0.04579249      -1.64605569
C       -0.83536748      -0.05477671      -0.15858927
C       -2.40041446      -0.24737266       1.13243647
O       -1.71506148       1.15628802       0.27131917
H        3.24947398      -0.79940970       0.89764383
H        1.66645579      -0.39601592       1.57599612
H        2.66548921       0.86483674       0.84600573
H        1.41251863      -1.50414730      -0.65045343
H        2.39276241      -0.25876521      -1.39972850
H        0.62553909       1.46609247      -0.77191682
H       -0.64895456      -1.00725351      -2.14648413
H       -1.20912473       0.72817894      -2.20591175
H       -2.89352459      -0.90156813       0.42875699
H       -3.11465060       0.41386359       1.63427432
H       -1.78896962      -0.79086070       1.83791640
H       -1.21011317       1.61653168       0.95216024
19
Frame=2 idx=011858 GeodesicLength=0.06809869182806248 rxn_smarts="[C:1]([C:2]([C@@:3]1([H:13])[C:4]([H:14])([H:15])[C@:5]1([C:6]([H:16])([H:17])[H:18])[O:7][H:19])([H:11])[H:12])([H:8])([H:9])[H:10]>>[C:1]([C:2]([C@@:3]1([H:13])[C:4]([H:14])([H:15])[C:5]1)([H:11])[H:12])([H:8])([H:9])[H:10].[C:6]([O:7][H:19])([H:16])([H:17])[H:18]"
C        2.36284104      -0.17385507       0.75978404
C        1.68635005      -0.45196039      -0.57686658
C        0.45225379       0.39170848      -0.77721191
C       -0.69830813      -0.04717536      -1.64109705
C       -0.83242839      -0.04317089      -0.15336677
C       -2.39462788      -0.25159394       1.11818803
O       -1.71207475       1.16778030       0.27471624
H        3.24966182      -0.79449556       0.90150958
H        1.67068138      -0.37608279       1.58057667
H        2.67325720       0.87197808       0.83393831
H        1.40354356      -1.50711103      -0.63208692
H        2.38854505      -0.27569973      -1.39843039
H        0.62989258       1.46709443      -0.77969359
H       -0.65685815      -1.01360308      -2.13227178
H       -1.21389870       0.72322044      -2.20343284
H       -2.91263548      -0.87402248       0.40277893
H       -3.09168989       0.39843863       1.65724476
H       -1.79498024      -0.83309593       1.80441142
H       -1.20952485       1.62164588       0.96130986
19
Frame=3 idx=011858 GeodesicLength=0.10247507657844776 rxn_smarts="[C:1]([C:2]([C@@:3]1([H:13])[C:4]([H:14])([H:15])[C@:5]1([C:6]([H:16])([H:17])[H:18])[O:7][H:19])([H:11])[H:12])([H:8])([H:9])[H:10]>>[C:1]([C:2]([C@@:3]1([H:13])[C:4]([H:14])([H:15])[C:5]1)([H:11])[H:12])([H:8])([H:9])[H:10].[C:6]([O:7][H:19])([H:16])([H:17])[H:18]"
C        2.36562935      -0.16602855       0.75991356
C        1.68322806      -0.45574903      -0.57134228
C        0.45403291       0.39332832      -0.77955079
C       -0.70072533      -0.04854698      -1.63607343
C       -0.82953306      -0.03162176      -0.14820497
C       -2.38878568      -0.25576177       1.10390463
O       -1.70906459       1.17917328       0.27828559
H        3.24979668      -0.78952411       0.90547094
H        1.67506803      -0.35563005       1.58508371
H        2.68122923       0.87903382       0.82147449
H        1.39440443      -1.50991967      -0.61322593
H        2.38406531      -0.29296943      -1.39685156
H        0.63418957       1.46792754      -0.78743097
H       -0.66481155      -1.01983596      -2.11790623
H       -1.21874372       0.71829571      -2.20076224
H       -2.93144501      -0.84525552       0.37807256
H       -3.06788368       0.38149049       1.67969805
H       -1.80166254      -0.87498865       1.76883017
H       -1.20898842       1.62658233       0.97061471
19
Frame=4 idx=011858 GeodesicLength=0.1370283017922031 rxn_smarts="[C:1]([C:2]([C@@:3]1([H:13])[C:4]([H:14])([H:15])[C@:5]1([C:6]([H:16])([H:17])[H:18])[O:7][H:19])([H:11])[H:12])([H:8])([H:9])[H:10]>>[C:1]([C:2]([C@@:3]1([H:13])[C:4]([H:14])([H:15])[C:5]1)([H:11])[H:12])([H:8])([H:9])[H:10].[C:6]([O:7][H:19])([H:16])([H:17])[H:18]"
C        2.36830333      -0.15823829       0.76008769
C        1.67998303      -0.45952667      -0.56563664
C        0.45572699       0.39484317      -0.78187969
C       -0.70315996      -0.04989735      -1.63110832
C       -0.82672365      -0.02012391      -0.14322513
C       -2.38269434      -0.25983755       1.08974839
O       -1.70617327       1.19044128       0.28181627
H        3.24977488      -0.78457473       0.90959361
H        1.67938161      -0.33507243       1.58947901
H        2.68910505       0.88587278       0.80898868
H        1.38516206      -1.51251871      -0.59414036
H        2.37941139      -0.31033409      -1.39491092
H        0.63839243       1.46862539      -0.79513969
H       -0.67276599      -1.02592738      -2.10354820
H       -1.22361206       0.71342293      -2.19806792
H       -2.94978862      -0.81564417       0.35516793
H       -3.04308979       0.36309851       1.70165129
H       -1.80859095      -0.91612835       1.73138631
H       -1.20864216       1.63151956       0.97973767
19
Frame=5 idx=011858 GeodesicLength=0.17184185807416422 rxn_smarts="[C:1]([C:2]([C@@:3]1([H:13])[C:4]([H:14])([H:15])[C@:5]1([C:6]([H:16])([H:17])[H:18])[O:7][H:19])([H:11])[H:12])([H:8])([H:9])[H:10]>>[C:1]([C:2]([C@@:3]1([H:13])[C:4]([H:14])([H:15])[C:5]1)([H:11])[H:12])([H:8])([H:9])[H:10].[C:6]([O:7][H:19])([H:16])([H:17])[H:18]"
C        2.37099023      -0.15037195       0.76023409
C        1.67661721      -0.46333320      -0.55970729
C        0.45735289       0.39623069      -0.78414937
C       -0.70561357      -0.05123907      -1.62612124
C       -0.82397670      -0.00869559      -0.13834691
C       -2.37651629      -0.26387733       1.07557343
O       -1.70330405       1.20159424       0.28546164
H        3.24968310      -0.77957821       0.91383631
H        1.68380691      -0.31409757       1.59377425
H        2.69710806       0.89258314       0.79620102
H        1.37577791      -1.51493947      -0.57462090
H        2.37452120      -0.32797231      -1.39264227
H        0.64252892       1.46916561      -0.80280623
H       -0.68074672      -1.03190101      -2.08909668
H       -1.22853425       0.70858918      -2.19523609
H       -2.96782018      -0.78503188       0.33382262
H       -3.01734657       0.34318879       1.72302259
H       -1.81613618      -0.95661846       1.69186279
H       -1.20839192       1.63630440       0.98893824
19
Frame=6 idx=011858 GeodesicLength=0.2068264236560812 rxn_smarts="[C:1]([C:2]([C@@:3]1([H:13])[C:4]([H:14])([H:15])[C@:5]1([C:6]([H:16])([H:17])[H:18])[O:7][H:19])([H:11])[H:12])([H:8])([H:9])[H:10]>>[C:1]([C:2]([C@@:3]1([H:13])[C:4]([H:14])([H:15])[C:5]1)([H:11])[H:12])([H:8])([H:9])[H:10].[C:6]([O:7][H:19])([H:16])([H:17])[H:18]"
C        2.37351112      -0.14259026       0.76044623
C        1.67312278      -0.46712040      -0.55360591
C        0.45889691       0.39753017      -0.78643066
C       -0.70806649      -0.05253224      -1.62124558
C       -0.82133184       0.00268845      -0.13369873
C       -2.37004968      -0.26785567       1.06156777
O       -1.70061310       1.21260940       0.28901000
H        3.24937468      -0.77465914       0.91827453
H        1.68807799      -0.29309643       1.59793899
H        2.70496033       0.89901719       0.78346358
H        1.36628557      -1.51713635      -0.55493424
H        2.36948049      -0.34566878      -1.38998709
H        0.64657744       1.46959012      -0.81044121
H       -0.68870110      -1.03770238      -2.07471897
H       -1.23344443       0.70384554      -2.19243986
H       -2.98531134      -0.75387300       0.31456400
H       -2.99059739       0.32180071       1.74376088
H       -1.82378348      -0.99596808       1.65059952
H       -1.20838845       1.64112117       0.99787676
19
Frame=7 idx=011858 GeodesicLength=0.24211593508878532 rxn_smarts="[C:1]([C:2]([C@@:3]1([H:13])[C:4]([H:14])([H:15])[C@:5]1([C:6]([H:16])([H:17])[H:18])[O:7][H:19])([H:11])[H:12])([H:8])([H:9])[H:10]>>[C:1]([C:2]([C@@:3]1([H:13])[C:4]([H:14])([H:15])[C:5]1)([H:11])[H:12])([H:8])([H:9])[H:10].[C:6]([O:7][H:19])([H:16])([H:17])[H:18]"
C        2.37604385      -0.13474362       0.76063683
C        1.66951328      -0.47091988      -0.54728142
C        0.46037201       0.39869720      -0.78864485
C       -0.71053162      -0.05383147      -1.61636058
C       -0.81875344       0.01398177      -0.12915944
C       -2.36352271      -0.27181007       1.04750587
O       -1.69794008       1.22349008       0.29265910
H        3.24900369      -0.76968016       0.92283358
H        1.69246651      -0.27172295       1.60198312
H        2.71291990       0.90529836       0.77046619
H        1.35666974      -1.51912812      -0.53484822
H        2.36420614      -0.36358901      -1.38698213
H        0.65055473       1.46985096      -0.81801701
H       -0.69667386      -1.04339660      -2.06026646
H       -1.23840526       0.69912101      -2.18952060
H       -3.00254040      -0.72191413       0.29703370
H       -2.96282662       0.29892098       1.76377512
H       -1.83207399      -1.03437089       1.60728568
H       -1.20848186       1.64574656       1.00690151
19
Frame=8 idx=011858 GeodesicLength=0.27759585983200646 rxn_smarts="[C:1]([C:2]([C@@:3]1([H:13])[C:4]([H:14])([H:15])[C@:5]1([C:6]([H:16])([H:17])[H:18])[O:7][H:19])([H:11])[H:12])([H:8])([H:9])[H:10]>>[C:1]([C:2]([C@@:3]1([H:13])[C:4]([H:14])([H:15])[C:5]1)([H:11])[H:12])([H:8])([H:9])[H:10].[C:6]([O:7][H:19])([H:16])([H:17])[H:18]"
C        2.37836375      -0.12701988       0.76090727
C        1.66576832      -0.47468960      -0.54079296
C        0.46176483       0.39978217      -0.79087854
C       -0.71297587      -0.05506636      -1.61162598
C       -0.81629112       0.02522455      -0.12488924
C       -2.35668689      -0.27572124       1.03362022
O       -1.69548389       1.23421222       0.29615947
H        3.24836879      -0.76480667       0.92760304
H        1.69663831      -0.25040347       1.60587626
H        2.72066425       0.91125548       0.75758560
H        1.34694581      -1.52087749      -0.51465249
H        2.35879394      -0.38152917      -1.38356828
H        0.65444209       1.46999884      -0.82554374
H       -0.70458587      -1.04889140      -2.04594592
H       -1.24331321       0.69451031      -2.18667988
H       -3.01920528      -0.68970202       0.28183382
H       -2.93398970       0.27458076       1.78301433
H       -1.84035363      -1.07126129       1.56237179
H       -1.20886462       1.65040426       1.01560522
19
Frame=9 idx=011858 GeodesicLength=0.31339265002015027 rxn_smarts="[C:1]([C:2]([C@@:3]1([H:13])[C:4]([H:14])([H:15])[C@:5]1([C:6]([H:16])([H:17])[H:18])[O:7][H:19])([H:11])[H:12])([H:8])([H:9])[H:10]>>[C:1]([C:2]([C@@:3]1([H:13])[C:4]([H:14])([H:15])[C:5]1)([H:11])[H:12])([H:8])([H:9])[H:10].[C:6]([O:7][H:19])([H:16])([H:17])[H:18]"
C        2.38062137      -0.11929086       0.76119501
C        1.66189379      -0.47846530      -0.53408958
C        0.46309090       0.40075786      -0.79308110
C       -0.71541134      -0.05626322      -1.60696695
C       -0.81391950       0.03639311      -0.12080391
C       -2.34972202      -0.27961793       1.01974710
O       -1.69312212       1.24479341       0.29966999
H        3.24758206      -0.75994717       0.93255768
H        1.70081362      -0.22879853       1.60963870
H        2.72844633       0.91698627       0.74454221
H        1.33707694      -1.52240720      -0.49412160
H        2.35317265      -0.39966389      -1.37977090
H        0.65826577       1.47000933      -0.83301482
H       -0.71248389      -1.05422614      -2.03166219
H       -1.24821651       0.68998623      -2.18381598
H       -3.03553734      -0.65705830       0.26871657
H       -2.90410218       0.24871495       1.80137926
H       -1.84903371      -1.10683112       1.51561327
H       -1.20941481       1.65492850       1.02426722
19
Frame=10 idx=011858 GeodesicLength=0.34961914421266427 rxn_smarts="[C:1]([C:2]([C@@:3]1([H:13])[C:4]([H:14])([H:15])[C@:5]1([C:6]([H:16])([H:17])[H:18])[O:7][H:19])([H:11])[H:12])([H:8])([H:9])[H:10]>>[C:1]([C:2]([C@@:3]1([H:13])[C:4]([H:14])([H:15])[C:5]1)([H:11])[H:12])([H:8])([H:9])[H:10].[C:6]([O:7][H:19])([H:16])([H:17])[H:18]"
C        2.38296038      -0.11143836       0.76142909
C        1.65789375      -0.48227788      -0.52711917
C        0.46435394       0.40158814      -0.79518639
C       -0.71784842      -0.05745799      -1.60230290
C       -0.81162747       0.04744241      -0.11681413
C       -2.34281243      -0.28353887       1.00571330
O       -1.69075674       1.25522111       0.30336063
H        3.24676144      -0.75500308       0.93764963
H        1.70521453      -0.20659724       1.61327326
H        2.73648792       0.92256911       0.73106545
H        1.32703975      -1.52372796      -0.47304008
H        2.34726549      -0.41815605      -1.37560812
H        0.66202644       1.46984687      -0.84039636
H       -0.72039443      -1.05944420      -2.01732194
H       -1.25316322       0.68551029      -2.18081598
H       -3.05166826      -0.62376609       0.25736737
H       -2.87317428       0.22127888       1.81877558
H       -1.85850282      -1.14117674       1.46680209
H       -1.21005559       1.65912764       1.03316869
19
Frame=11 idx=011858 GeodesicLength=0.3862036920889075 rxn_smarts="[C:1]([C:2]([C@@:3]1([H:13])[C:4]([H:14])([H:15])[C@:5]1([C:6]([H:16])([H:17])[H:18])[O:7][H:19])([H:11])[H:12])([H:8])([H:9])[H:10]>>[C:1]([C:2]([C@@:3]1([H:13])[C:4]([H:14])([H:15])[C:5]1)([H:11])[H:12])([H:8])([H:9])[H:10].[C:6]([O:7][H:19])([H:16])([H:17])[H:18]"
C        2.38513542      -0.10365462       0.76172007
C        1.65374498      -0.48608315      -0.51994004
C        0.46554543       0.40232621      -0.79729200
C       -0.72024707      -0.05857873      -1.59780038
C       -0.80945541       0.05842708      -0.11309813
C       -2.33568324      -0.28744487       0.99175895
O       -1.68856906       1.26548986       0.30694626
H        3.24568054      -0.75014271       0.94298648
H        1.70947974      -0.18423788       1.61674284
H        2.74444036       0.92782817       0.71755584
H        1.31685068      -1.52479793      -0.45171106
H        2.34117035      -0.43678711      -1.37100334
H        0.66571386       1.46956071      -0.84770865
H       -0.72823583      -1.06445143      -2.00313508
H       -1.25803827       0.68117450      -2.17788953
H       -3.06741983      -0.59040681       0.24851355
H       -2.84109514       0.19230397       1.83515147
H       -1.86807258      -1.17377365       1.41634088
H       -1.21094493       1.66324840       1.04186186
19
Frame=12 idx=011858 GeodesicLength=0.42327514765748137 rxn_smarts="[C:1]([C:2]([C@@:3]1([H:13])[C:4]([H:14])([H:15])[C@:5]1([C:6]([H:16])([H:17])[H:18])[O:7][H:19])([H:11])[H:12])([H:8])([H:9])[H:10]>>[C:1]([C:2]([C@@:3]1([H:13])[C:4]([H:14])([H:15])[C:5]1)([H:11])[H:12])([H:8])([H:9])[H:10].[C:6]([O:7][H:19])([H:16])([H:17])[H:18]"
C        2.38742382      -0.09580112       0.76202312
C        1.64946823      -0.48996301      -0.51249481
C        0.46665837       0.40297068      -0.79934686
C       -0.72268651      -0.05963363      -1.59344105
C       -0.80738746       0.06933412      -0.10953497
C       -2.32854785      -0.29140638       0.97768433
O       -1.68643023       1.27572906       0.31068290
H        3.24457737      -0.74533541       0.94859010
H        1.71400532      -0.16126948       1.62013067
H        2.75272054       0.93288746       0.70367803
H        1.30648713      -1.52572445      -0.42985099
H        2.33477785      -0.45584776      -1.36603296
H        0.66932476       1.46921393      -0.85493140
H       -0.73613479      -1.06933380      -1.98909453
H       -1.26300803       0.67702351      -2.17499850
H       -3.08290553      -0.55702479       0.24179424
H       -2.80812891       0.16166898       1.85014533
H       -1.87825853      -1.20468356       1.36414457
H       -1.21195556       1.66719563       1.05085278
19
Frame=13 idx=011858 GeodesicLength=0.46098553759846 rxn_smarts="[C:1]([C:2]([C@@:3]1([H:13])[C:4]([H:14])([H:15])[C@:5]1([C:6]([H:16])([H:17])[H:18])[O:7][H:19])([H:11])[H:12])([H:8])([H:9])[H:10]>>[C:1]([C:2]([C@@:3]1([H:13])[C:4]([H:14])([H:15])[C:5]1)([H:11])[H:12])([H:8])([H:9])[H:10].[C:6]([O:7][H:19])([H:16])([H:17])[H:18]"
C        2.38973869      -0.08773736       0.76217783
C        1.64504640      -0.49383058      -0.50471651
C        0.46773609       0.40339046      -0.80123914
C       -0.72503662      -0.06075768      -1.58895824
C       -0.80539978       0.08003053      -0.10604908
C       -2.32162057      -0.29531514       0.96332613
O       -1.68421004       1.28563080       0.31463382
H        3.24334837      -0.74025725       0.95426946
H        1.71872290      -0.13755319       1.62322960
H        2.76121331       0.93775439       0.68918700
H        1.29593202      -1.52627470      -0.40731378
H        2.32807121      -0.47525208      -1.36056855
H        0.67290240       1.46853081      -0.86204558
H       -0.74393871      -1.07408032      -1.97484628
H       -1.26790340       0.67277848      -2.17181045
H       -3.09829299      -0.52265682       0.23692267
H       -2.77380587       0.12937257       1.86417558
H       -1.88947755      -1.23426030       1.30957713
H       -1.21302587       1.67048739       1.06004841
19
Frame=14 idx=011858 GeodesicLength=0.49929871995071357 rxn_smarts="[C:1]([C:2]([C@@:3]1([H:13])[C:4]([H:14])([H:15])[C@:5]1([C:6]([H:16])([H:17])[H:18])[O:7][H:19])([H:11])[H:12])([H:8])([H:9])[H:10]>>[C:1]([C:2]([C@@:3]1([H:13])[C:4]([H:14])([H:15])[C:5]1)([H:11])[H:12])([H:8])([H:9])[H:10].[C:6]([O:7][H:19])([H:16])([H:17])[H:18]"
C        2.39204949      -0.07959397       0.76229142
C        1.64047626      -0.49771601      -0.49664547
C        0.46876368       0.40367233      -0.80306210
C       -0.72734036      -0.06185090      -1.58455024
C       -0.80351771       0.09061248      -0.10274512
C       -2.31469902      -0.29920784       0.94884532
O       -1.68200584       1.29536026       0.31868391
H        3.24195908      -0.73512792       0.96017455
H        1.72356208      -0.11325740       1.62610021
H        2.76989106       0.94233726       0.67430172
H        1.28518125      -1.52653398      -0.38423837
H        2.32107899      -0.49500344      -1.35462389
H        0.67644183       1.46766827      -0.86907500
H       -0.75169383      -1.07865971      -1.96064181
H       -1.27275426       0.66861990      -2.16856911
H       -3.11343274      -0.48814969       0.23454337
H       -2.73837539       0.09526348       1.87672715
H       -1.90136989      -1.26186225       1.25311074
H       -1.21421468       1.67342913       1.06937270
19
Frame=15 idx=011858 GeodesicLength=0.5381587691059816 rxn_smarts="[C:1]([C:2]([C@@:3]1([H:13])[C:4]([H:14])([H:15])[C@:5]1([C:6]([H:16])([H:17])[H:18])[O:7][H:19])([H:11])[H:12])([H:8])([H:9])[H:10]>>[C:1]([C:2]([C@@:3]1([H:13])[C:4]([H:14])([H:15])[C:5]1)([H:11])[H:12])([H:8])([H:9])[H:10].[C:6]([O:7][H:19])([H:16])([H:17])[H:18]"
C        2.39428727      -0.07150322       0.76245315
C        1.63576595      -0.50160466      -0.48834151
C        0.46971452       0.40385751      -0.80486845
C       -0.72963143      -0.06289098      -1.58033648
C       -0.80177173       0.10110346      -0.09969472
C       -2.30768541      -0.30306923       0.93434911
O       -1.67994870       1.30496593       0.32269628
H        3.24039934      -0.73006101       0.96634894
H        1.72841344      -0.08871862       1.62877649
H        2.77858832       0.94656448       0.65932640
H        1.27428157      -1.52653328      -0.36085683
H        2.31385982      -0.51494822      -1.34821169
H        0.67990157       1.46670510      -0.87602178
H       -0.75940786      -1.08307596      -1.94664730
H       -1.27758211       0.66460360      -2.16544330
H       -3.12813246      -0.45397541       0.23478486
H       -2.70187573       0.05957581       1.88769089
H       -1.91354112      -1.28720949       1.19534037
H       -1.21563525       1.67621420       1.07865558
19
Frame=16 idx=011858 GeodesicLength=0.5775143876133372 rxn_smarts="[C:1]([C:2]([C@@:3]1([H:13])[C:4]([H:14])([H:15])[C@:5]1([C:6]([H:16])([H:17])[H:18])[O:7][H:19])([H:11])[H:12])([H:8])([H:9])[H:10]>>[C:1]([C:2]([C@@:3]1([H:13])[C:4]([H:14])([H:15])[C:5]1)([H:11])[H:12])([H:8])([H:9])[H:10].[C:6]([O:7][H:19])([H:16])([H:17])[H:18]"
C        2.39634424      -0.06354556       0.76267549
C        1.63090936      -0.50545242      -0.47985421
C        0.47059898       0.40395881      -0.80667872
C       -0.73187494      -0.06387052      -1.57632922
C       -0.80016289       0.11151054      -0.09693284
C       -2.30052413      -0.30686409       0.91991643
O       -1.67807425       1.31441260       0.32656464
H        3.23857732      -0.72508677       0.97275230
H        1.73312438      -0.06419446       1.63121798
H        2.78713620       0.95037009       0.64443220
H        1.26323946      -1.52622797      -0.33734407
H        2.30645981      -0.53491769      -1.34133102
H        0.68330195       1.46563596      -0.88288904
H       -0.76704002      -1.08729638      -1.93287988
H       -1.28230284       0.66072083      -2.16246603
H       -3.14224511      -0.42043593       0.23778017
H       -2.66433357       0.02248992       1.89695315
H       -1.92580072      -1.31008937       1.13668729
H       -1.21733324       1.67888241       1.08772536
