11
Frame=0 idx=011505 GeodesicLength=0.0 rxn_smarts="[N:1](=[c:2]1/[c:3]([H:9])[n:4][c:5]([H:10])[c:6]([H:11])[o:7]1)\[H:8]>>[N:1]1([H:8])[C:2][C@:3]1(/[N:4]=[C:5](\[C:6](=[O:7])[H:11])[H:10])[H:9]"
N        1.59690458       0.03317850      -0.16478109
C        1.88352857      -0.39726899       1.00945597
C        0.85088659      -1.14950735       0.11514370
N       -0.51024918      -1.16890296       0.47751849
C       -1.30265756      -0.19746647       0.35862745
C       -1.07884589       1.15540240      -0.28004135
O       -0.62060965       2.11548320       0.27080462
H        1.79032649       0.80310181      -0.78752106
H        1.17034118      -2.06889371      -0.35997350
H       -2.33475018      -0.34729313       0.68919898
H       -1.44487499       1.22216666      -1.32843219
11
Frame=1 idx=011505 GeodesicLength=0.12146334653132715 rxn_smarts="[N:1](=[c:2]1/[c:3]([H:9])[n:4][c:5]([H:10])[c:6]([H:11])[o:7]1)\[H:8]>>[N:1]1([H:8])[C:2][C@:3]1(/[N:4]=[C:5](\[C:6](=[O:7])[H:11])[H:10])[H:9]"
N        1.62695603       0.01984838      -0.19496560
C        1.82298717      -0.33185739       1.02182388
C        0.85258348      -1.15641975       0.12519400
N       -0.51888610      -1.18990771       0.41863545
C       -1.30927994      -0.20942958       0.32798912
C       -1.08291673       1.15407289      -0.26582353
O       -0.54497707       2.09163867       0.25987954
H        1.84405217       0.78284948      -0.81854310
H        1.21214342      -2.09547556      -0.27825904
H       -2.33882093      -0.36717075       0.66160273
H       -1.56384148       1.30185132      -1.25753343
11
Frame=2 idx=011505 GeodesicLength=0.2408369304134185 rxn_smarts="[N:1](=[c:2]1/[c:3]([H:9])[n:4][c:5]([H:10])[c:6]([H:11])[o:7]1)\[H:8]>>[N:1]1([H:8])[C:2][C@:3]1(/[N:4]=[C:5](\[C:6](=[O:7])[H:11])[H:10])[H:9]"
N        1.65909131       0.00685457      -0.21877258
C        1.76484169      -0.27196452       1.02638758
C        0.85298489      -1.16183021       0.13452549
N       -0.52517743      -1.20799204       0.36084267
C       -1.31558102      -0.22090456       0.29657962
C       -1.08862640       1.15069594      -0.25628946
O       -0.47629731       2.06673022       0.23403216
H        1.90219003       0.76264789      -0.84177528
H        1.24622481      -2.11503603      -0.19916832
H       -2.34186534      -0.38764692       0.63456874
H       -1.67778523       1.37844565      -1.17093061
11
Frame=3 idx=011505 GeodesicLength=0.35853470507338203 rxn_smarts="[N:1](=[c:2]1/[c:3]([H:9])[n:4][c:5]([H:10])[c:6]([H:11])[o:7]1)\[H:8]>>[N:1]1([H:8])[C:2][C@:3]1(/[N:4]=[C:5](\[C:6](=[O:7])[H:11])[H:10])[H:9]"
N        1.69330742      -0.00549063      -0.23633344
C        1.70883999      -0.21714234       1.02501812
C        0.85203947      -1.16573890       0.14303343
N       -0.52966083      -1.22329902       0.30326697
C       -1.32138687      -0.23101427       0.26713847
C       -1.09637728       1.14604118      -0.25090791
O       -0.41285794       2.04211006       0.19006439
H        1.96611528       0.74254088      -0.85675251
H        1.27289491      -2.12840903      -0.12425665
H       -2.34508491      -0.40936885       0.60576384
H       -1.78782924       1.44977091      -1.06603472
11
Frame=4 idx=011505 GeodesicLength=0.4754612524413016 rxn_smarts="[N:1](=[c:2]1/[c:3]([H:9])[n:4][c:5]([H:10])[c:6]([H:11])[o:7]1)\[H:8]>>[N:1]1([H:8])[C:2][C@:3]1(/[N:4]=[C:5](\[C:6](=[O:7])[H:11])[H:10])[H:9]"
N        1.72826077      -0.01710114      -0.25107713
C        1.65531806      -0.16360467       1.01623134
C        0.84946742      -1.16724238       0.15138614
N       -0.53234113      -1.23559122       0.24856991
C       -1.32786121      -0.24092546       0.23920641
C       -1.10806101       1.14123301      -0.24389329
O       -0.35383133       2.01606218       0.13100781
H        2.03233422       0.72164904      -0.86835414
H        1.29252930      -2.13639036      -0.04907243
H       -2.35095836      -0.43581218       0.56906094
H       -1.88485673       1.51772320      -0.94306557
11
Frame=5 idx=011505 GeodesicLength=0.5905281949311081 rxn_smarts="[N:1](=[c:2]1/[c:3]([H:9])[n:4][c:5]([H:10])[c:6]([H:11])[o:7]1)\[H:8]>>[N:1]1([H:8])[C:2][C@:3]1(/[N:4]=[C:5](\[C:6](=[O:7])[H:11])[H:10])[H:9]"
N        1.76391236      -0.02813305      -0.26260801
C        1.60458890      -0.11093570       1.00129043
C        0.84572913      -1.16694612       0.16078683
N       -0.53344246      -1.24547964       0.19743325
C       -1.33484257      -0.25051035       0.21173921
C       -1.12169344       1.13605299      -0.23756185
O       -0.30087884       1.98864826       0.05327356
H        2.10168256       0.69942713      -0.87601625
H        1.30628570      -2.13950890       0.02587662
H       -2.35994482      -0.46537548       0.52157407
H       -1.97139651       1.58276085      -0.79578786
11
Frame=6 idx=011505 GeodesicLength=0.7028164072595305 rxn_smarts="[N:1](=[c:2]1/[c:3]([H:9])[n:4][c:5]([H:10])[c:6]([H:11])[o:7]1)\[H:8]>>[N:1]1([H:8])[C:2][C@:3]1(/[N:4]=[C:5](\[C:6](=[O:7])[H:11])[H:10])[H:9]"
N        1.79875947      -0.03814751      -0.27255294
C        1.55651534      -0.05725794       0.97946679
C        0.84045944      -1.16432618       0.17193182
N       -0.53347616      -1.25351335       0.15222030
C       -1.34327679      -0.26056683       0.18438844
C       -1.13733065       1.13100331      -0.22732391
O       -0.25562588       1.95833178      -0.04314445
H        2.17082469       0.67632741      -0.88188089
H        1.31475984      -2.13731373       0.10224562
H       -2.37308757      -0.49842945       0.45833913
H       -2.03852174       1.64389250      -0.62368991
11
Frame=7 idx=011505 GeodesicLength=0.8120268163164795 rxn_smarts="[N:1](=[c:2]1/[c:3]([H:9])[n:4][c:5]([H:10])[c:6]([H:11])[o:7]1)\[H:8]>>[N:1]1([H:8])[C:2][C@:3]1(/[N:4]=[C:5](\[C:6](=[O:7])[H:11])[H:10])[H:9]"
N        1.83194348      -0.04674499      -0.28081302
C        1.50898201      -0.00020886       0.95076907
C        0.83350984      -1.15886407       0.18623784
N       -0.53289267      -1.26119369       0.11311419
C       -1.35458081      -0.27288768       0.15068129
C       -1.15477444       1.12598913      -0.21066414
O       -0.22127198       1.92160502      -0.16505253
H        2.23934470       0.65230826      -0.88578627
H        1.31930875      -2.12884215       0.18250768
H       -2.38996145      -0.53367406       0.37696760
H       -2.07960742       1.70251310      -0.41796170
11
Frame=8 idx=011505 GeodesicLength=0.9176567678939781 rxn_smarts="[N:1](=[c:2]1/[c:3]([H:9])[n:4][c:5]([H:10])[c:6]([H:11])[o:7]1)\[H:8]>>[N:1]1([H:8])[C:2][C@:3]1(/[N:4]=[C:5](\[C:6](=[O:7])[H:11])[H:10])[H:9]"
N        1.86039343      -0.05218385      -0.28922351
C        1.46220450       0.05983927       0.91451627
C        0.82405202      -1.15016920       0.20405343
N       -0.53318810      -1.27007652       0.08774882
C       -1.36957876      -0.28834167       0.10668432
C       -1.17048705       1.11946119      -0.18547429
O       -0.20467887       1.87551198      -0.30046466
H        2.29954015       0.63143933      -0.89004574
H        1.32059162      -2.11280650       0.26517324
H       -2.41036458      -0.56704522       0.27772141
H       -2.07848436       1.75437119      -0.19068929
11
Frame=9 idx=011505 GeodesicLength=1.022706861563223 rxn_smarts="[N:1](=[c:2]1/[c:3]([H:9])[n:4][c:5]([H:10])[c:6]([H:11])[o:7]1)\[H:8]>>[N:1]1([H:8])[C:2][C@:3]1(/[N:4]=[C:5](\[C:6](=[O:7])[H:11])[H:10])[H:9]"
N        1.88245382      -0.05368506      -0.29878505
C        1.41703889       0.11906756       0.87184411
C        0.81156087      -1.13911036       0.22398785
N       -0.53654974      -1.27986403       0.07927940
C       -1.38645442      -0.30410356       0.05968566
C       -1.18209609       1.10927259      -0.16219634
O       -0.20816000       1.82463853      -0.42566503
H        2.34688401       0.61737225      -0.89523907
H        1.31897654      -2.09040326       0.34472882
H       -2.43216052      -0.59310145       0.16813093
H       -2.03149334       1.78991679       0.03422871
11
Frame=10 idx=011505 GeodesicLength=1.1304927694674645 rxn_smarts="[N:1](=[c:2]1/[c:3]([H:9])[n:4][c:5]([H:10])[c:6]([H:11])[o:7]1)\[H:8]>>[N:1]1([H:8])[C:2][C@:3]1(/[N:4]=[C:5](\[C:6](=[O:7])[H:11])[H:10])[H:9]"
N        1.89874010      -0.05116983      -0.30916353
C        1.37363664       0.17373755       0.82539910
C        0.79597492      -1.12651953       0.24344555
N       -0.54391424      -1.28887816       0.08340281
C       -1.40429218      -0.31781490       0.02304313
C       -1.19361450       1.09587676      -0.14926285
O       -0.22458136       1.77460637      -0.52757000
H        2.38285024       0.61143219      -0.89997581
H        1.31438489      -2.06372159       0.41653918
H       -2.45283013      -0.61216720       0.05688526
H       -1.94635437       1.80461836       0.23725719
11
Frame=11 idx=011505 GeodesicLength=1.2412120472379324 rxn_smarts="[N:1](=[c:2]1/[c:3]([H:9])[n:4][c:5]([H:10])[c:6]([H:11])[o:7]1)\[H:8]>>[N:1]1([H:8])[C:2][C@:3]1(/[N:4]=[C:5](\[C:6](=[O:7])[H:11])[H:10])[H:9]"
N        1.91103654      -0.04572794      -0.31957271
C        1.33186680       0.22169042       0.77732033
C        0.77801522      -1.11363453       0.26072407
N       -0.55428092      -1.29636760       0.09300319
C       -1.42276697      -0.32913980      -0.00385681
C       -1.20609257       1.08257946      -0.13760675
O       -0.24731703       1.72780967      -0.60737853
H        2.41122832       0.61229550      -0.90254355
H        1.30723824      -2.03494152       0.47989439
H       -2.46943045      -0.62566547      -0.04649010
H       -1.83949720       1.80110180       0.40650647
11
Frame=12 idx=011505 GeodesicLength=1.354608119100529 rxn_smarts="[N:1](=[c:2]1/[c:3]([H:9])[n:4][c:5]([H:10])[c:6]([H:11])[o:7]1)\[H:8]>>[N:1]1([H:8])[C:2][C@:3]1(/[N:4]=[C:5](\[C:6](=[O:7])[H:11])[H:10])[H:9]"
N        1.92141942      -0.03891016      -0.33049377
C        1.29253991       0.26304864       0.72794877
C        0.75877228      -1.10139562       0.27590969
N       -0.56665870      -1.30253111       0.10606344
C       -1.44144070      -0.33821494      -0.02392842
C       -1.21889504       1.07084072      -0.12205053
O       -0.27320981       1.68494162      -0.66894686
H        2.43498236       0.61789948      -0.90384425
H        1.29816357      -2.00551585       0.53758959
H       -2.48126063      -0.63476454      -0.14262835
H       -1.72441266       1.78460176       0.54438069
11
Frame=13 idx=011505 GeodesicLength=1.469934383595399 rxn_smarts="[N:1](=[c:2]1/[c:3]([H:9])[n:4][c:5]([H:10])[c:6]([H:11])[o:7]1)\[H:8]>>[N:1]1([H:8])[C:2][C@:3]1(/[N:4]=[C:5](\[C:6](=[O:7])[H:11])[H:10])[H:9]"
N        1.93109476      -0.03083415      -0.34121038
C        1.25557754       0.29743198       0.67837781
C        0.73896273      -1.09035299       0.28796771
N       -0.58031872      -1.30787331       0.12038115
C       -1.46106439      -0.34538888      -0.03241615
C       -1.23151134       1.05992836      -0.10111461
O       -0.30132939       1.64219371      -0.71857923
H        2.45724260       0.62846782      -0.90081846
H        1.28826433      -1.97680268       0.58664037
H       -2.48815135      -0.64011044      -0.23168590
H       -1.60876677       1.76334057       0.65245769
11
Frame=14 idx=011505 GeodesicLength=1.5869515832729588 rxn_smarts="[N:1](=[c:2]1/[c:3]([H:9])[n:4][c:5]([H:10])[c:6]([H:11])[o:7]1)\[H:8]>>[N:1]1([H:8])[C:2][C@:3]1(/[N:4]=[C:5](\[C:6](=[O:7])[H:11])[H:10])[H:9]"
N        1.94037053      -0.02116701      -0.35094482
C        1.22008894       0.32531125       0.62937924
C        0.71871872      -1.08077101       0.29668071
N       -0.59492639      -1.31286945       0.13473345
C       -1.48222659      -0.35128131      -0.02970587
C       -1.24349318       1.04931863      -0.07650275
O       -0.33109515       1.59710975      -0.76103758
H        2.47919260       0.64438097      -0.89127530
H        1.27815088      -1.94972327       0.62576267
H       -2.49006341      -0.64171981      -0.31229323
H       -1.49471694       1.74141126       0.73520348
11
Frame=15 idx=011505 GeodesicLength=1.705028091473148 rxn_smarts="[N:1](=[c:2]1/[c:3]([H:9])[n:4][c:5]([H:10])[c:6]([H:11])[o:7]1)\[H:8]>>[N:1]1([H:8])[C:2][C@:3]1(/[N:4]=[C:5](\[C:6](=[O:7])[H:11])[H:10])[H:9]"
N        1.94948421      -0.01066218      -0.36068742
C        1.18632457       0.34786648       0.58036335
C        0.69834664      -1.07293142       0.30352614
N       -0.61031095      -1.31763465       0.15089691
C       -1.50368835      -0.35599048      -0.02382557
C       -1.25386832       1.03950174      -0.04982022
O       -0.36129611       1.55304995      -0.79625103
H        2.50101778       0.66368437      -0.87754641
H        1.26812220      -1.92475189       0.65841585
H       -2.48788127      -0.63972752      -0.38374870
H       -1.38625040       1.71759561       0.79867710
11
Frame=16 idx=011505 GeodesicLength=1.8234913745041565 rxn_smarts="[N:1](=[c:2]1/[c:3]([H:9])[n:4][c:5]([H:10])[c:6]([H:11])[o:7]1)\[H:8]>>[N:1]1([H:8])[C:2][C@:3]1(/[N:4]=[C:5](\[C:6](=[O:7])[H:11])[H:10])[H:9]"
N        1.95867150      -0.00002383      -0.37090687
C        1.15449292       0.36582787       0.53046978
C        0.67804080      -1.06651559       0.30927982
N       -0.62597593      -1.32194138       0.16778743
C       -1.52433820      -0.35954304      -0.01835112
C       -1.26201776       1.03032837      -0.02236788
O       -0.39101071       1.51167000      -0.82488562
H        2.52251308       0.68488222      -0.86061363
H        1.25800507      -1.90102826       0.68756595
H       -2.48315823      -0.63459040      -0.44556596
H       -1.28522253       1.69093404       0.84758807
