14
Frame=0 idx=002451 GeodesicLength=0.0 rxn_smarts="[C:1]([C:2]([N:3]([C:4]([C:5]#[N:6])([H:13])[H:14])[H:12])([H:10])[H:11])([H:7])([H:8])[H:9]>>[C:1]([N:6]=[C:5]1[C:2]([H:10])([H:11])[N:3]([H:12])[C:4]1([H:13])[H:14])([H:7])([H:8])[H:9]"
C        1.38650264      -0.50627799       1.01896202
C        0.29899152       1.13441544      -0.36827891
N       -0.43084791       0.37570388      -1.18963653
C       -1.62728694      -0.23204301      -0.66332059
C       -1.30983518      -0.84482739       0.68501261
N       -0.34056355      -0.80158240       1.40370814
H        1.79890201      -0.67896405       0.02267486
H        1.63553774      -1.36473713       1.63315747
H        1.81915983       0.37991903       1.47682362
H       -0.23291062       1.78463878       0.31481931
H        1.29668000       1.40005842      -0.68034867
H        0.11443243      -0.21925019      -1.79952834
H       -2.02477019      -0.96119228      -1.36526635
H       -2.38399180       0.53413888      -0.48877864
14
Frame=1 idx=002451 GeodesicLength=0.09316631085002249 rxn_smarts="[C:1]([C:2]([N:3]([C:4]([C:5]#[N:6])([H:13])[H:14])[H:12])([H:10])[H:11])([H:7])([H:8])[H:9]>>[C:1]([N:6]=[C:5]1[C:2]([H:10])([H:11])[N:3]([H:12])[C:4]1([H:13])[H:14])([H:7])([H:8])[H:9]"
C        1.39487331      -0.51321421       1.01213082
C        0.28819709       1.12805654      -0.34711009
N       -0.43497810       0.38312022      -1.19773312
C       -1.62828129      -0.23212211      -0.67242731
C       -1.31684925      -0.77786139       0.70248041
N       -0.35464843      -0.79432822       1.42927479
H        1.80493186      -0.69778133       0.01671338
H        1.64135544      -1.37780085       1.62009183
H        1.85736258       0.35757130       1.47129976
H       -0.23807336       1.78897238       0.33109658
H        1.27511975       1.42237846      -0.67040333
H        0.11334780      -0.21409409      -1.80236101
H       -1.99721168      -0.99523745      -1.35397103
H       -2.40514572       0.52234077      -0.53908168
14
Frame=2 idx=002451 GeodesicLength=0.1862979473813985 rxn_smarts="[C:1]([C:2]([N:3]([C:4]([C:5]#[N:6])([H:13])[H:14])[H:12])([H:10])[H:11])([H:7])([H:8])[H:9]>>[C:1]([N:6]=[C:5]1[C:2]([H:10])([H:11])[N:3]([H:12])[C:4]1([H:13])[H:14])([H:7])([H:8])[H:9]"
C        1.40216862      -0.51969146       1.00569025
C        0.27811692       1.12194144      -0.32739699
N       -0.43934696       0.39139862      -1.20613657
C       -1.62831724      -0.23260184      -0.68041154
C       -1.32103771      -0.71273046       0.71690564
N       -0.37064994      -0.78777385       1.45350556
H        1.81051179      -0.71682571       0.01165497
H        1.64536987      -1.38985506       1.60838517
H        1.89323951       0.33536843       1.46563844
H       -0.24142448       1.79392400       0.34623985
H        1.25390496       1.44374831      -0.66106063
H        0.11115987      -0.20727270      -1.80706185
H       -1.96928036      -1.02737413      -1.34042002
H       -2.42441485       0.50774443      -0.58553226
14
Frame=3 idx=002451 GeodesicLength=0.2794422538690585 rxn_smarts="[C:1]([C:2]([N:3]([C:4]([C:5]#[N:6])([H:13])[H:14])[H:12])([H:10])[H:11])([H:7])([H:8])[H:9]>>[C:1]([N:6]=[C:5]1[C:2]([H:10])([H:11])[N:3]([H:12])[C:4]1([H:13])[H:14])([H:7])([H:8])[H:9]"
C        1.40854890      -0.52565913       0.99967701
C        0.26874581       1.11608538      -0.30912323
N       -0.44398952       0.40046067      -1.21482450
C       -1.62746376      -0.23348372      -0.68737410
C       -1.32245056      -0.65040411       0.72826162
N       -0.38865145      -0.78124847       1.47664217
H        1.81564122      -0.73619882       0.00752803
H        1.64763789      -1.40082885       1.59817288
H        1.92715281       0.31336960       1.45984123
H       -0.24305488       1.79930922       0.36035865
H        1.23308993       1.46418871      -0.65245677
H        0.10792277      -0.19885686      -1.81357464
H       -1.94115561      -1.05729345      -1.32537889
H       -2.44197355       0.49055984      -0.62774946
14
Frame=4 idx=002451 GeodesicLength=0.3726231876581965 rxn_smarts="[C:1]([C:2]([N:3]([C:4]([C:5]#[N:6])([H:13])[H:14])[H:12])([H:10])[H:11])([H:7])([H:8])[H:9]>>[C:1]([N:6]=[C:5]1[C:2]([H:10])([H:11])[N:3]([H:12])[C:4]1([H:13])[H:14])([H:7])([H:8])[H:9]"
C        1.41419762      -0.53111105       0.99406255
C        0.26004305       1.11050152      -0.29220097
N       -0.44892043       0.41022744      -1.22374155
C       -1.62579559      -0.23475008      -0.69344517
C       -1.32133754      -0.59142874       0.73673542
N       -0.40861404      -0.77419910       1.49894424
H        1.82031596      -0.75600250       0.00429036
H        1.64828740      -1.41071604       1.58946668
H        1.95946733       0.29156442       1.45385188
H       -0.24312886       1.80493800       0.37361915
H        1.21266555       1.48378459      -0.64462794
H        0.10372663      -0.18895423      -1.82173766
H       -1.91289268      -1.08490867      -1.30950160
H       -2.45801440       0.47105444      -0.66571540
14
Frame=5 idx=002451 GeodesicLength=0.4658525585458841 rxn_smarts="[C:1]([C:2]([N:3]([C:4]([C:5]#[N:6])([H:13])[H:14])[H:12])([H:10])[H:11])([H:7])([H:8])[H:9]>>[C:1]([N:6]=[C:5]1[C:2]([H:10])([H:11])[N:3]([H:12])[C:4]1([H:13])[H:14])([H:7])([H:8])[H:9]"
C        1.41929221      -0.53606977       0.98877929
C        0.25195301       1.10520033      -0.27650807
N       -0.45414454       0.42062809      -1.23282040
C       -1.62338364      -0.23637850      -0.69875983
C       -1.31803477      -0.53602019       0.74262545
N       -0.43044244      -0.76620011       1.52065372
H        1.82452788      -0.77633091       0.00186247
H        1.64747375      -1.41954855       1.58220063
H        1.99051521       0.26989559       1.44758903
H       -0.24184086       1.81063999       0.38620260
H        1.19258939       1.50265336      -0.63754416
H        0.09867039      -0.17767879      -1.83134764
H       -1.88446217      -1.11028310      -1.29330106
H       -2.47271340       0.44949257      -0.69963203
14
Frame=6 idx=002451 GeodesicLength=0.5591248094597732 rxn_smarts="[C:1]([C:2]([N:3]([C:4]([C:5]#[N:6])([H:13])[H:14])[H:12])([H:10])[H:11])([H:7])([H:8])[H:9]>>[C:1]([N:6]=[C:5]1[C:2]([H:10])([H:11])[N:3]([H:12])[C:4]1([H:13])[H:14])([H:7])([H:8])[H:9]"
C        1.42399086      -0.54057306       0.98374153
C        0.24441932       1.10018750      -0.26191519
N       -0.45966351       0.43160302      -1.24199366
C       -1.62028887      -0.23834186      -0.70343816
C       -1.31289868      -0.48415269       0.74627552
N       -0.45402077      -0.75698014       1.54194667
H        1.82827359      -0.79725564       0.00015565
H        1.64536268      -1.42737244       1.57626848
H        2.02055910       0.24828625       1.44097582
H       -0.23938037       1.81627411       0.39828100
H        1.17280390       1.52091685      -0.63114781
H        0.09284321      -0.16514202      -1.84219254
H       -1.85579038      -1.13356348      -1.27713349
H       -2.48621007       0.42611358      -0.72982380
14
Frame=7 idx=002451 GeodesicLength=0.6524371623613783 rxn_smarts="[C:1]([C:2]([N:3]([C:4]([C:5]#[N:6])([H:13])[H:14])[H:12])([H:10])[H:11])([H:7])([H:8])[H:9]>>[C:1]([N:6]=[C:5]1[C:2]([H:10])([H:11])[N:3]([H:12])[C:4]1([H:13])[H:14])([H:7])([H:8])[H:9]"
C        1.42842945      -0.54466465       0.97886032
C        0.23739180       1.09546484      -0.24830054
N       -0.46548213       0.44310497      -1.25120095
C       -1.61656148      -0.24061481      -0.70758080
C       -1.30625232      -0.43566819       0.74802117
N       -0.47924716      -0.74636974       1.56294201
H        1.83155255      -0.81883321      -0.00091261
H        1.64211010      -1.43423513       1.57155282
H        2.04980469       0.22665237       1.43394883
H       -0.23591756       1.82173215       0.41000280
H        1.15325065       1.53868677      -0.62537058
H        0.08631505      -0.15144046      -1.85407836
H       -1.82678277      -1.15492769      -1.26123837
H       -2.49861086       0.40111279      -0.75664575
14
Frame=8 idx=002451 GeodesicLength=0.7457729026047628 rxn_smarts="[C:1]([C:2]([N:3]([C:4]([C:5]#[N:6])([H:13])[H:14])[H:12])([H:10])[H:11])([H:7])([H:8])[H:9]>>[C:1]([N:6]=[C:5]1[C:2]([H:10])([H:11])[N:3]([H:12])[C:4]1([H:13])[H:14])([H:7])([H:8])[H:9]"
C        1.43271709      -0.54838683       0.97404677
C        0.23083332       1.09102966      -0.23555721
N       -0.47160769       0.45509829      -1.26038571
C       -1.61223764      -0.24317162      -0.71126271
C       -1.29837229      -0.39032905       0.74816761
N       -0.50604199      -0.73430131       1.58368485
H        1.83436146      -0.84109872      -0.00141011
H        1.63785208      -1.44017400       1.56793373
H        2.07838916       0.20491879       1.42646051
H       -0.23158512       1.82693267       0.42148865
H        1.13387863       1.55605568      -0.62014849
H        0.07913187      -0.13665479      -1.86682765
H       -1.79733535      -1.17455710      -1.24574668
H       -2.50998354       0.37463832      -0.78044354
14
Frame=9 idx=002451 GeodesicLength=0.8391401324013958 rxn_smarts="[C:1]([C:2]([N:3]([C:4]([C:5]#[N:6])([H:13])[H:14])[H:12])([H:10])[H:11])([H:7])([H:8])[H:9]>>[C:1]([N:6]=[C:5]1[C:2]([H:10])([H:11])[N:3]([H:12])[C:4]1([H:13])[H:14])([H:7])([H:8])[H:9]"
C        1.43696055      -0.55178199       0.96922691
C        0.22470701       1.08687253      -0.22359175
N       -0.47805332       0.46754589      -1.26950888
C       -1.60735317      -0.24599144      -0.71455149
C       -1.28947858      -0.34791857       0.74698013
N       -0.53435345      -0.72071214       1.60420862
H        1.83671685      -0.86408494      -0.00138804
H        1.63272170      -1.44521970       1.56531551
H        2.10644058       0.18300931       1.41848333
H       -0.22651489       1.83181332       0.43283743
H        1.11463145       1.57310779      -0.61542038
H        0.07132735      -0.12086419      -1.88030076
H       -1.76737631      -1.19260354      -1.23076848
H       -2.52037575       0.34682768      -0.80152216
14
Frame=10 idx=002451 GeodesicLength=0.9326017592652308 rxn_smarts="[C:1]([C:2]([N:3]([C:4]([C:5]#[N:6])([H:13])[H:14])[H:12])([H:10])[H:11])([H:7])([H:8])[H:9]>>[C:1]([N:6]=[C:5]1[C:2]([H:10])([H:11])[N:3]([H:12])[C:4]1([H:13])[H:14])([H:7])([H:8])[H:9]"
C        1.44125930      -0.55489121       0.96433990
C        0.21900936       1.08298706      -0.21232002
N       -0.48485580       0.48045237      -1.27854420
C       -1.60195175      -0.24905388      -0.71750067
C       -1.27978356      -0.30812686       0.74470307
N       -0.56417707      -0.70564222       1.62449012
H        1.83861336      -0.88784204      -0.00088764
H        1.62684382      -1.44937468       1.56364092
H        2.13407423       0.16086034       1.40999918
H       -0.22076543       1.83633840       0.44415222
H        1.09550775       1.58989595      -0.61113810
H        0.06289479      -0.10407359      -1.89442404
H       -1.73679018      -1.20923114      -1.21632742
H       -2.52987881       0.31770151      -0.82018333
14
Frame=11 idx=002451 GeodesicLength=1.0259242403910975 rxn_smarts="[C:1]([C:2]([N:3]([C:4]([C:5]#[N:6])([H:13])[H:14])[H:12])([H:10])[H:11])([H:7])([H:8])[H:9]>>[C:1]([N:6]=[C:5]1[C:2]([H:10])([H:11])[N:3]([H:12])[C:4]1([H:13])[H:14])([H:7])([H:8])[H:9]"
C        1.44560048      -0.55774437       0.95925109
C        0.21369014       1.07935205      -0.20167694
N       -0.49198059       0.49375397      -1.28738131
C       -1.59594458      -0.25236680      -0.72009749
C       -1.26931998      -0.27087740       0.74148699
N       -0.59547807      -0.68895761       1.64446907
H        1.83997707      -0.91234689       0.00006878
H        1.62018675      -1.45265908       1.56271774
H        2.16124019       0.13839526       1.40090968
H       -0.21445115       1.84045235       0.45541629
H        1.07636765       1.60650544      -0.60722123
H        0.05386100      -0.08638153      -1.90894411
H       -1.70546985      -1.22452905      -1.20241630
H       -2.53827905       0.28740364      -0.83658226
14
Frame=12 idx=002451 GeodesicLength=1.1194100268585423 rxn_smarts="[C:1]([C:2]([N:3]([C:4]([C:5]#[N:6])([H:13])[H:14])[H:12])([H:10])[H:11])([H:7])([H:8])[H:9]>>[C:1]([N:6]=[C:5]1[C:2]([H:10])([H:11])[N:3]([H:12])[C:4]1([H:13])[H:14])([H:7])([H:8])[H:9]"
C        1.45013532      -0.56042471       0.95396652
C        0.20876123       1.07602182      -0.19159610
N       -0.49953397       0.50753806      -1.29609389
C       -1.58941812      -0.25592963      -0.72242301
C       -1.25830580      -0.23579756       0.73759995
N       -0.62832341      -0.67072609       1.66421533
H        1.84080168      -0.93778396       0.00142748
H        1.61292471      -1.45511373       1.56264593
H        2.18816562       0.11551829       1.39124729
H       -0.20760130       1.84424936       0.46678108
H        1.05726550       1.62302859      -0.60366267
H        0.04416293      -0.06767863      -1.92402305
H       -1.67323851      -1.23871132      -1.18905024
H       -2.54579587       0.25580950      -0.85103463
14
Frame=13 idx=002451 GeodesicLength=1.2128785468516328 rxn_smarts="[C:1]([C:2]([N:3]([C:4]([C:5]#[N:6])([H:13])[H:14])[H:12])([H:10])[H:11])([H:7])([H:8])[H:9]>>[C:1]([N:6]=[C:5]1[C:2]([H:10])([H:11])[N:3]([H:12])[C:4]1([H:13])[H:14])([H:7])([H:8])[H:9]"
C        1.45484511      -0.56293633       0.94833518
C        0.20420670       1.07288644      -0.18196351
N       -0.50750754       0.52178032      -1.30448545
C       -1.58227390      -0.25976861      -0.72445517
C       -1.24679280      -0.20280259       0.73307154
N       -0.66279299      -0.65061437       1.68355883
H        1.84091146      -0.96417326       0.00322485
H        1.60498898      -1.45656934       1.56326084
H        2.21492783       0.09208019       1.38071291
H       -0.20029815       1.84752557       0.47824698
H        1.03813181       1.63940156      -0.60027505
H        0.03381145      -0.04785969      -1.93939311
H       -1.63987994      -1.25177494      -1.17613485
H       -2.55227803       0.22282504      -0.86370399
14
Frame=14 idx=002451 GeodesicLength=1.3064794147490881 rxn_smarts="[C:1]([C:2]([N:3]([C:4]([C:5]#[N:6])([H:13])[H:14])[H:12])([H:10])[H:11])([H:7])([H:8])[H:9]>>[C:1]([N:6]=[C:5]1[C:2]([H:10])([H:11])[N:3]([H:12])[C:4]1([H:13])[H:14])([H:7])([H:8])[H:9]"
C        1.45988460      -0.56534509       0.94237800
C        0.19999831       1.07000926      -0.17279794
N       -0.51595690       0.53643544      -1.31268632
C       -1.57460365      -0.26382885      -0.72625099
C       -1.23483141      -0.17174214       0.72812339
N       -0.69888013      -0.62891944       1.70250713
H        1.84049963      -0.99153502       0.00545018
H        1.59662121      -1.45714305       1.56462835
H        2.24150922       0.06812240       1.36956772
H       -0.19259311       1.85043725       0.48987527
H        1.01889369       1.65577536      -0.59715786
H        0.02274975      -0.02716771      -1.95512330
H       -1.60555082      -1.26379064      -1.16380053
H       -2.55774040       0.18869221      -0.87471310
14
Frame=15 idx=002451 GeodesicLength=1.3999638509396548 rxn_smarts="[C:1]([C:2]([N:3]([C:4]([C:5]#[N:6])([H:13])[H:14])[H:12])([H:10])[H:11])([H:7])([H:8])[H:9]>>[C:1]([N:6]=[C:5]1[C:2]([H:10])([H:11])[N:3]([H:12])[C:4]1([H:13])[H:14])([H:7])([H:8])[H:9]"
C        1.46526833      -0.56757307       0.93597106
C        0.19619294       1.06724522      -0.16404766
N       -0.52481332       0.55138888      -1.32054170
C       -1.56641259      -0.26806936      -0.72777583
C       -1.22242691      -0.14259143       0.72274711
N       -0.73671096      -0.60578962       1.72066543
H        1.83952428      -1.01972356       0.00818570
H        1.58783068      -1.45657325       1.56661226
H        2.26783743       0.04374304       1.35769432
H       -0.18442804       1.85274287       0.50164054
H        0.99957431       1.67205023      -0.59421038
H        0.01100318      -0.00572056      -1.97089913
H       -1.57039410      -1.27464767      -1.15199444
H       -2.56204522       0.15351827      -0.88404727
14
Frame=16 idx=002451 GeodesicLength=1.4935100894477207 rxn_smarts="[C:1]([C:2]([N:3]([C:4]([C:5]#[N:6])([H:13])[H:14])[H:12])([H:10])[H:11])([H:7])([H:8])[H:9]>>[C:1]([N:6]=[C:5]1[C:2]([H:10])([H:11])[N:3]([H:12])[C:4]1([H:13])[H:14])([H:7])([H:8])[H:9]"
C        1.47116994      -0.56971140       0.92911269
C        0.19272289       1.06459944      -0.15567183
N       -0.53413802       0.56659476      -1.32811972
C       -1.55776927      -0.27245798      -0.72910464
C       -1.20960183      -0.11531046       0.71709476
N       -0.77632117      -0.58112317       1.73808634
H        1.83817067      -1.04881457       0.01145514
H        1.57885782      -1.45491799       1.56926105
H        2.29404772       0.01886095       1.34519703
H       -0.17596874       1.85450541       0.51361132
H        0.98003680       1.68831059      -0.59140131
H       -0.00145674       0.01634118      -1.98677297
H       -1.53452252      -1.28439801      -1.14084718
H       -2.56522755       0.11752125      -0.89190069
