13
Frame=0 idx=001297 GeodesicLength=0.0 rxn_smarts="[N:1]([C:2](=[O:3])[C:4]([C:5]([O:6][H:13])([H:11])[H:12])([H:9])[H:10])([H:7])[H:8]>>[N:1]([C-:2]=[O+:3][C:4]([C:5]([O:6][H:13])([H:11])[H:12])([H:9])[H:10])([H:7])[H:8]"
N       -1.16551419      -1.31540871      -1.02382435
C       -1.32369558      -0.15944621      -0.36445716
O       -1.34397275       0.89206995      -1.11851635
C       -0.09485216       1.16570422       0.13152098
C        1.06659903       0.29204568       0.54255309
O        0.72491937      -0.57742780       1.58944987
H       -1.19899909      -2.18207493      -0.52060760
H       -1.13558862      -1.32986621      -2.03701431
H       -0.63949171       1.58892031       0.96378737
H        0.30753688       1.92964865      -0.53963439
H        1.44478383      -0.24768749      -0.33427050
H        1.84817379       1.00214450       0.85758470
H        1.51010123      -1.05862198       1.85342868
13
Frame=1 idx=001297 GeodesicLength=0.0907163835262387 rxn_smarts="[N:1]([C:2](=[O:3])[C:4]([C:5]([O:6][H:13])([H:11])[H:12])([H:9])[H:10])([H:7])[H:8]>>[N:1]([C-:2]=[O+:3][C:4]([C:5]([O:6][H:13])([H:11])[H:12])([H:9])[H:10])([H:7])[H:8]"
N       -1.18431703      -1.32824742      -1.06375517
C       -1.28264104      -0.18654982      -0.37277275
O       -1.37069426       0.88423427      -1.08812193
C       -0.08493032       1.15847933       0.12685381
C        1.08294983       0.30839303       0.57048214
O        0.73805892      -0.53022474       1.64230356
H       -1.15081419      -2.20269376      -0.57391477
H       -1.26661435      -1.32593475      -2.07389005
H       -0.62007040       1.61067334       0.95119472
H        0.31502879       1.90650840      -0.56322768
H        1.46898892      -0.25101275      -0.29051310
H        1.85870234       1.02902629       0.87345287
H        1.49635280      -1.07265142       1.86190835
13
Frame=2 idx=001297 GeodesicLength=0.1755207082051165 rxn_smarts="[N:1]([C:2](=[O:3])[C:4]([C:5]([O:6][H:13])([H:11])[H:12])([H:9])[H:10])([H:7])[H:8]>>[N:1]([C-:2]=[O+:3][C:4]([C:5]([O:6][H:13])([H:11])[H:12])([H:9])[H:10])([H:7])[H:8]"
N       -1.20354346      -1.34116916      -1.10170507
C       -1.23817904      -0.21369162      -0.38557380
O       -1.39634898       0.87430057      -1.05561264
C       -0.07452407       1.15091775       0.12259181
C        1.10016603       0.32575007       0.59694861
O        0.75199981      -0.48468080       1.69030774
H       -1.10748564      -2.22265410      -0.63293038
H       -1.39358817      -1.32262803      -2.09677955
H       -0.60049401       1.63054234       0.93852809
H        0.32184675       1.88312879      -0.58609364
H        1.49564191      -0.25062924      -0.24852816
H        1.86896475       1.05695426       0.88978005
H        1.47554412      -1.08614083       1.86906694
13
Frame=3 idx=001297 GeodesicLength=0.25429177439995426 rxn_smarts="[N:1]([C:2](=[O:3])[C:4]([C:5]([O:6][H:13])([H:11])[H:12])([H:9])[H:10])([H:7])[H:8]>>[N:1]([C-:2]=[O+:3][C:4]([C:5]([O:6][H:13])([H:11])[H:12])([H:9])[H:10])([H:7])[H:8]"
N       -1.22397951      -1.35395936      -1.13698085
C       -1.19058279      -0.23918349      -0.40486783
O       -1.41891416       0.86295539      -1.02345740
C       -0.06370919       1.14334882       0.11874834
C        1.11761395       0.34353303       0.62179948
O        0.76526554      -0.44335614       1.73193991
H       -1.06562591      -2.24042463      -0.69498848
H       -1.51900687      -1.32233308      -2.10548303
H       -0.58157337       1.64788856       0.92601587
H        0.32864359       1.86099715      -0.60662005
H        1.52464960      -0.24611566      -0.20896853
H        1.87813786       1.08496296       0.90794660
H        1.44908125      -1.09831355       1.87491597
13
Frame=4 idx=001297 GeodesicLength=0.32861494966361304 rxn_smarts="[N:1]([C:2](=[O:3])[C:4]([C:5]([O:6][H:13])([H:11])[H:12])([H:9])[H:10])([H:7])[H:8]>>[N:1]([C-:2]=[O+:3][C:4]([C:5]([O:6][H:13])([H:11])[H:12])([H:9])[H:10])([H:7])[H:8]"
N       -1.24573523      -1.36754699      -1.16817576
C       -1.13894744      -0.26317687      -0.43091187
O       -1.43880747       0.84950740      -0.99104205
C       -0.05263882       1.13618017       0.11542775
C        1.13558177       0.36251457       0.64507518
O        0.77876117      -0.40553121       1.76800079
H       -1.03397542      -2.25782680      -0.75694480
H       -1.63445807      -1.32434485      -2.10225288
H       -0.56375893       1.66283342       0.91410929
H        0.33477712       1.84111325      -0.62469769
H        1.55635922      -0.23655330      -0.17209572
H        1.88620309       1.11430929       0.92782924
H        1.41663900      -1.11147808       1.87567853
13
Frame=5 idx=001297 GeodesicLength=0.4002727267884825 rxn_smarts="[N:1]([C:2](=[O:3])[C:4]([C:5]([O:6][H:13])([H:11])[H:12])([H:9])[H:10])([H:7])[H:8]>>[N:1]([C-:2]=[O+:3][C:4]([C:5]([O:6][H:13])([H:11])[H:12])([H:9])[H:10])([H:7])[H:8]"
N       -1.26813687      -1.38231958      -1.19510331
C       -1.08084104      -0.28538668      -0.46636028
O       -1.45497409       0.83342328      -0.95889160
C       -0.04085560       1.12956259       0.11241371
C        1.15430114       0.38317763       0.66738880
O        0.79220958      -0.37120342       1.79892403
H       -1.01120085      -2.27551125      -0.81706705
H       -1.74465932      -1.32902986      -2.08670290
H       -0.54765604       1.67484961       0.90258207
H        0.34097413       1.82438583      -0.63982848
H        1.59191861      -0.22096805      -0.13716230
H        1.89274793       1.14572755       0.95085908
H        1.37617240      -1.12670765       1.86894822
13
Frame=6 idx=001297 GeodesicLength=0.46797703931152246 rxn_smarts="[N:1]([C:2](=[O:3])[C:4]([C:5]([O:6][H:13])([H:11])[H:12])([H:9])[H:10])([H:7])[H:8]>>[N:1]([C-:2]=[O+:3][C:4]([C:5]([O:6][H:13])([H:11])[H:12])([H:9])[H:10])([H:7])[H:8]"
N       -1.29124870      -1.39775856      -1.21652698
C       -1.01428413      -0.30236836      -0.51796761
O       -1.46392408       0.81690620      -0.93313795
C       -0.02793690       1.12431657       0.10886669
C        1.17257557       0.40440696       0.68902149
O        0.80181518      -0.34543908       1.82189701
H       -0.98799802      -2.29087810      -0.87400266
H       -1.86106457      -1.34125174      -2.05102004
H       -0.53496542       1.68247001       0.89121713
H        0.34949238       1.81412487      -0.64998086
H        1.63183446      -0.19853808      -0.10438659
H        1.89576209       1.17733592       0.98119113
H        1.32994216      -1.14332660       1.85482925
13
Frame=7 idx=001297 GeodesicLength=0.5292357949447211 rxn_smarts="[N:1]([C:2](=[O:3])[C:4]([C:5]([O:6][H:13])([H:11])[H:12])([H:9])[H:10])([H:7])[H:8]>>[N:1]([C-:2]=[O+:3][C:4]([C:5]([O:6][H:13])([H:11])[H:12])([H:9])[H:10])([H:7])[H:8]"
N       -1.31447347      -1.41306689      -1.22694191
C       -0.93614021      -0.30929090      -0.59537383
O       -1.46186241       0.80320910      -0.92222407
C       -0.01403473       1.12140874       0.10323032
C        1.18840997       0.42485826       0.70954942
O        0.80283884      -0.33363676       1.83271412
H       -0.95901787      -2.30122391      -0.92353381
H       -1.98655425      -1.36485786      -1.98172194
H       -0.52894574       1.68282620       0.87940140
H        0.36219519       1.81533851      -0.65214508
H        1.67605511      -0.16803758      -0.07448025
H        1.89224169       1.20650412       1.02261394
H        1.27928789      -1.16403103       1.82891168
13
Frame=8 idx=001297 GeodesicLength=0.5806239080240733 rxn_smarts="[N:1]([C:2](=[O:3])[C:4]([C:5]([O:6][H:13])([H:11])[H:12])([H:9])[H:10])([H:7])[H:8]>>[N:1]([C-:2]=[O+:3][C:4]([C:5]([O:6][H:13])([H:11])[H:12])([H:9])[H:10])([H:7])[H:8]"
N       -1.33180048      -1.42408589      -1.21726861
C       -0.85402745      -0.30232769      -0.69649315
O       -1.45476450       0.79452369      -0.92334628
C       -0.00190107       1.12019453       0.09442573
C        1.19841969       0.44089295       0.72550917
O        0.79334492      -0.33791960       1.82876573
H       -0.92682359      -2.30327237      -0.95210929
H       -2.09261574      -1.39318322      -1.88305230
H       -0.52908157       1.67664786       0.86728914
H        0.37582695       1.82623178      -0.64862402
H        1.71863688      -0.13354729      -0.05128764
H        1.88064260       1.22766827       1.06978500
H        1.22414336      -1.19182302       1.78640650
13
Frame=9 idx=001297 GeodesicLength=0.6319443268809497 rxn_smarts="[N:1]([C:2](=[O:3])[C:4]([C:5]([O:6][H:13])([H:11])[H:12])([H:9])[H:10])([H:7])[H:8]>>[N:1]([C-:2]=[O+:3][C:4]([C:5]([O:6][H:13])([H:11])[H:12])([H:9])[H:10])([H:7])[H:8]"
N       -1.33306874      -1.42505394      -1.18910526
C       -0.78398102      -0.27949012      -0.80838338
O       -1.45139796       0.79356603      -0.92998001
C        0.00615842       1.11998858       0.08153121
C        1.19904858       0.44728967       0.73456889
O        0.77025110      -0.35630555       1.81179487
H       -0.87653884      -2.29036025      -0.96495452
H       -2.16927958      -1.42290513      -1.75778688
H       -0.53092025       1.67065120       0.85320701
H        0.38904273       1.83938552      -0.64564464
H        1.75079512      -0.10587752      -0.03587897
H        1.86229325       1.23313963       1.11475171
H        1.16759721      -1.22402812       1.73587996
13
Frame=10 idx=001297 GeodesicLength=0.6945810492691153 rxn_smarts="[N:1]([C:2](=[O:3])[C:4]([C:5]([O:6][H:13])([H:11])[H:12])([H:9])[H:10])([H:7])[H:8]>>[N:1]([C-:2]=[O+:3][C:4]([C:5]([O:6][H:13])([H:11])[H:12])([H:9])[H:10])([H:7])[H:8]"
N       -1.31674517      -1.41622245      -1.15451254
C       -0.73881601      -0.24683998      -0.90843677
O       -1.45832755       0.79738808      -0.93016611
C        0.00965545       1.11995331       0.06701100
C        1.19179162       0.44433435       0.73669501
O        0.73931601      -0.37949953       1.78971903
H       -0.81268919      -2.26412269      -0.96887055
H       -2.20811447      -1.45023143      -1.63012837
H       -0.52824288       1.67153977       0.83874861
H        0.39970062       1.84673257      -0.64865364
H        1.76802819      -0.09134359      -0.02788593
H        1.84264497       1.22378676       1.14867904
H        1.11179841      -1.25547516       1.68780122
13
Frame=11 idx=001297 GeodesicLength=0.7616894900439056 rxn_smarts="[N:1]([C:2](=[O:3])[C:4]([C:5]([O:6][H:13])([H:11])[H:12])([H:9])[H:10])([H:7])[H:8]>>[N:1]([C-:2]=[O+:3][C:4]([C:5]([O:6][H:13])([H:11])[H:12])([H:9])[H:10])([H:7])[H:8]"
N       -1.29029645      -1.40373341      -1.12547602
C       -0.71608745      -0.21312178      -0.98755253
O       -1.47499505       0.79943658      -0.91640562
C        0.01087391       1.11951192       0.05368836
C        1.18221772       0.43724012       0.73573719
O        0.70889801      -0.39670402       1.77255611
H       -0.74355788      -2.23318447      -0.98153191
H       -2.22120316      -1.47403361      -1.51247840
H       -0.51831460       1.68153386       0.82536255
H        0.40776609       1.84551140      -0.65871367
H        1.77428162      -0.08920529      -0.02295329
H        1.82802558       1.20828679       1.16983928
H        1.05239165      -1.28153809       1.64792794
13
Frame=12 idx=001297 GeodesicLength=0.8280947540431651 rxn_smarts="[N:1]([C:2](=[O:3])[C:4]([C:5]([O:6][H:13])([H:11])[H:12])([H:9])[H:10])([H:7])[H:8]>>[N:1]([C-:2]=[O+:3][C:4]([C:5]([O:6][H:13])([H:11])[H:12])([H:9])[H:10])([H:7])[H:8]"
N       -1.26112117      -1.38986621      -1.10349070
C       -0.70883237      -0.18030438      -1.04972004
O       -1.49667472       0.79897974      -0.89291340
C        0.01058072       1.11851703       0.04261206
C        1.17253518       0.42844376       0.73298811
O        0.68221752      -0.40877188       1.76029622
H       -0.67930880      -2.20026138      -0.99184927
H       -2.21564933      -1.49564537      -1.41698018
H       -0.50397858       1.69575428       0.81436045
H        0.41298145       1.83913564      -0.67190263
H        1.77370143      -0.09459307      -0.02065091
H        1.81855703       1.19056138       1.18132472
H        0.99499165      -1.30194956       1.61592556
13
Frame=13 idx=001297 GeodesicLength=0.8960870219382775 rxn_smarts="[N:1]([C:2](=[O:3])[C:4]([C:5]([O:6][H:13])([H:11])[H:12])([H:9])[H:10])([H:7])[H:8]>>[N:1]([C-:2]=[O+:3][C:4]([C:5]([O:6][H:13])([H:11])[H:12])([H:9])[H:10])([H:7])[H:8]"
N       -1.22811137      -1.37555196      -1.08748158
C       -0.71058490      -0.14771491      -1.10282769
O       -1.51986880       0.79575644      -0.86315421
C        0.01010763       1.11727998       0.03215134
C        1.16264471       0.41881815       0.72989994
O        0.65664462      -0.41652900       1.75219871
H       -0.61282651      -2.16536618      -1.01378331
H       -2.20097808      -1.51713174      -1.31843461
H       -0.48614494       1.71317896       0.80313476
H        0.41762452       1.82923717      -0.68787171
H        1.76937378      -0.10497639      -0.01849535
H        1.81185576       1.17185442       1.18795493
H        0.93026358      -1.31885494       1.58670878
13
Frame=14 idx=001297 GeodesicLength=0.9647456487471753 rxn_smarts="[N:1]([C:2](=[O:3])[C:4]([C:5]([O:6][H:13])([H:11])[H:12])([H:9])[H:10])([H:7])[H:8]>>[N:1]([C-:2]=[O+:3][C:4]([C:5]([O:6][H:13])([H:11])[H:12])([H:9])[H:10])([H:7])[H:8]"
N       -1.19433625      -1.36022657      -1.07675151
C       -0.71976471      -0.11525299      -1.14902160
O       -1.54335918       0.79087595      -0.83032140
C        0.00905273       1.11552954       0.02239900
C        1.15255637       0.40824837       0.72616297
O        0.63236890      -0.42237728       1.74628924
H       -0.54863803      -2.12783027      -1.03578002
H       -2.17685118      -1.53809217      -1.22515303
H       -0.46684281       1.73110921       0.79219827
H        0.42121228       1.81716420      -0.70483349
H        1.76209367      -0.11882986      -0.01740197
H        1.80712440       1.15198787       1.19088410
H        0.86538380      -1.33230600       1.56132944
13
Frame=15 idx=001297 GeodesicLength=1.0344405880478516 rxn_smarts="[N:1]([C:2](=[O:3])[C:4]([C:5]([O:6][H:13])([H:11])[H:12])([H:9])[H:10])([H:7])[H:8]>>[N:1]([C-:2]=[O+:3][C:4]([C:5]([O:6][H:13])([H:11])[H:12])([H:9])[H:10])([H:7])[H:8]"
N       -1.16014980      -1.34449778      -1.07059576
C       -0.73495510      -0.08339794      -1.18907782
O       -1.56657449       0.78357120      -0.79372458
C        0.00790899       1.11317558       0.01318188
C        1.14274180       0.39729657       0.72229699
O        0.60993839      -0.42583251       1.74310622
H       -0.48580561      -2.08816101      -1.06222797
H       -2.14419765      -1.55869944      -1.13308119
H       -0.44576654       1.74947706       0.78099691
H        0.42398348       1.80279145      -0.72302457
H        1.75287629      -0.13539423      -0.01653579
H        1.80421140       1.13192234       1.19090942
H        0.79578883      -1.34225130       1.53777624
13
Frame=16 idx=001297 GeodesicLength=1.1051042979181163 rxn_smarts="[N:1]([C:2](=[O:3])[C:4]([C:5]([O:6][H:13])([H:11])[H:12])([H:9])[H:10])([H:7])[H:8]>>[N:1]([C-:2]=[O+:3][C:4]([C:5]([O:6][H:13])([H:11])[H:12])([H:9])[H:10])([H:7])[H:8]"
N       -1.12724264      -1.32742226      -1.06909456
C       -0.75582640      -0.05155473      -1.22460232
O       -1.58938540       0.77497877      -0.75534816
C        0.00619866       1.10994254       0.00430529
C        1.13271233       0.38531487       0.71779529
O        0.58852737      -0.42864058       1.74108544
H       -0.42493462      -2.04463696      -1.08379816
H       -2.10383801      -1.57840950      -1.04813363
H       -0.42407815       1.76684132       0.76967583
H        0.42564627       1.78661518      -0.74169488
H        1.74150582      -0.15449168      -0.01673532
H        1.80244622       1.11063531       1.18833990
H        0.72826855      -1.34917229       1.51820528
