15
Frame=0 idx=011149 GeodesicLength=0.0 rxn_smarts="[C:1]([C:2]([C@@:3]1([C:6]#[C:7][H:15])[C:4]([H:13])([H:14])[O:5]1)([H:11])[H:12])([H:8])([H:9])[H:10]>>[C:1](=[C:2]([H:11])[H:12])([H:8])[H:9].[C:3]([C:4]([H:10])([H:13])[H:14])(=[O:5])[C:6]#[C:7][H:15]"
C       -1.17657765      -0.63737816       0.82674684
C        0.13375865      -0.20721968       1.28398054
C        0.71771412       0.60884093      -0.05659068
C       -0.57584614       1.21632591      -0.55452512
O        1.48449506       1.62263700       0.10891023
C        1.19903491      -0.46047027      -0.98580917
C        1.59010644      -1.31489733      -1.73011926
H       -2.07205487      -0.34400441       1.36442405
H       -1.25201267      -1.58338407       0.29795470
H       -1.33281375       0.19695722      -0.26254366
H        0.11117172       0.51203583       2.09936158
H        0.83028698      -1.01608141       1.48256218
H       -0.64568990       1.49914268      -1.60505593
H       -0.96977099       1.96512457       0.12880181
H        1.95819815      -2.05762875      -2.39809806
15
Frame=1 idx=011149 GeodesicLength=0.11441749308133278 rxn_smarts="[C:1]([C:2]([C@@:3]1([C:6]#[C:7][H:15])[C:4]([H:13])([H:14])[O:5]1)([H:11])[H:12])([H:8])([H:9])[H:10]>>[C:1](=[C:2]([H:11])[H:12])([H:8])[H:9].[C:3]([C:4]([H:10])([H:13])[H:14])(=[O:5])[C:6]#[C:7][H:15]"
C       -1.18275308      -0.64584197       0.83608879
C        0.12576278      -0.21719015       1.29563082
C        0.72108868       0.60947090      -0.06346834
C       -0.56261574       1.23097695      -0.56341306
O        1.46974605       1.63811671       0.09807635
C        1.20766218      -0.45355874      -0.99282276
C        1.60121880      -1.30879757      -1.73472262
H       -2.07560962      -0.36601438       1.38526836
H       -1.25057467      -1.58986263       0.30232127
H       -1.33922057       0.20320002      -0.26180649
H        0.10376354       0.50074022       2.11231892
H        0.82974073      -1.02126714       1.48703157
H       -0.63077180       1.50548554      -1.61618687
H       -0.96233671       1.98258964       0.11331566
H        1.94489943      -2.06804740      -2.39763159
15
Frame=2 idx=011149 GeodesicLength=0.2287859180230108 rxn_smarts="[C:1]([C:2]([C@@:3]1([C:6]#[C:7][H:15])[C:4]([H:13])([H:14])[O:5]1)([H:11])[H:12])([H:8])([H:9])[H:10]>>[C:1](=[C:2]([H:11])[H:12])([H:8])[H:9].[C:3]([C:4]([H:10])([H:13])[H:14])(=[O:5])[C:6]#[C:7][H:15]"
C       -1.18899441      -0.65461273       0.84558021
C        0.11753341      -0.22707278       1.30748132
C        0.72453398       0.61045656      -0.07063443
C       -0.54909716       1.24597344      -0.57263985
O        1.45575050       1.65296891       0.08731094
C        1.21630547      -0.44660161      -0.99982587
C        1.61197796      -1.30310855      -1.73901053
H       -2.07909361      -0.38945693       1.40646565
H       -1.24885941      -1.59647031       0.30663048
H       -1.34572200       0.20960404      -0.26095165
H        0.09586693       0.48966321       2.12534861
H        0.82918084      -1.02600811       1.49173092
H       -0.61567044       1.51189293      -1.62764402
H       -0.95468290       2.00040047       0.09731731
H        1.93097084      -2.07762853      -2.39715909
15
Frame=3 idx=011149 GeodesicLength=0.3431156191803397 rxn_smarts="[C:1]([C:2]([C@@:3]1([C:6]#[C:7][H:15])[C:4]([H:13])([H:14])[O:5]1)([H:11])[H:12])([H:8])([H:9])[H:10]>>[C:1](=[C:2]([H:11])[H:12])([H:8])[H:9].[C:3]([C:4]([H:10])([H:13])[H:14])(=[O:5])[C:6]#[C:7][H:15]"
C       -1.19535860      -0.66366293       0.85520476
C        0.10914690      -0.23702901       1.31932021
C        0.72791396       0.61181264      -0.07832204
C       -0.53544867       1.26156670      -0.58205594
O        1.44253572       1.66715518       0.07641391
C        1.22452924      -0.43947379      -1.00733348
C        1.62161980      -1.29764553      -1.74373022
H       -2.08238023      -0.41439226       1.42822209
H       -1.24710608      -1.60305931       0.31069908
H       -1.35253192       0.21643475      -0.25980003
H        0.08778605       0.47851541       2.13835796
H        0.82865856      -1.03053858       1.49615196
H       -0.60073961       1.51880691      -1.63921291
H       -0.94673049       2.01873452       0.08118043
H        1.91810539      -2.08722469      -2.39509576
15
Frame=4 idx=011149 GeodesicLength=0.4574223731297379 rxn_smarts="[C:1]([C:2]([C@@:3]1([C:6]#[C:7][H:15])[C:4]([H:13])([H:14])[O:5]1)([H:11])[H:12])([H:8])([H:9])[H:10]>>[C:1](=[C:2]([H:11])[H:12])([H:8])[H:9].[C:3]([C:4]([H:10])([H:13])[H:14])(=[O:5])[C:6]#[C:7][H:15]"
C       -1.20184652      -0.67301809       0.86509762
C        0.10042168      -0.24681223       1.33154538
C        0.73137576       0.61343718      -0.08623592
C       -0.52141179       1.27741538      -0.59192394
O        1.43012951       1.68072908       0.06560080
C        1.23284901      -0.43250358      -1.01459669
C        1.63090647      -1.29292895      -1.74776648
H       -2.08561537      -0.44084310       1.45032617
H       -1.24504978      -1.60979428       0.31490080
H       -1.35941144       0.22336161      -0.25850555
H        0.07901955       0.46778832       2.15152282
H        0.82802673      -1.03446755       1.50112267
H       -0.58543036       1.52558039      -1.65124438
H       -0.93846499       2.03740756       0.06431249
H        1.90450154      -2.09535174      -2.39415578
15
Frame=5 idx=011149 GeodesicLength=0.5717071806055727 rxn_smarts="[C:1]([C:2]([C@@:3]1([C:6]#[C:7][H:15])[C:4]([H:13])([H:14])[O:5]1)([H:11])[H:12])([H:8])([H:9])[H:10]>>[C:1](=[C:2]([H:11])[H:12])([H:8])[H:9].[C:3]([C:4]([H:10])([H:13])[H:14])(=[O:5])[C:6]#[C:7][H:15]"
C       -1.20853038      -0.68263610       0.87509077
C        0.09163186      -0.25688559       1.34349565
C        0.73458671       0.61547911      -0.09497275
C       -0.50743038       1.29422006      -0.60180109
O        1.41852872       1.69365337       0.05445634
C        1.24019575      -0.42516623      -1.02303372
C        1.63819171      -1.28811085      -1.75320900
H       -2.08844503      -0.46896103       1.47319320
H       -1.24324817      -1.61631162       0.31858514
H       -1.36686674       0.23107740      -0.25666966
H        0.07043370       0.45660498       2.16456026
H        0.82749591      -1.03847412       1.50515667
H       -0.57072436       1.53348278      -1.66312555
H       -0.92979176       2.05686368       0.04779359
H        1.89397246      -2.10483583      -2.38951985
15
Frame=6 idx=011149 GeodesicLength=0.685992553134796 rxn_smarts="[C:1]([C:2]([C@@:3]1([C:6]#[C:7][H:15])[C:4]([H:13])([H:14])[O:5]1)([H:11])[H:12])([H:8])([H:9])[H:10]>>[C:1](=[C:2]([H:11])[H:12])([H:8])[H:9].[C:3]([C:4]([H:10])([H:13])[H:14])(=[O:5])[C:6]#[C:7][H:15]"
C       -1.21535876      -0.69259724       0.88546599
C        0.08237773      -0.26665410       1.35608359
C        0.73793097       0.61772993      -0.10379826
C       -0.49290722       1.31112689      -0.61229616
O        1.40774949       1.70605258       0.04349790
C        1.24788187      -0.41816966      -1.03084493
C        1.64549012      -1.28431021      -1.75738543
H       -2.09123941      -0.49873993       1.49630307
H       -1.24099557      -1.62304926       0.32261889
H       -1.37429076       0.23873565      -0.25472034
H        0.06084707       0.44612006       2.17787370
H        0.82676916      -1.04162805       1.51020345
H       -0.55533335       1.54093396      -1.67566845
H       -0.92075426       2.07658676       0.03021463
H        1.88183292      -2.11213739      -2.38754764
15
Frame=7 idx=011149 GeodesicLength=0.8002776682380563 rxn_smarts="[C:1]([C:2]([C@@:3]1([C:6]#[C:7][H:15])[C:4]([H:13])([H:14])[O:5]1)([H:11])[H:12])([H:8])([H:9])[H:10]>>[C:1](=[C:2]([H:11])[H:12])([H:8])[H:9].[C:3]([C:4]([H:10])([H:13])[H:14])(=[O:5])[C:6]#[C:7][H:15]"
C       -1.22237657      -0.70288890       0.89606870
C        0.07287519      -0.27648756       1.36878787
C        0.74115364       0.62033227      -0.11317430
C       -0.47817598       1.32869713      -0.62307266
O        1.39777279       1.71794132       0.03244263
C        1.25510522      -0.41106126      -1.03913770
C        1.65165491      -1.28077122      -1.76192835
H       -2.09369012      -0.53035228       1.51991976
H       -1.23869774      -1.62972697       0.32645630
H       -1.38205935       0.24687739      -0.25235654
H        0.05091678       0.43563198       2.19124470
H        0.82601950      -1.04445051       1.51509175
H       -0.53999572       1.54895952      -1.68840204
H       -0.91128965       2.09692476       0.01241788
H        1.87078711      -2.11962568      -2.38435799
15
Frame=8 idx=011149 GeodesicLength=0.9145795704503954 rxn_smarts="[C:1]([C:2]([C@@:3]1([C:6]#[C:7][H:15])[C:4]([H:13])([H:14])[O:5]1)([H:11])[H:12])([H:8])([H:9])[H:10]>>[C:1](=[C:2]([H:11])[H:12])([H:8])[H:9].[C:3]([C:4]([H:10])([H:13])[H:14])(=[O:5])[C:6]#[C:7][H:15]"
C       -1.22958103      -0.71355089       0.90699953
C        0.06300117      -0.28622564       1.38187626
C        0.74434612       0.62322740      -0.12291446
C       -0.46306124       1.34671262      -0.63431327
O        1.38859541       1.72937281       0.02142022
C        1.26220488      -0.40403598      -1.04743629
C        1.65721335      -1.27778678      -1.76611899
H       -2.09585004      -0.56387104       1.54389634
H       -1.23615893      -1.63645481       0.33034039
H       -1.39002131       0.25528468      -0.24966735
H        0.04029465       0.42546027       2.20479505
H        0.82516418      -1.04666530       1.52035780
H       -0.52434717       1.55715119      -1.70155500
H       -0.90138345       2.11774566      -0.00598831
H        1.85958342      -2.12636420      -2.38169194
15
Frame=9 idx=011149 GeodesicLength=1.0289630168714503 rxn_smarts="[C:1]([C:2]([C@@:3]1([C:6]#[C:7][H:15])[C:4]([H:13])([H:14])[O:5]1)([H:11])[H:12])([H:8])([H:9])[H:10]>>[C:1](=[C:2]([H:11])[H:12])([H:8])[H:9].[C:3]([C:4]([H:10])([H:13])[H:14])(=[O:5])[C:6]#[C:7][H:15]"
C       -1.23699505      -0.72462844       0.91821426
C        0.05282085      -0.29604250       1.39515643
C        0.74738886       0.62648516      -0.13323626
C       -0.44767693       1.36544428      -0.64590937
O        1.38019808       1.74033674       0.01031822
C        1.26879923      -0.39692108      -1.05621589
C        1.66161814      -1.27506655      -1.77064282
H       -2.09743810      -0.59943054       1.56828131
H       -1.23355785      -1.64309031       0.33401486
H       -1.39833610       0.26423569      -0.24643749
H        0.02920122       0.41530525       2.21843712
H        0.82424677      -1.04846863       1.52552054
H       -0.50868527       1.56596867      -1.71496570
H       -0.89097798       2.13923430      -0.02466894
H        1.84939413      -2.13336205      -2.37786627
15
Frame=10 idx=011149 GeodesicLength=1.143359091959951 rxn_smarts="[C:1]([C:2]([C@@:3]1([C:6]#[C:7][H:15])[C:4]([H:13])([H:14])[O:5]1)([H:11])[H:12])([H:8])([H:9])[H:10]>>[C:1](=[C:2]([H:11])[H:12])([H:8])[H:9].[C:3]([C:4]([H:10])([H:13])[H:14])(=[O:5])[C:6]#[C:7][H:15]"
C       -1.24460578      -0.73614019       0.92979081
C        0.04223826      -0.30578623       1.40886257
C        0.75036700       0.63005925      -0.14394886
C       -0.43187430       1.38466872      -0.65801977
O        1.37256793       1.75094437      -0.00072683
C        1.27525636      -0.38985489      -1.06502741
C        1.66552140      -1.27280048      -1.77482840
H       -2.09857082      -0.63710248       1.59293290
H       -1.23068867      -1.64975350       0.33771594
H       -1.40685406       0.27348372      -0.24280776
H        0.01733934       0.40545337       2.23228781
H        0.82321729      -1.04960614       1.53106750
H       -0.49266386       1.57503265      -1.72882951
H       -0.88008781       2.16123954      -0.04398442
H        1.83883771      -2.13983772      -2.37448456
15
Frame=11 idx=011149 GeodesicLength=1.257764695261501 rxn_smarts="[C:1]([C:2]([C@@:3]1([C:6]#[C:7][H:15])[C:4]([H:13])([H:14])[O:5]1)([H:11])[H:12])([H:8])([H:9])[H:10]>>[C:1](=[C:2]([H:11])[H:12])([H:8])[H:9].[C:3]([C:4]([H:10])([H:13])[H:14])(=[O:5])[C:6]#[C:7][H:15]"
C       -1.25242770      -0.74811665       0.94172268
C        0.03127400      -0.31552893       1.42293538
C        0.75322440       0.63397840      -0.15513741
C       -0.41568585       1.40449348      -0.67061638
O        1.36569222       1.76123271      -0.01175318
C        1.28144033      -0.38276370      -1.07405103
C        1.66877758      -1.27085137      -1.77892801
H       -2.09911056      -0.67697938       1.61781962
H       -1.22760980      -1.65638555       0.34135527
H       -1.41563646       0.28312166      -0.23869430
H        0.00477875       0.39578783       2.24632857
H        0.82209221      -1.05013427       1.53682668
H       -0.47636834       1.58453675      -1.74309437
H       -0.86868456       2.18383145      -0.06381621
H        1.82824379      -2.14622243      -2.37089733
15
Frame=12 idx=011149 GeodesicLength=1.3721688673336483 rxn_smarts="[C:1]([C:2]([C@@:3]1([C:6]#[C:7][H:15])[C:4]([H:13])([H:14])[O:5]1)([H:11])[H:12])([H:8])([H:9])[H:10]>>[C:1](=[C:2]([H:11])[H:12])([H:8])[H:9].[C:3]([C:4]([H:10])([H:13])[H:14])(=[O:5])[C:6]#[C:7][H:15]"
C       -1.26046313      -0.76060116       0.95408680
C        0.01985366      -0.32519977       1.43752555
C        0.75599131       0.63820635      -0.16671863
C       -0.39901817       1.42480952      -0.68380419
O        1.35955732       1.77123111      -0.02271197
C        1.28750480      -0.37575037      -1.08305959
C        1.67161376      -1.26937867      -1.78258730
H       -2.09903559      -0.71910750       1.64284976
H       -1.22422293      -1.66303655       0.34506964
H       -1.42461846       0.29304569      -0.23410813
H       -0.00867723       0.38646524       2.26062935
H        0.82082532      -1.04989512       1.54307285
H       -0.45960513       1.59428794      -1.75787939
H       -0.85674030       2.20694271      -0.08437085
H        1.81703477      -2.15201943      -2.36799391
15
Frame=13 idx=011149 GeodesicLength=1.4865600649663904 rxn_smarts="[C:1]([C:2]([C@@:3]1([C:6]#[C:7][H:15])[C:4]([H:13])([H:14])[O:5]1)([H:11])[H:12])([H:8])([H:9])[H:10]>>[C:1](=[C:2]([H:11])[H:12])([H:8])[H:9].[C:3]([C:4]([H:10])([H:13])[H:14])(=[O:5])[C:6]#[C:7][H:15]"
C       -1.26872708      -0.77362558       0.96687901
C        0.00800707      -0.33488809       1.45255720
C        0.75860008       0.64277350      -0.17879656
C       -0.38190907       1.44573944      -0.69754816
O        1.35414499       1.78096116      -0.03364709
C        1.29327792      -0.36873120      -1.09227182
C        1.67382557      -1.26822434      -1.78611547
H       -2.09820015      -0.76355101       1.66798502
H       -1.22061409      -1.66963801       0.34875688
H       -1.43387151       0.30337213      -0.22894187
H       -0.02292969       0.37734019       2.27516230
H        0.81943821      -1.04896868       1.54959061
H       -0.44248388       1.60451061      -1.77312349
H       -0.84422213       2.23065266      -0.10550420
H        1.80566377      -2.15772279      -2.36498238
15
Frame=14 idx=011149 GeodesicLength=1.6009315510790583 rxn_smarts="[C:1]([C:2]([C@@:3]1([C:6]#[C:7][H:15])[C:4]([H:13])([H:14])[O:5]1)([H:11])[H:12])([H:8])([H:9])[H:10]>>[C:1](=[C:2]([H:11])[H:12])([H:8])[H:9].[C:3]([C:4]([H:10])([H:13])[H:14])(=[O:5])[C:6]#[C:7][H:15]"
C       -1.27722110      -0.78724744       0.98016968
C       -0.00432626      -0.34454871       1.46815756
C        0.76106520       0.64765479      -0.19131484
C       -0.36428195       1.46720444      -0.71193641
O        1.34943411       1.79045186      -0.04452372
C        1.29887092      -0.36178166      -1.10152014
C        1.67556856      -1.26750468      -1.78924557
H       -2.09653671      -0.81034058       1.69311634
H       -1.21670366      -1.67622283       0.35252292
H       -1.44334747       0.31402245      -0.22318441
H       -0.03814505       0.36852209       2.28999043
H        0.81789318      -1.04722223       1.55658981
H       -0.42484617       1.61507226      -1.78892251
H       -0.83110826       2.25490574      -0.12737597
H        1.79368465      -2.16296551      -2.36252316
15
Frame=15 idx=011149 GeodesicLength=1.7152729030810618 rxn_smarts="[C:1]([C:2]([C@@:3]1([C:6]#[C:7][H:15])[C:4]([H:13])([H:14])[O:5]1)([H:11])[H:12])([H:8])([H:9])[H:10]>>[C:1](=[C:2]([H:11])[H:12])([H:8])[H:9].[C:3]([C:4]([H:10])([H:13])[H:14])(=[O:5])[C:6]#[C:7][H:15]"
C       -1.28594780      -0.80152383       0.99400852
C       -0.01717752      -0.35418404       1.48438942
C        0.76337321       0.65284369      -0.20427032
C       -0.34609488       1.48919050      -0.72701801
O        1.34539924       1.79972437      -0.05532989
C        1.30430105      -0.35492257      -1.11076283
C        1.67686463      -1.26724506      -1.79190485
H       -2.09394857      -0.85949229       1.71814930
H       -1.21246701      -1.68279324       0.35640976
H       -1.45303664       0.32497774      -0.21678992
H       -0.05440254       0.36003326       2.30514718
H        0.81617146      -1.04459028       1.56414036
H       -0.40661582       1.62595829      -1.80532098
H       -0.81737815       2.27968250      -0.15004661
H        1.78095936      -2.16765904      -2.36080112
15
Frame=16 idx=011149 GeodesicLength=1.8295755030425396 rxn_smarts="[C:1]([C:2]([C@@:3]1([C:6]#[C:7][H:15])[C:4]([H:13])([H:14])[O:5]1)([H:11])[H:12])([H:8])([H:9])[H:10]>>[C:1](=[C:2]([H:11])[H:12])([H:8])[H:9].[C:3]([C:4]([H:10])([H:13])[H:14])(=[O:5])[C:6]#[C:7][H:15]"
C       -1.29490379      -0.81652504       1.00847066
C       -0.03060986      -0.36375383       1.50138296
C        0.76553556       0.65831467      -0.21760977
C       -0.32726817       1.51162001      -0.74287972
O        1.34201582       1.80879440      -0.06603269
C        1.30967399      -0.34822734      -1.11983453
C        1.67781694      -1.26756786      -1.79384004
H       -2.09035221      -0.91100286       1.74297919
H       -1.20782423      -1.68938169       0.36052759
H       -1.46289463       0.33615485      -0.20974514
H       -0.07187742       0.35197475       2.32069707
H        0.81423132      -1.04093240       1.57244983
H       -0.38763404       1.63704048      -1.82241109
H       -0.80301286       2.30491696      -0.17367244
H        1.76710358      -2.17142511      -2.36048190
