15
Frame=0 idx=007239 GeodesicLength=0.0 rxn_smarts="[C:1]([n:2]1[c:3]([H:11])[n:4][c:5]([C:6]([H:12])([H:13])[H:14])[c:7]1[H:15])([H:8])([H:9])[H:10]>>[C:1]([n:2]1[c:3]([H:11])[n+:4]([C:6]([H:12])([H:13])[H:14])[c-:5][c:7]1[H:15])([H:8])([H:9])[H:10]"
C       -2.28998743      -0.17173337      -0.29465345
N       -0.90007768       0.11952756      -0.00550721
C       -0.18638154      -0.41745910       0.98649871
N        1.00662988       0.18814839       1.06622549
C        1.09023383       1.16647950       0.02873613
C        2.40017117      -0.27343608       0.03835657
C       -0.12796793       1.05121263      -0.63870118
H       -2.41133900      -0.33955157      -1.36411778
H       -2.59368382      -1.06815303       0.24236090
H       -2.92270524       0.66110037       0.01061539
H       -0.55958782      -1.20475629       1.62365954
H        3.22912039       0.23600670       0.50448338
H        2.33818390      -1.31867082       0.34070644
H        2.44493758      -0.21187921      -1.04572966
H       -0.51754627       1.58316426      -1.49293329
15
Frame=1 idx=007239 GeodesicLength=0.028554319497944902 rxn_smarts="[C:1]([n:2]1[c:3]([H:11])[n:4][c:5]([C:6]([H:12])([H:13])[H:14])[c:7]1[H:15])([H:8])([H:9])[H:10]>>[C:1]([n:2]1[c:3]([H:11])[n+:4]([C:6]([H:12])([H:13])[H:14])[c-:5][c:7]1[H:15])([H:8])([H:9])[H:10]"
C       -2.30074394      -0.16337707      -0.28880802
N       -0.90742772       0.11653988      -0.00658821
C       -0.18967704      -0.42926296       0.97803426
N        1.00059823       0.17814631       1.06104619
C        1.08575963       1.15546595       0.02705608
C        2.41006942      -0.26501659       0.04172405
C       -0.12922877       1.04223188      -0.64336643
H       -2.42704602      -0.34449790      -1.35565026
H       -2.61340789      -1.04890016       0.26109055
H       -2.92383780       0.68026498       0.00670672
H       -0.55800470      -1.22520409       1.60720787
H        3.23124576       0.25060122       0.51632221
H        2.36320721      -1.31280221       0.33851399
H        2.47216350      -0.20599299      -1.04194930
H       -0.51366987       1.57180374      -1.50133970
15
Frame=2 idx=007239 GeodesicLength=0.0567365125893278 rxn_smarts="[C:1]([n:2]1[c:3]([H:11])[n:4][c:5]([C:6]([H:12])([H:13])[H:14])[c:7]1[H:15])([H:8])([H:9])[H:10]>>[C:1]([n:2]1[c:3]([H:11])[n+:4]([C:6]([H:12])([H:13])[H:14])[c-:5][c:7]1[H:15])([H:8])([H:9])[H:10]"
C       -2.31094062      -0.15551565      -0.28335082
N       -0.91479757       0.11434334      -0.00706187
C       -0.19311882      -0.44012985       0.97029563
N        0.99494768       0.16819716       1.05591111
C        1.08166978       1.14442308       0.02527202
C        2.41946025      -0.25720052       0.04468966
C       -0.13069390       1.03412339      -0.64740436
H       -2.44162453      -0.34991671      -1.34751603
H       -2.63172863      -1.03026154       0.27914023
H       -2.92531140       0.69814921       0.00198705
H       -0.55679723      -1.24435070       1.59157308
H        3.23318657       0.26420426       0.52732084
H        2.38755347      -1.30717654       0.33629225
H        2.49853956      -0.20056542      -1.03835999
H       -0.51034461       1.56167649      -1.50878879
15
Frame=3 idx=007239 GeodesicLength=0.08445234080563167 rxn_smarts="[C:1]([n:2]1[c:3]([H:11])[n:4][c:5]([C:6]([H:12])([H:13])[H:14])[c:7]1[H:15])([H:8])([H:9])[H:10]>>[C:1]([n:2]1[c:3]([H:11])[n+:4]([C:6]([H:12])([H:13])[H:14])[c-:5][c:7]1[H:15])([H:8])([H:9])[H:10]"
C       -2.31974657      -0.14909819      -0.27901659
N       -0.92203882       0.11390487      -0.00593416
C       -0.19692901      -0.44851556       0.96456698
N        0.98995123       0.15883603       1.05088000
C        1.07844641       1.13364741       0.02350085
C        2.42752729      -0.25062695       0.04641636
C       -0.13232631       1.02821542      -0.64934988
H       -2.45262329      -0.35686691      -1.34033907
H       -2.64757714      -1.01351775       0.29514011
H       -2.92765660       0.71280485      -0.00502303
H       -0.55651690      -1.25990930       1.57879285
H        3.23495469       0.27551379       0.53589525
H        2.40962597      -1.30238526       0.33331228
H        2.52247541      -0.19654979      -1.03569306
H       -0.50756634       1.55454733      -1.51314889
15
Frame=4 idx=007239 GeodesicLength=0.1116319166974021 rxn_smarts="[C:1]([n:2]1[c:3]([H:11])[n:4][c:5]([C:6]([H:12])([H:13])[H:14])[c:7]1[H:15])([H:8])([H:9])[H:10]>>[C:1]([n:2]1[c:3]([H:11])[n+:4]([C:6]([H:12])([H:13])[H:14])[c-:5][c:7]1[H:15])([H:8])([H:9])[H:10]"
C       -2.32762281      -0.14375147      -0.27557681
N       -0.92921141       0.11477999      -0.00369884
C       -0.20095609      -0.45505109       0.96048443
N        0.98559814       0.14987664       1.04620759
C        1.07585198       1.12315253       0.02186006
C        2.43479268      -0.24513025       0.04728067
C       -0.13429713       1.02418075      -0.64984421
H       -2.46124079      -0.36468880      -1.33423084
H       -2.66148207      -0.99857596       0.30940970
H       -2.93083898       0.72514684      -0.01336351
H       -0.55690579      -1.27270214       1.56846271
H        3.23679983       0.28502920       0.54280795
H        2.43028163      -1.29839089       0.32980698
H        2.54468349      -0.19362387      -1.03383875
H       -0.50545269       1.54974853      -1.51576714
15
Frame=5 idx=007239 GeodesicLength=0.13854426844283635 rxn_smarts="[C:1]([n:2]1[c:3]([H:11])[n:4][c:5]([C:6]([H:12])([H:13])[H:14])[c:7]1[H:15])([H:8])([H:9])[H:10]>>[C:1]([n:2]1[c:3]([H:11])[n+:4]([C:6]([H:12])([H:13])[H:14])[c-:5][c:7]1[H:15])([H:8])([H:9])[H:10]"
C       -2.33492750      -0.13904319      -0.27265589
N       -0.93634288       0.11650048      -0.00071627
C       -0.20517178      -0.46043987       0.95739880
N        0.98161208       0.14109663       1.04163720
C        1.07365153       1.11274823       0.02023616
C        2.44153525      -0.24027438       0.04757210
C       -0.13644544       1.02127333      -0.64937791
H       -2.46836832      -0.37306639      -1.32860653
H       -2.67425803      -0.98460366       0.32260257
H       -2.93450225       0.73599824      -0.02259121
H       -0.55776206      -1.28384038       1.55949936
H        3.23862396       0.29347034       0.54865700
H        2.45009191      -1.29478167       0.32599023
H        2.56590890      -0.19129489      -1.03240039
H       -0.50364536       1.54625719      -1.51724521
15
Frame=6 idx=007239 GeodesicLength=0.16529093603652636 rxn_smarts="[C:1]([n:2]1[c:3]([H:11])[n:4][c:5]([C:6]([H:12])([H:13])[H:14])[c:7]1[H:15])([H:8])([H:9])[H:10]>>[C:1]([n:2]1[c:3]([H:11])[n+:4]([C:6]([H:12])([H:13])[H:14])[c-:5][c:7]1[H:15])([H:8])([H:9])[H:10]"
C       -2.34189803      -0.13470476      -0.27003583
N       -0.94345285       0.11875405       0.00273910
C       -0.20953238      -0.46512460       0.95492286
N        0.97785093       0.13235535       1.03705661
C        1.07169403       1.10232367       0.01854202
C        2.44796963      -0.23582842       0.04750125
C       -0.13871304       1.01904987      -0.64832850
H       -2.47463513      -0.38172468      -1.32320017
H       -2.68634753      -0.97118084       0.33508829
H       -2.93844935       0.74589635      -0.03232890
H       -0.55893944      -1.29398487       1.55131297
H        3.24039711       0.30128494       0.55384921
H        2.46948009      -1.29134780       0.32205981
H        2.58661858      -0.18931582      -1.03115219
H       -0.50204262       1.54354756      -1.51802651
15
Frame=7 idx=007239 GeodesicLength=0.1919430431971039 rxn_smarts="[C:1]([n:2]1[c:3]([H:11])[n:4][c:5]([C:6]([H:12])([H:13])[H:14])[c:7]1[H:15])([H:8])([H:9])[H:10]>>[C:1]([n:2]1[c:3]([H:11])[n+:4]([C:6]([H:12])([H:13])[H:14])[c-:5][c:7]1[H:15])([H:8])([H:9])[H:10]"
C       -2.34872536      -0.13050913      -0.26752667
N       -0.95055954       0.12128453       0.00643671
C       -0.21400439      -0.46947725       0.95272545
N        0.97420210       0.12352500       1.03236525
C        1.06985742       1.09177576       0.01669620
C        2.45426952      -0.23160221       0.04724616
C       -0.14105342       1.01713429      -0.64701988
H       -2.48058187      -0.39043808      -1.31777664
H       -2.69808782      -0.95793543       0.34719626
H       -2.94250526       0.75528406      -0.04226616
H       -0.56032444      -1.30368802       1.54338485
H        3.24207913       0.30883542       0.55873187
H        2.48879603      -1.28790182       0.31818635
H        2.60720626      -0.18746043      -1.02989222
H       -0.50056834       1.54117331      -1.51848754
15
Frame=8 idx=007239 GeodesicLength=0.21857052303622404 rxn_smarts="[C:1]([n:2]1[c:3]([H:11])[n:4][c:5]([C:6]([H:12])([H:13])[H:14])[c:7]1[H:15])([H:8])([H:9])[H:10]>>[C:1]([n:2]1[c:3]([H:11])[n+:4]([C:6]([H:12])([H:13])[H:14])[c-:5][c:7]1[H:15])([H:8])([H:9])[H:10]"
C       -2.35561258      -0.12620692      -0.26491628
N       -0.95768102       0.12382094       0.01013854
C       -0.21855052      -0.47391128       0.95043774
N        0.97055255       0.11444891       1.02744675
C        1.06802067       1.08098659       0.01461606
C        2.46061561      -0.22738812       0.04699885
C       -0.14341604       1.01511644      -0.64580236
H       -2.48680439      -0.39896960      -1.31208047
H       -2.70980765      -0.94445550       0.35930914
H       -2.94648633       0.76465162      -0.05206369
H       -0.56181454      -1.31353797       1.53513221
H        3.24361182       0.31650305       0.56368309
H        2.50840930      -1.28422921       0.31454846
H        2.62809569      -0.18544986      -1.02838631
H       -0.49913257       1.53862092      -1.51906174
15
Frame=9 idx=007239 GeodesicLength=0.2452485426925321 rxn_smarts="[C:1]([n:2]1[c:3]([H:11])[n:4][c:5]([C:6]([H:12])([H:13])[H:14])[c:7]1[H:15])([H:8])([H:9])[H:10]>>[C:1]([n:2]1[c:3]([H:11])[n+:4]([C:6]([H:12])([H:13])[H:14])[c-:5][c:7]1[H:15])([H:8])([H:9])[H:10]"
C       -2.36284757      -0.12145282      -0.26189582
N       -0.96485140       0.12600652       0.01348437
C       -0.22311957      -0.47898270       0.94752122
N        0.96676473       0.10493155       1.02213133
C        1.06603281       1.06979969       0.01214262
C        2.46726669      -0.22291847       0.04705286
C       -0.14574766       1.01243161      -0.64522681
H       -2.49418153      -0.40697409      -1.30572957
H       -2.72191617      -0.93016222       0.37197367
H       -2.95014155       0.77464588      -0.06122651
H       -0.56322990      -1.32439300       1.52566490
H        3.24492179       0.32482254       0.56924494
H        2.52886395      -1.28005052       0.31149459
H        2.64986679      -0.18296481      -1.02628277
H       -0.49768140       1.53526085      -1.52034901
15
Frame=10 idx=007239 GeodesicLength=0.27208691175318706 rxn_smarts="[C:1]([n:2]1[c:3]([H:11])[n:4][c:5]([C:6]([H:12])([H:13])[H:14])[c:7]1[H:15])([H:8])([H:9])[H:10]>>[C:1]([n:2]1[c:3]([H:11])[n+:4]([C:6]([H:12])([H:13])[H:14])[c-:5][c:7]1[H:15])([H:8])([H:9])[H:10]"
C       -2.37067785      -0.11586904      -0.25813844
N       -0.97206357       0.12743358       0.01615031
C       -0.22766304      -0.48529648       0.94344337
N        0.96267264       0.09471767       1.01622392
C        1.06374099       1.05799872       0.00915017
C        2.47441419      -0.21786573       0.04767381
C       -0.14794079       1.00843098      -0.64576298
H       -2.50357714      -0.41405410      -1.29832276
H       -2.73475270      -0.91442373       0.38573981
H       -2.95317338       0.78597411      -0.06923006
H       -0.56445445      -1.33707172       1.51410177
H        3.24580597       0.33430383       0.57593623
H        2.55057014      -1.27495664       0.30923860
H        2.67309378      -0.17947783      -1.02319474
H       -0.49599480       1.53015640      -1.52300900
15
Frame=11 idx=007239 GeodesicLength=0.29877349676559606 rxn_smarts="[C:1]([n:2]1[c:3]([H:11])[n:4][c:5]([C:6]([H:12])([H:13])[H:14])[c:7]1[H:15])([H:8])([H:9])[H:10]>>[C:1]([n:2]1[c:3]([H:11])[n+:4]([C:6]([H:12])([H:13])[H:14])[c-:5][c:7]1[H:15])([H:8])([H:9])[H:10]"
C       -2.37805354      -0.11080345      -0.25481371
N       -0.97923634       0.12952562       0.01942077
C       -0.23237911      -0.49071088       0.94016414
N        0.95885107       0.08455017       1.01030476
C        1.06174002       1.04616483       0.00608624
C        2.48119050      -0.21334800       0.04779533
C       -0.15026632       1.00530794      -0.64552401
H       -2.51169805      -0.42162701      -1.29126634
H       -2.74681129      -0.89941732       0.39861871
H       -2.95658342       0.79608353      -0.07803086
H       -0.56612634      -1.34837434       1.50370607
H        3.24665560       0.34298395       0.58174981
H        2.57171024      -1.27014311       0.30677540
H        2.69562698      -0.17648622      -1.02042194
H       -0.49461999       1.52629427      -1.52456437
15
Frame=12 idx=007239 GeodesicLength=0.3253698553654554 rxn_smarts="[C:1]([n:2]1[c:3]([H:11])[n:4][c:5]([C:6]([H:12])([H:13])[H:14])[c:7]1[H:15])([H:8])([H:9])[H:10]>>[C:1]([n:2]1[c:3]([H:11])[n+:4]([C:6]([H:12])([H:13])[H:14])[c-:5][c:7]1[H:15])([H:8])([H:9])[H:10]"
C       -2.38531398      -0.10584709      -0.25156846
N       -0.98639322       0.13183232       0.02288527
C       -0.23719530      -0.49587524       0.93710923
N        0.95514438       0.07420280       1.00420418
C        1.05984658       1.03413433       0.00280128
C        2.48788946      -0.20903358       0.04775155
C       -0.15265642       1.00241050      -0.64511105
H       -2.51960367      -0.42925281      -1.28416863
H       -2.75857394      -0.88452147       0.41122312
H       -2.96006655       0.80578750      -0.08699392
H       -0.56803981      -1.35928487       1.49351819
H        3.24738261       0.35145602       0.58734734
H        2.59284669      -1.26527821       0.30439638
H        2.71815292      -0.17351251      -1.01756423
H       -0.49341973       1.52278233      -1.52583027
15
Frame=13 idx=007239 GeodesicLength=0.3519764077607683 rxn_smarts="[C:1]([n:2]1[c:3]([H:11])[n:4][c:5]([C:6]([H:12])([H:13])[H:14])[c:7]1[H:15])([H:8])([H:9])[H:10]>>[C:1]([n:2]1[c:3]([H:11])[n+:4]([C:6]([H:12])([H:13])[H:14])[c-:5][c:7]1[H:15])([H:8])([H:9])[H:10]"
C       -2.39268867      -0.10069635      -0.24812960
N       -0.99354625       0.13402116       0.02622986
C       -0.24206899      -0.50129226       0.93378895
N        0.95141801       0.06348203       0.99773422
C        1.05793604       1.02171490      -0.00088066
C        2.49471802      -0.20467982       0.04778699
C       -0.15503673       0.99918305      -0.64500853
H       -2.52804013      -0.43662132      -1.27667453
H       -2.77036263      -0.86920688       0.42402306
H       -2.96338777       0.81564281      -0.09568911
H       -0.57007560      -1.37049978       1.48278671
H        3.24786726       0.36019872       0.59315904
H        2.61443215      -1.26006255       0.30242098
H        2.74117880      -0.17026998      -1.01429555
H       -0.49234351       1.51908627      -1.52725182
15
Frame=14 idx=007239 GeodesicLength=0.3786813097000446 rxn_smarts="[C:1]([n:2]1[c:3]([H:11])[n:4][c:5]([C:6]([H:12])([H:13])[H:14])[c:7]1[H:15])([H:8])([H:9])[H:10]>>[C:1]([n:2]1[c:3]([H:11])[n+:4]([C:6]([H:12])([H:13])[H:14])[c-:5][c:7]1[H:15])([H:8])([H:9])[H:10]"
C       -2.40038824      -0.09506496      -0.24423185
N       -1.00072475       0.13584513       0.02921831
C       -0.24697327      -0.50739851       0.92978527
N        0.94757328       0.05220045       0.99074392
C        1.05590418       1.00875769      -0.00508411
C        2.50186652      -0.20007238       0.04812336
C       -0.15737506       0.99518477      -0.64562214
H       -2.53767863      -0.44347763      -1.26845066
H       -2.78242711      -0.85297258       0.43749890
H       -2.96637296       0.82616532      -0.10375472
H       -0.57212207      -1.38270180       1.47072326
H        3.24801690       0.36961020       0.59959882
H        2.63687703      -1.25423425       0.30111818
H        2.76515093      -0.16645790      -1.01031889
H       -0.49132674       1.51461645      -1.52934764
15
Frame=15 idx=007239 GeodesicLength=0.40549652085119925 rxn_smarts="[C:1]([n:2]1[c:3]([H:11])[n:4][c:5]([C:6]([H:12])([H:13])[H:14])[c:7]1[H:15])([H:8])([H:9])[H:10]>>[C:1]([n:2]1[c:3]([H:11])[n+:4]([C:6]([H:12])([H:13])[H:14])[c-:5][c:7]1[H:15])([H:8])([H:9])[H:10]"
C       -2.40857352      -0.08867270      -0.23962244
N       -1.00792046       0.13704213       0.03161746
C       -0.25186687      -0.51465576       0.92467015
N        0.94352795       0.04012466       0.98306145
C        1.05366794       0.99511374      -0.00989700
C        2.50943830      -0.19497248       0.04895604
C       -0.15960401       0.98999991      -0.64727925
H       -2.54916796      -0.44950759      -1.25916691
H       -2.79493829      -0.83534115       0.45206375
H       -2.96878378       0.83782879      -0.11079911
H       -0.57408819      -1.39647264       1.45667616
H        3.24763057       0.38004785       0.60704332
H        2.66044033      -1.24750230       0.30065949
H        2.79040422      -0.16163803      -1.00531117
H       -0.49016622       1.50860558      -1.53267193
15
Frame=16 idx=007239 GeodesicLength=0.4322115268550002 rxn_smarts="[C:1]([n:2]1[c:3]([H:11])[n:4][c:5]([C:6]([H:12])([H:13])[H:14])[c:7]1[H:15])([H:8])([H:9])[H:10]>>[C:1]([n:2]1[c:3]([H:11])[n+:4]([C:6]([H:12])([H:13])[H:14])[c-:5][c:7]1[H:15])([H:8])([H:9])[H:10]"
C       -2.41649874      -0.08252272      -0.23519812
N       -1.01505984       0.13857706       0.03432713
C       -0.25688602      -0.52145481       0.91996047
N        0.93964494       0.02788571       0.97516854
C        1.05160556       0.98123190      -0.01499043
C        2.51683624      -0.19019998       0.04951311
C       -0.16190854       0.98521191      -0.64860365
H       -2.56006796      -0.45575022      -1.24993877
H       -2.80695484      -0.81799420       0.46618515
H       -2.97133382       0.84882529      -0.11822707
H       -0.57639191      -1.40953901       1.44309347
H        3.24707454       0.39011973       0.61402628
H        2.68381830      -1.24076884       0.30030801
H        2.81541734      -0.15701287      -1.00028732
H       -0.48929524       1.50339105      -1.53533681
