17
Frame=0 idx=007401 GeodesicLength=0.0 rxn_smarts="[C:1]([C@@:2]1([H:11])[O:3][C:4]([H:12])([H:13])[C:5]([H:14])([H:15])[C@:6]1([O:7][H:17])[H:16])([H:8])([H:9])[H:10]>>[C:1]([C@@:2]([O:3][H:12])([C@@:6]([C:5]([C:4][H:13])([H:14])[H:15])([O:7][H:17])[H:16])[H:11])([H:8])([H:9])[H:10]"
C        2.02818453      -0.07514224      -0.53662052
C        0.80426147       0.29233812       0.26897508
O        0.11402216       1.40641703      -0.33808061
C       -1.63510874       0.92946925      -0.30381448
C       -1.51286186      -0.08797854       0.78828832
C       -0.22673265      -0.83531761       0.44162688
O       -0.39058487      -1.60418939      -0.72757056
H        2.69186724       0.78362649      -0.63646841
H        1.74282504      -0.42727207      -1.52754349
H        2.57100215      -0.88041410      -0.03845943
H        1.09279309       0.64879620       1.26117853
H       -0.46873351       1.05898838      -1.14864297
H       -2.07357555       1.87551186       0.01352590
H       -1.46033184       0.32947414       1.80053177
H       -2.36223468      -0.77507043       0.74466534
H        0.09261273      -1.51976241       1.23016152
H       -1.00740463      -1.11947469      -1.29175291
17
Frame=1 idx=007401 GeodesicLength=0.06400712246809102 rxn_smarts="[C:1]([C@@:2]1([H:11])[O:3][C:4]([H:12])([H:13])[C:5]([H:14])([H:15])[C@:6]1([O:7][H:17])[H:16])([H:8])([H:9])[H:10]>>[C:1]([C@@:2]([O:3][H:12])([C@@:6]([C:5]([C:4][H:13])([H:14])[H:15])([O:7][H:17])[H:16])[H:11])([H:8])([H:9])[H:10]"
C        2.02733260      -0.07525167      -0.53586658
C        0.80174013       0.29050450       0.26757911
O        0.10841993       1.39936226      -0.34404682
C       -1.62592592       0.93789692      -0.29679547
C       -1.51310993      -0.08966514       0.78840006
C       -0.22691993      -0.83784997       0.44393462
O       -0.38976340      -1.60988455      -0.72319587
H        2.68765032       0.78568172      -0.63972011
H        1.74402875      -0.43381921      -1.52510603
H        2.57357520      -0.87553329      -0.03348371
H        1.08828168       0.65168596       1.25897264
H       -0.48259423       1.06638120      -1.17067792
H       -2.05994248       1.88318025       0.02985688
H       -1.46452462       0.32090673       1.80357880
H       -2.36437168      -0.77355398       0.73617768
H        0.09270593      -1.52024393       1.23413593
H       -0.99658236      -1.11979778      -1.29374322
17
Frame=2 idx=007401 GeodesicLength=0.12805973564180634 rxn_smarts="[C:1]([C@@:2]1([H:11])[O:3][C:4]([H:12])([H:13])[C:5]([H:14])([H:15])[C@:6]1([O:7][H:17])[H:16])([H:8])([H:9])[H:10]>>[C:1]([C@@:2]([O:3][H:12])([C@@:6]([C:5]([C:4][H:13])([H:14])[H:15])([O:7][H:17])[H:16])[H:11])([H:8])([H:9])[H:10]"
C        2.02647697      -0.07540201      -0.53512799
C        0.79927433       0.28863381       0.26624588
O        0.10295370       1.39218575      -0.35014110
C       -1.61672297       0.94616317      -0.28985544
C       -1.51336649      -0.09132372       0.78842758
C       -0.22708918      -0.84037858       0.44629920
O       -0.38887582      -1.61558612      -0.71875838
H        2.68350474       0.78760985      -0.64292771
H        1.74520519      -0.44026856      -1.52267992
H        2.57607749      -0.87073902      -0.02862847
H        1.08379676       0.65459805       1.25678329
H       -0.49727111       1.07427141      -1.19233866
H       -2.04599270       1.89070502       0.04614328
H       -1.46882475       0.31244022       1.80644630
H       -2.36643951      -0.77197977       0.72761302
H        0.09276811      -1.52069166       1.23820148
H       -0.98547476      -1.12023784      -1.29570236
17
Frame=3 idx=007401 GeodesicLength=0.1921464212303789 rxn_smarts="[C:1]([C@@:2]1([H:11])[O:3][C:4]([H:12])([H:13])[C:5]([H:14])([H:15])[C@:6]1([O:7][H:17])[H:16])([H:8])([H:9])[H:10]>>[C:1]([C@@:2]([O:3][H:12])([C@@:6]([C:5]([C:4][H:13])([H:14])[H:15])([O:7][H:17])[H:16])[H:11])([H:8])([H:9])[H:10]"
C        2.02562297      -0.07559587      -0.53439929
C        0.79686337       0.28672669       0.26497072
O        0.09761551       1.38487872      -0.35637530
C       -1.60750258       0.95427093      -0.28299682
C       -1.51362948      -0.09295418       0.78836824
C       -0.22724020      -0.84290421       0.44871586
O       -0.38792586      -1.62129396      -0.71426257
H        2.67943034       0.78941383      -0.64609071
H        1.74636561      -0.44663467      -1.52025949
H        2.57851678      -0.86602776      -0.02387643
H        1.07933278       0.65753839       1.25460372
H       -0.51278968       1.08267207      -1.21361964
H       -2.03171122       1.89808689       0.06239335
H       -1.47322929       0.30407425       1.80913295
H       -2.36843534      -0.77034938       0.71897067
H        0.09279932      -1.52110645       1.24235279
H       -0.97408303      -1.12079532      -1.29762805
17
Frame=4 idx=007401 GeodesicLength=0.2562585328118718 rxn_smarts="[C:1]([C@@:2]1([H:11])[O:3][C:4]([H:12])([H:13])[C:5]([H:14])([H:15])[C@:6]1([O:7][H:17])[H:16])([H:8])([H:9])[H:10]>>[C:1]([C@@:2]([O:3][H:12])([C@@:6]([C:5]([C:4][H:13])([H:14])[H:15])([O:7][H:17])[H:16])[H:11])([H:8])([H:9])[H:10]"
C        2.02477610      -0.07583602      -0.53367490
C        0.79450660       0.28478403       0.26374859
O        0.09239742       1.37743178      -0.36276166
C       -1.59826648       0.96222451      -0.27622077
C       -1.51389698      -0.09455658       0.78821948
C       -0.22737278      -0.84542763       0.45117940
O       -0.38691743      -1.62700739      -0.70971286
H        2.67542705       0.79109632      -0.64920952
H        1.74752179      -0.45293295      -1.51783837
H        2.58090102      -0.86139540      -0.01921000
H        1.07488437       0.66051289       1.25242655
H       -0.52917721       1.09159826      -1.23451126
H       -2.01708259       1.90532508       0.07861171
H       -1.47773523       0.29580751       1.81163764
H       -2.37035687      -0.76866403       0.71024927
H        0.09279987      -1.52148902       1.24658431
H       -0.96240866      -1.12147136      -1.29951763
17
Frame=5 idx=007401 GeodesicLength=0.32039089111574587 rxn_smarts="[C:1]([C@@:2]1([H:11])[O:3][C:4]([H:12])([H:13])[C:5]([H:14])([H:15])[C@:6]1([O:7][H:17])[H:16])([H:8])([H:9])[H:10]>>[C:1]([C@@:2]([O:3][H:12])([C@@:6]([C:5]([C:4][H:13])([H:14])[H:15])([O:7][H:17])[H:16])[H:11])([H:8])([H:9])[H:10]"
C        2.02394192      -0.07612493      -0.53294935
C        0.79220323       0.28280673       0.26257423
O        0.08729126       1.36983521      -0.36931167
C       -1.58901533       0.97002695      -0.26953083
C       -1.51416728      -0.09613122       0.78797845
C       -0.22748664      -0.84794955       0.45368504
O       -0.38585400      -1.63272589      -0.70511427
H        2.67149420       0.79266013      -0.65228511
H        1.74868584      -0.45917910      -1.51541018
H        2.58323825      -0.85683721      -0.01461149
H        1.07044574       0.66352853       1.25024403
H       -0.54646048       1.10106484      -1.25500070
H       -2.00208951       1.91241926       0.09480383
H       -1.48234023       0.28763941       1.81395845
H       -2.37220193      -0.76692540       0.70144700
H        0.09277006      -1.52184002       1.25089073
H       -0.95045510      -1.12226776      -1.30136817
17
Frame=6 idx=007401 GeodesicLength=0.38453370867071635 rxn_smarts="[C:1]([C@@:2]1([H:11])[O:3][C:4]([H:12])([H:13])[C:5]([H:14])([H:15])[C@:6]1([O:7][H:17])[H:16])([H:8])([H:9])[H:10]>>[C:1]([C@@:2]([O:3][H:12])([C@@:6]([C:5]([C:4][H:13])([H:14])[H:15])([O:7][H:17])[H:16])[H:11])([H:8])([H:9])[H:10]"
C        2.02312576      -0.07646495      -0.53221778
C        0.78995214       0.28079577       0.26144138
O        0.08228825       1.36207924      -0.37603741
C       -1.57974871       0.97768253      -0.26292995
C       -1.51443905      -0.09767827       0.78764142
C       -0.22758174      -0.85047056       0.45622770
O       -0.38473872      -1.63844965      -0.70047130
H        2.66763112       0.79410808      -0.65532017
H        1.74987011      -0.46538973      -1.51296741
H        2.58553615      -0.85234654      -0.01006254
H        1.06601124       0.66659149       1.24804733
H       -0.56466558       1.11108926      -1.27506885
H       -1.98671297       1.91936629       0.11097315
H       -1.48704244       0.27956899       1.81609293
H       -2.37396900      -0.76513438       0.69256083
H        0.09270997      -1.52215945       1.25526668
H       -0.93822654      -1.12318815      -1.30317600
17
Frame=7 idx=007401 GeodesicLength=0.44866664542300083 rxn_smarts="[C:1]([C@@:2]1([H:11])[O:3][C:4]([H:12])([H:13])[C:5]([H:14])([H:15])[C@:6]1([O:7][H:17])[H:16])([H:8])([H:9])[H:10]>>[C:1]([C@@:2]([O:3][H:12])([C@@:6]([C:5]([C:4][H:13])([H:14])[H:15])([O:7][H:17])[H:16])[H:11])([H:8])([H:9])[H:10]"
C        2.02233314      -0.07685879      -0.53147523
C        0.78775226       0.27875255       0.26034349
O        0.07737945       1.35415242      -0.38295179
C       -1.57046587       0.98519519      -0.25642142
C       -1.51471090      -0.09919819       0.78720458
C       -0.22765783      -0.85299122       0.45880249
O       -0.38357493      -1.64417867      -0.69578866
H        2.66383665       0.79544253      -0.65831902
H        1.75108762      -0.47158321      -1.51050270
H        2.58780292      -0.84791639      -0.00554439
H        1.06157492       0.66970917       1.24582630
H       -0.58381623       1.12169278      -1.29468884
H       -1.97093629       1.92616284       0.12712024
H       -1.49184031       0.27159497       1.81803830
H       -2.37565652      -0.76329217       0.68358695
H        0.09262017      -1.52244710       1.25970713
H       -0.92572826      -1.12423670      -1.30493743
17
Frame=8 idx=007401 GeodesicLength=0.5128233937811507 rxn_smarts="[C:1]([C@@:2]1([H:11])[O:3][C:4]([H:12])([H:13])[C:5]([H:14])([H:15])[C@:6]1([O:7][H:17])[H:16])([H:8])([H:9])[H:10]>>[C:1]([C@@:2]([O:3][H:12])([C@@:6]([C:5]([C:4][H:13])([H:14])[H:15])([O:7][H:17])[H:16])[H:11])([H:8])([H:9])[H:10]"
C        2.02156898      -0.07730745      -0.53071780
C        0.78560364       0.27667758       0.25927634
O        0.07255898       1.34604958      -0.39005761
C       -1.56116331       0.99256759      -0.25001178
C       -1.51498171      -0.10069067       0.78666368
C       -0.22771422      -0.85551215       0.46140555
O       -0.38236308      -1.64991407      -0.69106988
H        2.66011008       0.79666638      -0.66128299
H        1.75234834      -0.47777063      -1.50801056
H        2.59004535      -0.84354193      -0.00104428
H        1.05713465       0.67288337       1.24357622
H       -0.60393968       1.13288398      -1.31384417
H       -1.95474628       1.93281148       0.14324428
H       -1.49673309       0.26371863       1.81979067
H       -2.37726333      -0.76139921       0.67452166
H        0.09250058      -1.52270305       1.26420879
H       -0.91296589      -1.12541942      -1.30664811
17
Frame=9 idx=007401 GeodesicLength=0.5767729613159399 rxn_smarts="[C:1]([C@@:2]1([H:11])[O:3][C:4]([H:12])([H:13])[C:5]([H:14])([H:15])[C@:6]1([O:7][H:17])[H:16])([H:8])([H:9])[H:10]>>[C:1]([C@@:2]([O:3][H:12])([C@@:6]([C:5]([C:4][H:13])([H:14])[H:15])([O:7][H:17])[H:16])[H:11])([H:8])([H:9])[H:10]"
C        2.02084522      -0.07781818      -0.52993211
C        0.78349750       0.27457861       0.25821682
O        0.06779609       1.33773115      -0.39742114
C       -1.55185194       0.99981605      -0.24368759
C       -1.51525109      -0.10216156       0.78601776
C       -0.22775253      -0.85803294       0.46402044
O       -0.38111864      -1.65564996      -0.68633762
H        2.65644333       0.79778351      -0.66423534
H        1.75369164      -0.48401376      -1.50546429
H        2.59228428      -0.83919200       0.00349816
H        1.05266337       0.67615485       1.24126337
H       -0.62500495       1.14468874      -1.33247625
H       -1.93812643       1.93930719       0.15938317
H       -1.50171099       0.25592349       1.82135253
H       -2.37879027      -0.75946074       0.66536598
H        0.09235712      -1.52292996       1.26874839
H       -0.89997172      -1.12672448      -1.30831226
17
Frame=10 idx=007401 GeodesicLength=0.6407324786649924 rxn_smarts="[C:1]([C@@:2]1([H:11])[O:3][C:4]([H:12])([H:13])[C:5]([H:14])([H:15])[C@:6]1([O:7][H:17])[H:16])([H:8])([H:9])[H:10]>>[C:1]([C@@:2]([O:3][H:12])([C@@:6]([C:5]([C:4][H:13])([H:14])[H:15])([O:7][H:17])[H:16])[H:11])([H:8])([H:9])[H:10]"
C        2.02015769      -0.07838593      -0.52912518
C        0.78143922       0.27245023       0.25717468
O        0.06310267       1.32921655      -0.40499157
C       -1.54251435       1.00692886      -0.23747581
C       -1.51551904      -0.10360520       0.78525740
C       -0.22777160      -0.86055498       0.46665609
O       -0.37982894      -1.66139635      -0.68157368
H        2.65283847       0.79879661      -0.66716516
H        1.75509932      -0.49028194      -1.50287679
H        2.59451191      -0.83488022       0.00805249
H        1.04817865       0.67949234       1.23890169
H       -0.64707569       1.15712572      -1.35057445
H       -1.92105393       1.94564396       0.17549352
H       -1.50678539       0.24822710       1.82271174
H       -2.38023563      -0.75747304       0.65610719
H        0.09218342      -1.52312163       1.27334408
H       -0.88672679      -1.12818208      -1.30991623
17
Frame=11 idx=007401 GeodesicLength=0.704699976963941 rxn_smarts="[C:1]([C@@:2]1([H:11])[O:3][C:4]([H:12])([H:13])[C:5]([H:14])([H:15])[C@:6]1([O:7][H:17])[H:16])([H:8])([H:9])[H:10]>>[C:1]([C@@:2]([O:3][H:12])([C@@:6]([C:5]([C:4][H:13])([H:14])[H:15])([O:7][H:17])[H:16])[H:11])([H:8])([H:9])[H:10]"
C        2.01951038      -0.07901187      -0.52829436
C        0.77942711       0.27029364       0.25614323
O        0.05846840       1.32049510      -0.41277596
C       -1.53314703       1.01390903      -0.23138134
C       -1.51578540      -0.10502182       0.78437772
C       -0.22777165      -0.86307857       0.46930935
O       -0.37849476      -1.66715574      -0.67678036
H        2.64929210       0.79970864      -0.67007942
H        1.75658189      -0.49659094      -1.50024079
H        2.59673471      -0.83059731       0.01263377
H        1.04367580       0.68290138       1.23648166
H       -0.67016494       1.17021860      -1.36810368
H       -1.90350996       1.95181355       0.19156940
H       -1.51195732       0.24062998       1.82386356
H       -2.38159909      -0.75543692       0.64673879
H        0.09197940      -1.52327619       1.27799357
H       -0.87323962      -1.12980055      -1.31145513
17
Frame=12 idx=007401 GeodesicLength=0.7686955834878918 rxn_smarts="[C:1]([C@@:2]1([H:11])[O:3][C:4]([H:12])([H:13])[C:5]([H:14])([H:15])[C@:6]1([O:7][H:17])[H:16])([H:8])([H:9])[H:10]>>[C:1]([C@@:2]([O:3][H:12])([C@@:6]([C:5]([C:4][H:13])([H:14])[H:15])([O:7][H:17])[H:16])[H:11])([H:8])([H:9])[H:10]"
C        2.01890610      -0.07969603      -0.52743776
C        0.77746013       0.26810948       0.25511743
O        0.05388612       1.31156173      -0.42077336
C       -1.52374503       1.02075717      -0.22541422
C       -1.51605023      -0.10641097       0.78337307
C       -0.22775299      -0.86560382       0.47197779
O       -0.37711531      -1.67293114      -0.67195786
H        2.64580161       0.80052305      -0.67298347
H        1.75814677      -0.50295067      -1.49755140
H        2.59895736      -0.82633628       0.01725115
H        1.03915318       0.68638190       1.23399684
H       -0.69428460       1.18398528      -1.38503075
H       -1.88548072       1.95780988       0.20760224
H       -1.51722854       0.23313568       1.82480168
H       -2.38288005      -0.75335328       0.63725518
H        0.09174380      -1.52339096       1.28269649
H       -0.85951759      -1.13159101      -1.31292305
17
Frame=13 idx=007401 GeodesicLength=0.8327106039281928 rxn_smarts="[C:1]([C@@:2]1([H:11])[O:3][C:4]([H:12])([H:13])[C:5]([H:14])([H:15])[C@:6]1([O:7][H:17])[H:16])([H:8])([H:9])[H:10]>>[C:1]([C@@:2]([O:3][H:12])([C@@:6]([C:5]([C:4][H:13])([H:14])[H:15])([O:7][H:17])[H:16])[H:11])([H:8])([H:9])[H:10]"
C        2.01834751      -0.08043903      -0.52655430
C        0.77553583       0.26589904       0.25408981
O        0.04934281       1.30240397      -0.42898948
C       -1.51430197       1.02747605      -0.21958183
C       -1.51631474      -0.10777301       0.78223620
C       -0.22771615      -0.86813104       0.47465928
O       -0.37569018      -1.67872707      -0.66710502
H        2.64236160       0.80124298      -0.67588805
H        1.75980308      -0.50937738      -1.49480140
H        2.60118576      -0.82208539       0.02191777
H        1.03460624       0.68993967       1.23143554
H       -0.71944161       1.19845665      -1.40130714
H       -1.86694357       1.96362114       0.22358456
H       -1.52260366       0.22574482       1.82551886
H       -2.38407881      -0.75122251       0.62764554
H        0.09147610      -1.52346153       1.28745365
H       -0.84556825      -1.13356734      -1.31431400
17
Frame=14 idx=007401 GeodesicLength=0.896760740464656 rxn_smarts="[C:1]([C@@:2]1([H:11])[O:3][C:4]([H:12])([H:13])[C:5]([H:14])([H:15])[C@:6]1([O:7][H:17])[H:16])([H:8])([H:9])[H:10]>>[C:1]([C@@:2]([O:3][H:12])([C@@:6]([C:5]([C:4][H:13])([H:14])[H:15])([O:7][H:17])[H:16])[H:11])([H:8])([H:9])[H:10]"
C        2.01783657      -0.08124043      -0.52564372
C        0.77365364       0.26366269       0.25305576
O        0.04483304       1.29301933      -0.43741892
C       -1.50481317       1.03406472      -0.21389707
C       -1.51657924      -0.10910719       0.78096066
C       -0.22766129      -0.87065991       0.47735261
O       -0.37421736      -1.68454777      -0.66221992
H        2.63896871       0.80187139      -0.67879984
H        1.76155600      -0.51587928      -1.49198722
H        2.60342362      -0.81783800       0.02663914
H        1.03003562       0.69357200       1.22879253
H       -0.74564118       1.21365385      -1.41688956
H       -1.84789017       1.96923745       0.23949998
H       -1.52808553       0.21846374       1.82600693
H       -2.38519449      -0.74904583       0.61790350
H        0.09117472      -1.52348401       1.29226651
H       -0.83139949      -1.13574274      -1.31562138
17
Frame=15 idx=007401 GeodesicLength=0.9608526819090044 rxn_smarts="[C:1]([C@@:2]1([H:11])[O:3][C:4]([H:12])([H:13])[C:5]([H:14])([H:15])[C@:6]1([O:7][H:17])[H:16])([H:8])([H:9])[H:10]>>[C:1]([C@@:2]([O:3][H:12])([C@@:6]([C:5]([C:4][H:13])([H:14])[H:15])([O:7][H:17])[H:16])[H:11])([H:8])([H:9])[H:10]"
C        2.01737522      -0.08210038      -0.52470660
C        0.77181291       0.26140104       0.25201041
O        0.04035015       1.28340362      -0.44605714
C       -1.49527275       1.04052232      -0.20837395
C       -1.51684441      -0.11041320       0.77953897
C       -0.22758842      -0.87319015       0.48005726
O       -0.37269391      -1.69039917      -0.65729972
H        2.63561906       0.80241032      -0.68172808
H        1.76341066      -0.52246647      -1.48910548
H        2.60567524      -0.81358685       0.03142110
H        1.02544171       0.69727800       1.22606198
H       -0.77288549       1.22960438      -1.43172656
H       -1.82831456       1.97464869       0.25533023
H       -1.53367823       0.21129812       1.82625702
H       -2.38622655      -0.74682490       0.60802120
H        0.09083839      -1.52345358       1.29713774
H       -0.81701900      -1.13813180      -1.31683838
17
Frame=16 idx=007401 GeodesicLength=1.0249884319562628 rxn_smarts="[C:1]([C@@:2]1([H:11])[O:3][C:4]([H:12])([H:13])[C:5]([H:14])([H:15])[C@:6]1([O:7][H:17])[H:16])([H:8])([H:9])[H:10]>>[C:1]([C@@:2]([O:3][H:12])([C@@:6]([C:5]([C:4][H:13])([H:14])[H:15])([O:7][H:17])[H:16])[H:11])([H:8])([H:9])[H:10]"
C        2.01696484      -0.08301864      -0.52374408
C        0.77001265       0.25911457       0.25094833
O        0.03588704       1.27355265      -0.45489933
C       -1.48567491       1.04684798      -0.20302662
C       -1.51711153      -0.11169055       0.77796311
C       -0.22749777      -0.87572136       0.48277280
O       -0.37111679      -1.69628751      -0.65234055
H        2.63230771       0.80286218      -0.68468322
H        1.76537162      -0.52914938      -1.48615233
H        2.60794465      -0.80932316       0.03626923
H        1.02082481       0.70105698       1.22323711
H       -0.80117296       1.24633627      -1.44576149
H       -1.80820915       1.97984231       0.27105564
H       -1.53938666       0.20425385       1.82625967
H       -2.38717462      -0.74456141       0.59798940
H        0.09046562      -1.52336452       1.30207078
H       -0.80243455      -1.14075027      -1.31795846
