14
Frame=0 idx=007759 GeodesicLength=0.0 rxn_smarts="[C:1]([C:2]1=[C:3]([H:11])/[C:4](=[N:5]/[H:12])[O:6][C:7]1([H:13])[H:14])([H:8])([H:9])[H:10]>>[C:1]([C:2]1=[C:3]=[C:4]([N:5]([H:11])[H:12])[O:6][C:7]1([H:13])[H:14])([H:8])([H:9])[H:10]"
C       -2.09469784      -0.33490301      -0.29730869
C       -0.63287255      -0.11933280      -0.09464625
C        0.38972120      -0.98759616      -0.12974852
C        1.53578062      -0.16269854       0.14579902
N        2.58957647      -0.90976264       0.14059896
O        1.32699797       1.12006674       0.34335285
C       -0.11018901       1.27535047       0.20660176
H       -2.66870105      -0.02242983       0.58013156
H       -2.46768264       0.24536322      -1.14652926
H       -2.29799368      -1.38756365      -0.48494298
H        1.67976682      -1.80455159      -0.11899143
H        3.53452303      -0.59704517       0.30813465
H       -0.49102771       1.69052682       1.14361730
H       -0.29320166       1.99457610      -0.59606892
14
Frame=1 idx=007759 GeodesicLength=0.037866945233797245 rxn_smarts="[C:1]([C:2]1=[C:3]([H:11])/[C:4](=[N:5]/[H:12])[O:6][C:7]1([H:13])[H:14])([H:8])([H:9])[H:10]>>[C:1]([C:2]1=[C:3]=[C:4]([N:5]([H:11])[H:12])[O:6][C:7]1([H:13])[H:14])([H:8])([H:9])[H:10]"
C       -2.09333898      -0.33431271      -0.29843444
C       -0.63256141      -0.11867661      -0.08946514
C        0.38654780      -0.99147097      -0.11210535
C        1.53197935      -0.17209322       0.18848350
N        2.59168375      -0.90895890       0.12768740
O        1.32640210       1.11754975       0.35063857
C       -0.10845328       1.27548878       0.20655587
H       -2.67108254      -0.01790384       0.57512374
H       -2.46175659       0.24347190      -1.15131598
H       -2.29645336      -1.38748813      -0.48340586
H        1.67644258      -1.81348994      -0.14218486
H        3.53151513      -0.57961064       0.29279988
H       -0.49538333       1.69804905       1.13782498
H       -0.28554121       1.98944549      -0.60220232
14
Frame=2 idx=007759 GeodesicLength=0.07579304879932106 rxn_smarts="[C:1]([C:2]1=[C:3]([H:11])/[C:4](=[N:5]/[H:12])[O:6][C:7]1([H:13])[H:14])([H:8])([H:9])[H:10]>>[C:1]([C:2]1=[C:3]=[C:4]([N:5]([H:11])[H:12])[O:6][C:7]1([H:13])[H:14])([H:8])([H:9])[H:10]"
C       -2.09193436      -0.33380515      -0.29921250
C       -0.63192147      -0.11781148      -0.08640856
C        0.38395677      -0.99456644      -0.09951224
C        1.52937518      -0.17994714       0.22046961
N        2.59260717      -0.90822457       0.12038035
O        1.32646024       1.11503815       0.35365457
C       -0.10642976       1.27543217       0.20626210
H       -2.67190978      -0.01513512       0.57202681
H       -2.45758653       0.24273443      -1.15410361
H       -2.29476757      -1.38727420      -0.48286461
H        1.67212950      -1.82270283      -0.16030101
H        3.52721664      -0.56251789       0.28217358
H       -0.49714123       1.70284955       1.13379060
H       -0.28005482       1.98593054      -0.60635510
14
Frame=3 idx=007759 GeodesicLength=0.11370569869394184 rxn_smarts="[C:1]([C:2]1=[C:3]([H:11])/[C:4](=[N:5]/[H:12])[O:6][C:7]1([H:13])[H:14])([H:8])([H:9])[H:10]>>[C:1]([C:2]1=[C:3]=[C:4]([N:5]([H:11])[H:12])[O:6][C:7]1([H:13])[H:14])([H:8])([H:9])[H:10]"
C       -2.09058714      -0.33342442      -0.29939582
C       -0.63105478      -0.11664885      -0.08516951
C        0.38196521      -0.99679184      -0.09162689
C        1.52769978      -0.18624152       0.24398425
N        2.59326075      -0.90754925       0.11539519
O        1.32696964       1.11303343       0.35272566
C       -0.10435727       1.27545739       0.20548433
H       -2.67136503      -0.01398668       0.57101359
H       -2.45530319       0.24287871      -1.15482864
H       -2.29295328      -1.38703099      -0.48281886
H        1.66738463      -1.83229359      -0.17534156
H        3.52207431      -0.54705070       0.27888257
H       -0.49695714       1.70574795       1.13094697
H       -0.27677648       1.98390036      -0.60925128
14
Frame=4 idx=007759 GeodesicLength=0.15161339607036822 rxn_smarts="[C:1]([C:2]1=[C:3]([H:11])/[C:4](=[N:5]/[H:12])[O:6][C:7]1([H:13])[H:14])([H:8])([H:9])[H:10]>>[C:1]([C:2]1=[C:3]=[C:4]([N:5]([H:11])[H:12])[O:6][C:7]1([H:13])[H:14])([H:8])([H:9])[H:10]"
C       -2.08923122      -0.33308281      -0.29947806
C       -0.63007391      -0.11534470      -0.08473380
C        0.38025473      -0.99861414      -0.08568797
C        1.52648104      -0.19167742       0.26329289
N        2.59377378      -0.90709924       0.11241096
O        1.32764188       1.11122850       0.35024907
C       -0.10229801       1.27552061       0.20465087
H       -2.67028846      -0.01352929       0.57068801
H       -2.45371173       0.24342732      -1.15485408
H       -2.29103150      -1.38675931      -0.48316807
H        1.66229101      -1.84227431      -0.18813932
H        3.51668847      -0.53210920       0.27727007
H       -0.49597639       1.70767843       1.12884633
H       -0.27451970       1.98263555      -0.61134689
14
Frame=5 idx=007759 GeodesicLength=0.18952165051886552 rxn_smarts="[C:1]([C:2]1=[C:3]([H:11])/[C:4](=[N:5]/[H:12])[O:6][C:7]1([H:13])[H:14])([H:8])([H:9])[H:10]>>[C:1]([C:2]1=[C:3]=[C:4]([N:5]([H:11])[H:12])[O:6][C:7]1([H:13])[H:14])([H:8])([H:9])[H:10]"
C       -2.08785350      -0.33277078      -0.29952311
C       -0.62901043      -0.11394286      -0.08479588
C        0.37874638      -1.00015674      -0.08094475
C        1.52557621      -0.19649162       0.27984963
N        2.59425441      -0.90671743       0.11043191
O        1.32839537       1.10956863       0.34685696
C       -0.10026727       1.27562586       0.20381809
H       -2.66888907      -0.01350853       0.57075075
H       -2.45252309       0.24421367      -1.15448191
H       -2.28901226      -1.38647831      -0.48378526
H        1.65690020      -1.85262433      -0.19923687
H        3.51114837      -0.51759957       0.27668863
H       -0.49453266       1.70899081       1.12726094
H       -0.27293267       1.98189120      -0.61288911
14
Frame=6 idx=007759 GeodesicLength=0.22742678713270575 rxn_smarts="[C:1]([C:2]1=[C:3]([H:11])/[C:4](=[N:5]/[H:12])[O:6][C:7]1([H:13])[H:14])([H:8])([H:9])[H:10]>>[C:1]([C:2]1=[C:3]=[C:4]([N:5]([H:11])[H:12])[O:6][C:7]1([H:13])[H:14])([H:8])([H:9])[H:10]"
C       -2.08643401      -0.33247411      -0.29961237
C       -0.62789522      -0.11250610      -0.08502790
C        0.37732562      -1.00158380      -0.07651012
C        1.52486037      -0.20089814       0.29480183
N        2.59469487      -0.90642455       0.10937052
O        1.32916604       1.10795014       0.34317011
C       -0.09825833       1.27574683       0.20306635
H       -2.66739132      -0.01363172       0.57085249
H       -2.45139486       0.24505805      -1.15405963
H       -2.28691385      -1.38620245      -0.48454240
H        1.65125047      -1.86319094      -0.20942989
H        3.50554434      -0.50323235       0.27599491
H       -0.49289694       1.70998375       1.12600211
H       -0.27165719       1.98140539      -0.61407601
14
Frame=7 idx=007759 GeodesicLength=0.2653580333240387 rxn_smarts="[C:1]([C:2]1=[C:3]([H:11])/[C:4](=[N:5]/[H:12])[O:6][C:7]1([H:13])[H:14])([H:8])([H:9])[H:10]>>[C:1]([C:2]1=[C:3]=[C:4]([N:5]([H:11])[H:12])[O:6][C:7]1([H:13])[H:14])([H:8])([H:9])[H:10]"
C       -2.08498102      -0.33221103      -0.29967519
C       -0.62673376      -0.11104111      -0.08537245
C        0.37598654      -1.00290810      -0.07227113
C        1.52431693      -0.20493659       0.30846680
N        2.59517148      -0.90604998       0.10855788
O        1.32994437       1.10639685       0.33921935
C       -0.09627303       1.27590042       0.20233124
H       -2.66580014      -0.01386628       0.57104926
H       -2.45034066       0.24589084      -1.15354978
H       -2.28474472      -1.38596094      -0.48530424
H        1.64538219      -1.87385551      -0.21924874
H        3.49982995      -0.48924822       0.27592535
H       -0.49111850       1.71078619       1.12493641
H       -0.27063964       1.98110346      -0.61506476
14
Frame=8 idx=007759 GeodesicLength=0.3032585673583942 rxn_smarts="[C:1]([C:2]1=[C:3]([H:11])/[C:4](=[N:5]/[H:12])[O:6][C:7]1([H:13])[H:14])([H:8])([H:9])[H:10]>>[C:1]([C:2]1=[C:3]=[C:4]([N:5]([H:11])[H:12])[O:6][C:7]1([H:13])[H:14])([H:8])([H:9])[H:10]"
C       -2.08347599      -0.33196639      -0.29980014
C       -0.62553535      -0.10958102      -0.08567637
C        0.37467692      -1.00420678      -0.06784278
C        1.52388775      -0.20872453       0.32142036
N        2.59562869      -0.90570336       0.10828656
O        1.33070688       1.10484283       0.33534043
C       -0.09430278       1.27606024       0.20169578
H       -2.66423897      -0.01406716       0.57111018
H       -2.44915851       0.24664723      -1.15317379
H       -2.28250436      -1.38574968      -0.48607698
H        1.63926981      -1.88458364      -0.22880878
H        3.49407106      -0.47533763       0.27537411
H       -0.48932495       1.71149334       1.12403141
H       -0.26970020       1.98087657      -0.61587998
14
Frame=9 idx=007759 GeodesicLength=0.34114059263101637 rxn_smarts="[C:1]([C:2]1=[C:3]([H:11])/[C:4](=[N:5]/[H:12])[O:6][C:7]1([H:13])[H:14])([H:8])([H:9])[H:10]>>[C:1]([C:2]1=[C:3]=[C:4]([N:5]([H:11])[H:12])[O:6][C:7]1([H:13])[H:14])([H:8])([H:9])[H:10]"
C       -2.08192575      -0.33175557      -0.29991216
C       -0.62430349      -0.10813577      -0.08591752
C        0.37339443      -1.00548922      -0.06322490
C        1.52355986      -0.21228556       0.33373268
N        2.59605122      -0.90537104       0.10865919
O        1.33145725       1.10329443       0.33147028
C       -0.09233802       1.27623088       0.20108872
H       -2.66268123      -0.01421928       0.57112022
H       -2.44788420       0.24728263      -1.15286185
H       -2.28020631      -1.38559089      -0.48674132
H        1.63296160      -1.89519961      -0.23874534
H        3.48823332      -0.46161152       0.27478797
H       -0.48749559       1.71217855       1.12318426
H       -0.26882309       1.98067195      -0.61664022
14
Frame=10 idx=007759 GeodesicLength=0.3790462885202109 rxn_smarts="[C:1]([C:2]1=[C:3]([H:11])/[C:4](=[N:5]/[H:12])[O:6][C:7]1([H:13])[H:14])([H:8])([H:9])[H:10]>>[C:1]([C:2]1=[C:3]=[C:4]([N:5]([H:11])[H:12])[O:6][C:7]1([H:13])[H:14])([H:8])([H:9])[H:10]"
C       -2.08032403      -0.33156751      -0.30007239
C       -0.62303716      -0.10669279      -0.08610200
C        0.37215198      -1.00672510      -0.05849188
C        1.52334470      -0.21561460       0.34547421
N        2.59652767      -0.90495627       0.10901952
O        1.33219070       1.10177796       0.32764328
C       -0.09039384       1.27641670       0.20057184
H       -2.66114569      -0.01436473       0.57102158
H       -2.44649354       0.24785214      -1.15265523
H       -2.27783152      -1.38546198      -0.48743454
H        1.62635588      -1.90595804      -0.24828669
H        3.48234801      -0.44803041       0.27407547
H       -0.48565272       1.71279030       1.12248537
H       -0.26804043       1.98053432      -0.61724853
14
Frame=11 idx=007759 GeodesicLength=0.416972904217502 rxn_smarts="[C:1]([C:2]1=[C:3]([H:11])/[C:4](=[N:5]/[H:12])[O:6][C:7]1([H:13])[H:14])([H:8])([H:9])[H:10]>>[C:1]([C:2]1=[C:3]=[C:4]([N:5]([H:11])[H:12])[O:6][C:7]1([H:13])[H:14])([H:8])([H:9])[H:10]"
C       -2.07867789      -0.33141525      -0.30022428
C       -0.62174000      -0.10526278      -0.08620074
C        0.37094424      -1.00793019      -0.05358498
C        1.52322694      -0.21873764       0.35677369
N        2.59704480      -0.90445086       0.10948364
O        1.33290704       1.10029094       0.32385224
C       -0.08846405       1.27662126       0.20008721
H       -2.65962634      -0.01448400       0.57086875
H       -2.44500515       0.24831336      -1.15251312
H       -2.27539266      -1.38538329      -0.48805554
H        1.61949811      -1.91668640      -0.25799948
H        3.47640723      -0.43469292       0.27350102
H       -0.48380819       1.71340888       1.12183291
H       -0.26731407       1.98040889      -0.61782132
14
Frame=12 idx=007759 GeodesicLength=0.4548785631724669 rxn_smarts="[C:1]([C:2]1=[C:3]([H:11])/[C:4](=[N:5]/[H:12])[O:6][C:7]1([H:13])[H:14])([H:8])([H:9])[H:10]>>[C:1]([C:2]1=[C:3]=[C:4]([N:5]([H:11])[H:12])[O:6][C:7]1([H:13])[H:14])([H:8])([H:9])[H:10]"
C       -2.07698602      -0.33130025      -0.30036295
C       -0.62041254      -0.10385806      -0.08618573
C        0.36976537      -1.00912187      -0.04846196
C        1.52319097      -0.22169160       0.36776801
N        2.59756035      -0.90391887       0.11030734
O        1.33360910       1.09881312       0.32014156
C       -0.08653883       1.27683544       0.19962821
H       -2.65813601      -0.01453662       0.57064206
H       -2.44339159       0.24863793      -1.15246038
H       -2.27289698      -1.38536186      -0.48855929
H        1.61239646      -1.92729432      -0.26813253
H        3.47041588      -0.42152679       0.27288088
H       -0.48197588       1.71406544       1.12119009
H       -0.26660027       1.98025831      -0.61839531
14
Frame=13 idx=007759 GeodesicLength=0.49280555252129843 rxn_smarts="[C:1]([C:2]1=[C:3]([H:11])/[C:4](=[N:5]/[H:12])[O:6][C:7]1([H:13])[H:14])([H:8])([H:9])[H:10]>>[C:1]([C:2]1=[C:3]=[C:4]([N:5]([H:11])[H:12])[O:6][C:7]1([H:13])[H:14])([H:8])([H:9])[H:10]"
C       -2.07524979      -0.33121605      -0.30050716
C       -0.61905237      -0.10248503      -0.08604038
C        0.36861692      -1.01032186      -0.04305593
C        1.52323839      -0.22452570       0.37861352
N        2.59809546      -0.90337504       0.11144497
O        1.33429982       1.09732131       0.31659572
C       -0.08461946       1.27705714       0.19920684
H       -2.65670124      -0.01451191       0.57031888
H       -2.44163564       0.24884136      -1.15253289
H       -2.27033950      -1.38539390      -0.48897193
H        1.60502108      -1.93780505      -0.27864842
H        3.46438723      -0.40844083       0.27202321
H       -0.48020491       1.71478685       1.12055181
H       -0.26585599       1.98006872      -0.61899824
14
Frame=14 idx=007759 GeodesicLength=0.5307331823825171 rxn_smarts="[C:1]([C:2]1=[C:3]([H:11])/[C:4](=[N:5]/[H:12])[O:6][C:7]1([H:13])[H:14])([H:8])([H:9])[H:10]>>[C:1]([C:2]1=[C:3]=[C:4]([N:5]([H:11])[H:12])[O:6][C:7]1([H:13])[H:14])([H:8])([H:9])[H:10]"
C       -2.07345051      -0.33117585      -0.30062725
C       -0.61765475      -0.10112275      -0.08585395
C        0.36748678      -1.01146922      -0.03759052
C        1.52332409      -0.22714416       0.38901094
N        2.59862753      -0.90285487       0.11308653
O        1.33497812       1.09586644       0.31299428
C       -0.08267920       1.27728014       0.19878934
H       -2.65520494      -0.01451295       0.56997663
H       -2.43979564       0.24894969      -1.15258845
H       -2.26771275      -1.38547018      -0.48932853
H        1.59733762      -1.94823354      -0.28946665
H        3.45822740      -0.39545567       0.27122039
H       -0.47834229       1.71547261       1.11991857
H       -0.26514147       1.97987031      -0.61954134
14
Frame=15 idx=007759 GeodesicLength=0.5686892937111757 rxn_smarts="[C:1]([C:2]1=[C:3]([H:11])/[C:4](=[N:5]/[H:12])[O:6][C:7]1([H:13])[H:14])([H:8])([H:9])[H:10]>>[C:1]([C:2]1=[C:3]=[C:4]([N:5]([H:11])[H:12])[O:6][C:7]1([H:13])[H:14])([H:8])([H:9])[H:10]"
C       -2.07161137      -0.33116935      -0.30074351
C       -0.61622205      -0.09978011      -0.08557769
C        0.36641402      -1.01259303      -0.03198924
C        1.52349188      -0.22964758       0.39932597
N        2.59921252      -0.90226614       0.11483286
O        1.33564799       1.09441637       0.30952365
C       -0.08075236       1.27752196       0.19839190
H       -2.65373977      -0.01448397       0.56958601
H       -2.43786636       0.24896282      -1.15272322
H       -2.26501616      -1.38560016      -0.48961334
H        1.58935537      -1.95861505      -0.30052602
H        3.45205321      -0.38262305       0.27035089
H       -0.47654924       1.71622021       1.11928614
H       -0.26441767       1.97965709      -0.62012440
14
Frame=16 idx=007759 GeodesicLength=0.6066512556211952 rxn_smarts="[C:1]([C:2]1=[C:3]([H:11])/[C:4](=[N:5]/[H:12])[O:6][C:7]1([H:13])[H:14])([H:8])([H:9])[H:10]>>[C:1]([C:2]1=[C:3]=[C:4]([N:5]([H:11])[H:12])[O:6][C:7]1([H:13])[H:14])([H:8])([H:9])[H:10]"
C       -2.06973568      -0.33120289      -0.30081879
C       -0.61475064      -0.09842910      -0.08533265
C        0.36542037      -1.01363210      -0.02654481
C        1.52372901      -0.23197146       0.40931159
N        2.59985481      -0.90158443       0.11664974
O        1.33631173       1.09302111       0.30596734
C       -0.07883450       1.27779486       0.19796384
H       -2.65220104      -0.01454689       0.56927866
H       -2.43597144       0.24894574      -1.15277819
H       -2.26224813      -1.38577202      -0.48987907
H        1.58107406      -1.96903446      -0.31164492
H        3.44585315      -0.37003526       0.26986801
H       -0.47472879       1.71695165       1.11866051
H       -0.26377290       1.97949525      -0.62070126
