10
Frame=0 idx=004914 GeodesicLength=0.0 rxn_smarts="[N:1]([C:2](=[O:3])[C:4]([O:5][H:10])([H:8])[H:9])([H:6])[H:7]>>[H:6][H:8].[N:1](=[C:2]1\[O:3][C@:4]1([O:5][H:10])[H:9])\[H:7]"
N        1.62664398      -0.25452516      -0.19471794
C        0.61521065      -0.44606730       0.58007594
O        0.34649040      -0.97166160       1.67614133
C       -0.71725489       0.02166523       0.05032167
O       -1.25044092       1.09506168       0.53836217
H        0.63529064       0.31424761      -1.33405851
H        2.49609910      -0.63156170       0.15890391
H       -0.15020844       0.49957681      -1.56577419
H       -1.39370485      -0.73904833      -0.34038502
H       -2.20812568       1.11231276       0.43113064
10
Frame=1 idx=004914 GeodesicLength=0.09484965500326961 rxn_smarts="[N:1]([C:2](=[O:3])[C:4]([O:5][H:10])([H:8])[H:9])([H:6])[H:7]>>[H:6][H:8].[N:1](=[C:2]1\[O:3][C@:4]1([O:5][H:10])[H:9])\[H:7]"
N        1.62604901      -0.25462770      -0.19791400
C        0.60952195      -0.45794413       0.56805277
O        0.30880223      -1.02595318       1.63494586
C       -0.72061528       0.01782901       0.04554653
O       -1.22316352       1.11584356       0.52602232
H        0.65682828       0.28145097      -1.36255905
H        2.50844342      -0.54050898       0.20552575
H       -0.15714628       0.46446148      -1.58079492
H       -1.42316478      -0.73031379      -0.32194271
H       -2.18555503       1.12976276       0.48311745
10
Frame=2 idx=004914 GeodesicLength=0.18966272498980807 rxn_smarts="[N:1]([C:2](=[O:3])[C:4]([O:5][H:10])([H:8])[H:9])([H:6])[H:7]>>[H:6][H:8].[N:1](=[C:2]1\[O:3][C@:4]1([O:5][H:10])[H:9])\[H:7]"
N        1.62555636      -0.25702077      -0.20051483
C        0.60345667      -0.47164267       0.55581698
O        0.27244594      -1.07727975       1.59325082
C       -0.72403532       0.01264945       0.04066260
O       -1.19577126       1.13392371       0.51363904
H        0.68037480       0.24907973      -1.38935400
H        2.51138077      -0.44537428       0.24998681
H       -0.16285130       0.42949946      -1.59441060
H       -1.45205283      -0.72146425      -0.30405172
H       -2.15850382       1.14762937       0.53497488
10
Frame=3 idx=004914 GeodesicLength=0.28477405596413446 rxn_smarts="[N:1]([C:2](=[O:3])[C:4]([O:5][H:10])([H:8])[H:9])([H:6])[H:7]>>[H:6][H:8].[N:1](=[C:2]1\[O:3][C@:4]1([O:5][H:10])[H:9])\[H:7]"
N        1.62577205      -0.25789469      -0.20093347
C        0.59752837      -0.48476115       0.54457908
O        0.23775579      -1.12472500       1.55212612
C       -0.72755850       0.00661473       0.03592993
O       -1.17006707       1.14954204       0.50083944
H        0.70641675       0.21839595      -1.41402689
H        2.50564557      -0.35361535       0.28890661
H       -0.16719686       0.39506430      -1.60667914
H       -1.47939136      -0.71310958      -0.28650775
H       -2.12890475       1.16448875       0.58576606
10
Frame=4 idx=004914 GeodesicLength=0.3800595045910712 rxn_smarts="[N:1]([C:2](=[O:3])[C:4]([O:5][H:10])([H:8])[H:9])([H:6])[H:7]>>[H:6][H:8].[N:1](=[C:2]1\[O:3][C@:4]1([O:5][H:10])[H:9])\[H:7]"
N        1.62624311      -0.25804855      -0.19954101
C        0.59146746      -0.49722536       0.53415854
O        0.20414003      -1.16858738       1.51131395
C       -0.73124048      -0.00000706       0.03102931
O       -1.14595193       1.16326437       0.48710712
H        0.73496558       0.18869266      -1.43688463
H        2.49234271      -0.26418265       0.32322251
H       -0.17017097       0.36112927      -1.61788729
H       -1.50540382      -0.70495660      -0.26956937
H       -2.09639169       1.17992130       0.63705088
10
Frame=5 idx=004914 GeodesicLength=0.4756240428429365 rxn_smarts="[N:1]([C:2](=[O:3])[C:4]([O:5][H:10])([H:8])[H:9])([H:6])[H:7]>>[H:6][H:8].[N:1](=[C:2]1\[O:3][C@:4]1([O:5][H:10])[H:9])\[H:7]"
N        1.62692652      -0.25697075      -0.19650116
C        0.58528552      -0.50923406       0.52427860
O        0.17170701      -1.20927570       1.47086421
C       -0.73524307      -0.00724027       0.02601218
O       -1.12351611       1.17517555       0.47268466
H        0.76592550       0.16031504      -1.45803919
H        2.47243887      -0.17749644       0.35353092
H       -0.17223608       0.32751059      -1.62825398
H       -1.53046803      -0.69710485      -0.25293865
H       -2.06082013       1.19432089       0.68836242
10
Frame=6 idx=004914 GeodesicLength=0.5714143518696385 rxn_smarts="[N:1]([C:2](=[O:3])[C:4]([O:5][H:10])([H:8])[H:9])([H:6])[H:7]>>[H:6][H:8].[N:1](=[C:2]1\[O:3][C@:4]1([O:5][H:10])[H:9])\[H:7]"
N        1.62765643      -0.25489259      -0.19204407
C        0.57905483      -0.52093354       0.51492909
O        0.14060704      -1.24769108       1.43052980
C       -0.73956929      -0.01507702       0.02123652
O       -1.10258398       1.18530367       0.45838791
H        0.79909480       0.13314767      -1.47743540
H        2.44660558      -0.09308923       0.37996690
H       -0.17380458       0.29444104      -1.63753087
H       -1.55470959      -0.68952643      -0.23618016
H       -2.02235122       1.20831753       0.73814027
10
Frame=7 idx=004914 GeodesicLength=0.6674154551046149 rxn_smarts="[N:1]([C:2](=[O:3])[C:4]([O:5][H:10])([H:8])[H:9])([H:6])[H:7]>>[H:6][H:8].[N:1](=[C:2]1\[O:3][C@:4]1([O:5][H:10])[H:9])\[H:7]"
N        1.62833097      -0.25167287      -0.18624485
C        0.57280941      -0.53208280       0.50617959
O        0.11087222      -1.28411990       1.39019381
C       -0.74424797      -0.02336359       0.01679404
O       -1.08325478       1.19388176       0.44439105
H        0.83447244       0.10700359      -1.49511983
H        2.41565352      -0.01143332       0.40262619
H       -0.17511054       0.26212114      -1.64572965
H       -1.57815254      -0.68219677      -0.21913147
H       -1.98137273       1.22186277       0.78604112
10
Frame=8 idx=004914 GeodesicLength=0.7635874969180761 rxn_smarts="[N:1]([C:2](=[O:3])[C:4]([O:5][H:10])([H:8])[H:9])([H:6])[H:7]>>[H:6][H:8].[N:1](=[C:2]1\[O:3][C@:4]1([O:5][H:10])[H:9])\[H:7]"
N        1.62883077      -0.24688120      -0.17924242
C        0.56658625      -0.54257564       0.49789312
O        0.08268309      -1.31871131       1.34973926
C       -0.74934361      -0.03204003       0.01277245
O       -1.06556026       1.20107699       0.43082146
H        0.87204424       0.08220756      -1.51109453
H        2.38052154       0.06662411       0.42191783
H       -0.17656179       0.23040671      -1.65294177
H       -1.60088809      -0.67518069      -0.20147440
H       -1.93831214       1.23507351       0.83160899
10
Frame=9 idx=004914 GeodesicLength=0.8599099912017721 rxn_smarts="[N:1]([C:2](=[O:3])[C:4]([O:5][H:10])([H:8])[H:9])([H:6])[H:7]>>[H:6][H:8].[N:1](=[C:2]1\[O:3][C@:4]1([O:5][H:10])[H:9])\[H:7]"
N        1.62901168      -0.24060046      -0.17113323
C        0.56032094      -0.55218342       0.49012953
O        0.05593634      -1.35155936       1.30906234
C       -0.75491781      -0.04095761       0.00910202
O       -1.04967044       1.20715222       0.41751710
H        0.91194528       0.05843390      -1.52542216
H        2.34200173       0.14097201       0.43807240
H       -0.17833430       0.19944622      -1.65929823
H       -1.62296656      -0.66844914      -0.18321174
H       -1.89332687       1.24774564       0.87518197
10
Frame=10 idx=004914 GeodesicLength=0.956424185863971 rxn_smarts="[N:1]([C:2](=[O:3])[C:4]([O:5][H:10])([H:8])[H:9])([H:6])[H:7]>>[H:6][H:8].[N:1](=[C:2]1\[O:3][C@:4]1([O:5][H:10])[H:9])\[H:7]"
N        1.62882070      -0.23306272      -0.16207241
C        0.55399560      -0.56125617       0.48265015
O        0.03062730      -1.38308963       1.26794600
C       -0.76096586      -0.05010170       0.00588068
O       -1.03523006       1.21222372       0.40480292
H        0.95433066       0.03547027      -1.53810982
H        2.30021967       0.21226666       0.45141318
H       -0.18071228       0.16930204      -1.66481581
H       -1.64453059      -0.66188891      -0.16406845
H       -1.84655513       1.26013643       0.91637356
10
Frame=11 idx=004914 GeodesicLength=1.0531441263782237 rxn_smarts="[N:1]([C:2](=[O:3])[C:4]([O:5][H:10])([H:8])[H:9])([H:6])[H:7]>>[H:6][H:8].[N:1](=[C:2]1\[O:3][C@:4]1([O:5][H:10])[H:9])\[H:7]"
N        1.62818766      -0.22435740      -0.15214879
C        0.54758847      -0.56983333       0.47536424
O        0.00673210      -1.41348816       1.22622212
C       -0.76750486      -0.05939600       0.00314714
O       -1.02213311       1.21644728       0.39278957
H        0.99944798       0.01309342      -1.54912145
H        2.25551906       0.28063207       0.46208219
H       -0.18396697       0.14008623      -1.66955489
H       -1.66562185      -0.65544876      -0.14386336
H       -1.79824848       1.27226465       0.95508323
10
Frame=12 idx=004914 GeodesicLength=1.1500868501974337 rxn_smarts="[N:1]([C:2](=[O:3])[C:4]([O:5][H:10])([H:8])[H:9])([H:6])[H:7]>>[H:6][H:8].[N:1](=[C:2]1\[O:3][C@:4]1([O:5][H:10])[H:9])\[H:7]"
N        1.62703449      -0.21446675      -0.14146278
C        0.54106817      -0.57795580       0.46810330
O       -0.01575887      -1.44282893       1.18375048
C       -0.77457882      -0.06878762       0.00090365
O       -1.01031393       1.21995894       0.38148650
H        1.04762487      -0.00877861      -1.55839437
H        2.20823683       0.34603425       0.47030709
H       -0.18843521       0.11179788      -1.67363356
H       -1.68629134      -0.64911556      -0.12236841
H       -1.74858620       1.28414221       0.99130809
10
Frame=13 idx=004914 GeodesicLength=1.247280156750682 rxn_smarts="[N:1]([C:2](=[O:3])[C:4]([O:5][H:10])([H:8])[H:9])([H:6])[H:7]>>[H:6][H:8].[N:1](=[C:2]1\[O:3][C@:4]1([O:5][H:10])[H:9])\[H:7]"
N        1.62530748      -0.20349862      -0.13009820
C        0.53441563      -0.58570581       0.46072401
O       -0.03687442      -1.47125820       1.14033996
C       -0.78220994      -0.07822125      -0.00079347
O       -0.99962413       1.22287372       0.37102859
H        1.09929412      -0.03037510      -1.56580420
H        2.15858153       0.40863679       0.47612633
H       -0.19446873       0.08457604      -1.67711020
H       -1.70655360      -0.64284955      -0.09934329
H       -1.69786796       1.29582198       1.02493045
10
Frame=14 idx=004914 GeodesicLength=1.3447591594295216 rxn_smarts="[N:1]([C:2](=[O:3])[C:4]([O:5][H:10])([H:8])[H:9])([H:6])[H:7]>>[H:6][H:8].[N:1](=[C:2]1\[O:3][C@:4]1([O:5][H:10])[H:9])\[H:7]"
N        1.62291097      -0.19136938      -0.11815733
C        0.52757580      -0.59310404       0.45297811
O       -0.05665959      -1.49875996       1.09581635
C       -0.79047546      -0.08764108      -0.00198465
O       -0.99006434       1.22531582       0.36134074
H        1.15501366      -0.05191169      -1.57120379
H        2.10675024       0.46845079       0.47976270
H       -0.20249466       0.05841342      -1.68015685
H       -1.72644050      -0.63664836      -0.07453559
H       -1.64611615       1.30725449       1.05614031
10
Frame=15 idx=004914 GeodesicLength=1.4425745108193238 rxn_smarts="[N:1]([C:2](=[O:3])[C:4]([O:5][H:10])([H:8])[H:9])([H:6])[H:7]>>[H:6][H:8].[N:1](=[C:2]1\[O:3][C@:4]1([O:5][H:10])[H:9])\[H:7]"
N        1.61976464      -0.17810221      -0.10573724
C        0.52050545      -0.60020789       0.44462153
O       -0.07517197      -1.52539553       1.04993385
C       -0.79944042      -0.09698838      -0.00264897
O       -0.98156158       1.22738852       0.35249354
H        1.21550278      -0.07376755      -1.57432597
H        2.05280179       0.52567426       0.48121527
H       -0.21298897       0.03345789      -1.68288724
H       -1.74594555      -0.63049079      -0.04766283
H       -1.59346618       1.31843169       1.08499806
10
Frame=16 idx=004914 GeodesicLength=1.540783463076664 rxn_smarts="[N:1]([C:2](=[O:3])[C:4]([O:5][H:10])([H:8])[H:9])([H:6])[H:7]>>[H:6][H:8].[N:1](=[C:2]1\[O:3][C@:4]1([O:5][H:10])[H:9])\[H:7]"
N        1.61576007      -0.16366107      -0.09298404
C        0.51314496      -0.60706975       0.43528959
O       -0.09247674      -1.55111238       1.00248242
C       -0.80921087      -0.10621822      -0.00279835
O       -0.97410402       1.22917247       0.34449345
H        1.28167161      -0.09625362      -1.57476888
H        1.99676108       0.58040827       0.48049358
H       -0.22654579       0.00981282      -1.68546131
H       -1.76505864      -0.62438509      -0.01837230
H       -1.53994165       1.32930658       1.11162583
