14
Frame=0 idx=008250 GeodesicLength=0.0 rxn_smarts="[C:1]([C@:2]12[N:3]([H:11])[C@@:4]1([H:12])[C:5]([H:13])([H:14])[C:6]2=[O:7])([H:8])([H:9])[H:10]>>[C:1]([C:2]([C@@:4]1([H:12])[N:3]([H:11])[C:5]1([H:13])[H:14])=[C:6]=[O:7])([H:8])([H:9])[H:10]"
C       -1.92999041       0.01253753       0.11421263
C       -0.46984794       0.13487964      -0.24068974
N        0.44535704      -1.21269106       1.03020694
C        0.65999197       0.14751610       0.78835260
C        1.92599577       0.38680763       0.12009259
C       -0.02276243       0.16877479      -1.50026976
O        0.19362522       0.34233420      -2.62552653
H       -2.50419944       0.81626751      -0.35088342
H       -2.03943968       0.08794347       1.19460970
H       -2.35659639      -0.94144375      -0.19314784
H        0.86535094      -1.69423347       0.23694492
H        0.39746050       0.77879768       1.64437082
H        2.82248188      -0.06287284       0.52291497
H        2.01257303       1.03538262      -0.74118792
14
Frame=1 idx=008250 GeodesicLength=0.07098744185088324 rxn_smarts="[C:1]([C@:2]12[N:3]([H:11])[C@@:4]1([H:12])[C:5]([H:13])([H:14])[C:6]2=[O:7])([H:8])([H:9])[H:10]>>[C:1]([C:2]([C@@:4]1([H:12])[N:3]([H:11])[C:5]1([H:13])[H:14])=[C:6]=[O:7])([H:8])([H:9])[H:10]"
C       -1.93430614       0.00600678       0.11274590
C       -0.47322635       0.12164818      -0.23424200
N        0.46451585      -1.19368576       1.03545342
C        0.65473165       0.17057185       0.79097448
C        1.91970128       0.36530820       0.10422260
C       -0.00880578       0.16770354      -1.49105173
O        0.18357832       0.34703064      -2.62081510
H       -2.49711108       0.83101867      -0.32862001
H       -2.05185801       0.04749348       1.19425927
H       -2.36894972      -0.93252832      -0.22924726
H        0.86463287      -1.69701351       0.24652034
H        0.40098739       0.80666655       1.64420836
H        2.81914611      -0.06567000       0.52163564
H        2.02696360       1.02544970      -0.74604390
14
Frame=2 idx=008250 GeodesicLength=0.14193277552041264 rxn_smarts="[C:1]([C@:2]12[N:3]([H:11])[C@@:4]1([H:12])[C:5]([H:13])([H:14])[C:6]2=[O:7])([H:8])([H:9])[H:10]>>[C:1]([C:2]([C@@:4]1([H:12])[N:3]([H:11])[C:5]1([H:13])[H:14])=[C:6]=[O:7])([H:8])([H:9])[H:10]"
C       -1.93827180      -0.00032326       0.11139391
C       -0.47636223       0.10848332      -0.22789071
N        0.48335012      -1.17464217       1.03956514
C        0.64947089       0.19336462       0.79273061
C        1.91272129       0.34503063       0.08952047
C        0.00461614       0.16707981      -1.48184279
O        0.17422078       0.34960061      -2.61575034
H       -2.48949433       0.84558920      -0.30429972
H       -2.06351992       0.00602807       1.19288880
H       -2.38101144      -0.92162065      -0.26557426
H        0.86360389      -1.69993073       0.25628672
H        0.40428167       0.83379668       1.64334064
H        2.81515949      -0.06720106       0.52003884
H        2.04123545       1.01474492      -0.75040730
14
Frame=3 idx=008250 GeodesicLength=0.21274764336535562 rxn_smarts="[C:1]([C@:2]12[N:3]([H:11])[C@@:4]1([H:12])[C:5]([H:13])([H:14])[C:6]2=[O:7])([H:8])([H:9])[H:10]>>[C:1]([C:2]([C@@:4]1([H:12])[N:3]([H:11])[C:5]1([H:13])[H:14])=[C:6]=[O:7])([H:8])([H:9])[H:10]"
C       -1.94205702      -0.00638489       0.11016652
C       -0.47930249       0.09551971      -0.22162854
N        0.50194232      -1.15568471       1.04266097
C        0.64415009       0.21589037       0.79382865
C        1.90523231       0.32622689       0.07602746
C        0.01756947       0.16700577      -1.47276501
O        0.16559924       0.34959090      -2.61067840
H       -2.48147349       0.86009011      -0.27775246
H       -2.07475924      -0.03663992       1.19045462
H       -2.39294224      -0.90843896      -0.30224653
H        0.86277527      -1.70291891       0.26630897
H        0.40715794       0.86012944       1.64212559
H        2.81076884      -0.06787237       0.51796516
H        2.05533900       1.00348657      -0.75446700
14
Frame=4 idx=008250 GeodesicLength=0.28343781084813097 rxn_smarts="[C:1]([C@:2]12[N:3]([H:11])[C@@:4]1([H:12])[C:5]([H:13])([H:14])[C:6]2=[O:7])([H:8])([H:9])[H:10]>>[C:1]([C:2]([C@@:4]1([H:12])[N:3]([H:11])[C:5]1([H:13])[H:14])=[C:6]=[O:7])([H:8])([H:9])[H:10]"
C       -1.94561315      -0.01220969       0.10904796
C       -0.48203440       0.08285825      -0.21543593
N        0.52011255      -1.13685840       1.04477871
C        0.63878268       0.23807185       0.79429712
C        1.89731103       0.30866205       0.06359360
C        0.03007630       0.16736601      -1.46380602
O        0.15766735       0.34776351      -2.60559599
H       -2.47329513       0.87390388      -0.24961982
H       -2.08551174      -0.07974512       1.18685475
H       -2.40433175      -0.89338323      -0.33858036
H        0.86192670      -1.70596203       0.27658739
H        0.40977363       0.88566982       1.64056864
H        2.80594886      -0.06797359       0.51542673
H        2.06918707       0.99183670      -0.75811677
14
Frame=5 idx=008250 GeodesicLength=0.35406147813489436 rxn_smarts="[C:1]([C@:2]12[N:3]([H:11])[C@@:4]1([H:12])[C:5]([H:13])([H:14])[C:6]2=[O:7])([H:8])([H:9])[H:10]>>[C:1]([C:2]([C@@:4]1([H:12])[N:3]([H:11])[C:5]1([H:13])[H:14])=[C:6]=[O:7])([H:8])([H:9])[H:10]"
C       -1.94896005      -0.01780497       0.10801840
C       -0.48456581       0.07052132      -0.20929715
N        0.53782649      -1.11814926       1.04603476
C        0.63335323       0.25992862       0.79419308
C        1.88904357       0.29233431       0.05211680
C        0.04216728       0.16808743      -1.45497150
O        0.15036006       0.34403762      -2.60055399
H       -2.46490733       0.88707175      -0.21968798
H       -2.09585359      -0.12356047       1.18198081
H       -2.41526937      -0.87627375      -0.37476945
H        0.86113622      -1.70897775       0.28724652
H        0.41214362       0.91051909       1.63868306
H        2.80077708      -0.06761154       0.51246055
H        2.08274861       0.97987760      -0.76145393
14
Frame=6 idx=008250 GeodesicLength=0.42465448974727715 rxn_smarts="[C:1]([C@:2]12[N:3]([H:11])[C@@:4]1([H:12])[C:5]([H:13])([H:14])[C:6]2=[O:7])([H:8])([H:9])[H:10]>>[C:1]([C:2]([C@@:4]1([H:12])[N:3]([H:11])[C:5]1([H:13])[H:14])=[C:6]=[O:7])([H:8])([H:9])[H:10]"
C       -1.95210871      -0.02316015       0.10705669
C       -0.48690757       0.05855827      -0.20322427
N        0.55504577      -1.09953196       1.04641864
C        0.62784191       0.28147162       0.79355065
C        1.88048384       0.27726647       0.04151872
C        0.05384202       0.16920268      -1.44621882
O        0.14367920       0.33804941      -2.59544575
H       -2.45624376       0.89951501      -0.18770784
H       -2.10581091      -0.16827837       1.17557036
H       -2.42584164      -0.85681893      -0.41085333
H        0.86048814      -1.71182760       0.29823545
H        0.41429552       0.93469139       1.63646760
H        2.79527956      -0.06686804       0.50911931
H        2.09595663       0.96773022      -0.76448743
14
Frame=7 idx=008250 GeodesicLength=0.49525852186472663 rxn_smarts="[C:1]([C@:2]12[N:3]([H:11])[C@@:4]1([H:12])[C:5]([H:13])([H:14])[C:6]2=[O:7])([H:8])([H:9])[H:10]>>[C:1]([C:2]([C@@:4]1([H:12])[N:3]([H:11])[C:5]1([H:13])[H:14])=[C:6]=[O:7])([H:8])([H:9])[H:10]"
C       -1.95504034      -0.02836494       0.10615121
C       -0.48904833       0.04698332      -0.19718581
N        0.57167383      -1.08100822       1.04618807
C        0.62229029       0.30269634       0.79240011
C        1.87170020       0.26317630       0.03164184
C        0.06516536       0.17044585      -1.43761939
O        0.13742763       0.33098888      -2.59039349
H       -2.44752632       0.91081612      -0.15423023
H       -2.11540966      -0.21341289       1.16765020
H       -2.43572444      -0.83548094      -0.44642524
H        0.85980502      -1.71455732       0.30981678
H        0.41634060       0.95840758       1.63384538
H        2.78948991      -0.06602044       0.50543707
H        2.10885624       0.95533035      -0.76727649
14
Frame=8 idx=008250 GeodesicLength=0.5658366093355265 rxn_smarts="[C:1]([C@:2]12[N:3]([H:11])[C@@:4]1([H:12])[C:5]([H:13])([H:14])[C:6]2=[O:7])([H:8])([H:9])[H:10]>>[C:1]([C:2]([C@@:4]1([H:12])[N:3]([H:11])[C:5]1([H:13])[H:14])=[C:6]=[O:7])([H:8])([H:9])[H:10]"
C       -1.95779219      -0.03337638       0.10530899
C       -0.49101847       0.03591879      -0.19117902
N        0.58768338      -1.06263750       1.04527218
C        0.61668748       0.32358754       0.79080773
C        1.86275260       0.25007194       0.02244071
C        0.07612046       0.17198777      -1.42916766
O        0.13170699       0.32241407      -2.58539052
H       -2.43885830       0.92089005      -0.11925090
H       -2.12467922      -0.25888142       1.15813506
H       -2.44493858      -0.81219148      -0.48137044
H        0.85916662      -1.71708857       0.32180037
H        0.41831492       0.98159047       1.63094371
H        2.78345409      -0.06512111       0.50145389
H        2.12140023       0.94283582      -0.76980411
14
Frame=9 idx=008250 GeodesicLength=0.63636937289201 rxn_smarts="[C:1]([C@:2]12[N:3]([H:11])[C@@:4]1([H:12])[C:5]([H:13])([H:14])[C:6]2=[O:7])([H:8])([H:9])[H:10]>>[C:1]([C:2]([C@@:4]1([H:12])[N:3]([H:11])[C:5]1([H:13])[H:14])=[C:6]=[O:7])([H:8])([H:9])[H:10]"
C       -1.96038842      -0.03820845       0.10450654
C       -0.49284852       0.02541937      -0.18524573
N        0.60303161      -1.04441553       1.04362826
C        0.61103681       0.34415001       0.78878882
C        1.85367593       0.23791585       0.01381319
C        0.08670366       0.17385933      -1.42084503
O        0.12650755       0.31233834      -2.58022743
H       -2.43023984       0.92948268      -0.08287332
H       -2.13368511      -0.30449163       1.14682713
H       -2.45347499      -0.78697331      -0.51540069
H        0.85857436      -1.71933299       0.33409140
H        0.42028151       1.00422784       1.62775099
H        2.77722909      -0.06423124       0.49724547
H        2.13359637       0.93025973      -0.77205961
14
Frame=10 idx=008250 GeodesicLength=0.7069449126510314 rxn_smarts="[C:1]([C@:2]12[N:3]([H:11])[C@@:4]1([H:12])[C:5]([H:13])([H:14])[C:6]2=[O:7])([H:8])([H:9])[H:10]>>[C:1]([C:2]([C@@:4]1([H:12])[N:3]([H:11])[C:5]1([H:13])[H:14])=[C:6]=[O:7])([H:8])([H:9])[H:10]"
C       -1.96278676      -0.04289039       0.10377754
C       -0.49450262       0.01552792      -0.17927904
N        0.61765693      -1.02639005       1.04140701
C        0.60539195       0.36434420       0.78638820
C        1.84449474       0.22650966       0.00568350
C        0.09697844       0.17599818      -1.41265338
O        0.12177377       0.30128335      -2.57511146
H       -2.42193252       0.93651582      -0.04557278
H       -2.14231167      -0.34991833       1.13396815
H       -2.46111900      -0.76027496      -0.54838003
H        0.85783031      -1.72128908       0.34676094
H        0.42234863       1.02638759       1.62426829
H        2.77073826      -0.06347986       0.49276935
H        2.14543953       0.91767597      -0.77402631
14
Frame=11 idx=008250 GeodesicLength=0.7774733275514187 rxn_smarts="[C:1]([C@:2]12[N:3]([H:11])[C@@:4]1([H:12])[C:5]([H:13])([H:14])[C:6]2=[O:7])([H:8])([H:9])[H:10]>>[C:1]([C:2]([C@@:4]1([H:12])[N:3]([H:11])[C:5]1([H:13])[H:14])=[C:6]=[O:7])([H:8])([H:9])[H:10]"
C       -1.96505339      -0.04740035       0.10309502
C       -0.49605080       0.00631555      -0.17336025
N        0.63158866      -1.00859473       1.03852470
C        0.59972638       0.38421117       0.78366724
C        1.83523643       0.21590436      -0.00200629
C        0.10689727       0.17855583      -1.40462154
O        0.11758224       0.28884859      -2.56985088
H       -2.41386871       0.94185556      -0.00726474
H       -2.15071505      -0.39509090       1.11934103
H       -2.46798170      -0.73197451      -0.58012003
H        0.85710228      -1.72292516       0.35961799
H        0.42451484       1.04805776       1.62059832
H        2.76410337      -0.06290971       0.48810534
H        2.15691819       0.90514654      -0.77572590
14
Frame=12 idx=008250 GeodesicLength=0.848010366932127 rxn_smarts="[C:1]([C@:2]12[N:3]([H:11])[C@@:4]1([H:12])[C:5]([H:13])([H:14])[C:6]2=[O:7])([H:8])([H:9])[H:10]>>[C:1]([C:2]([C@@:4]1([H:12])[N:3]([H:11])[C:5]1([H:13])[H:14])=[C:6]=[O:7])([H:8])([H:9])[H:10]"
C       -1.96716912      -0.05183996       0.10245126
C       -0.49745695      -0.00237205      -0.16744704
N        0.64483253      -0.99094681       1.03529643
C        0.59410162       0.40377004       0.78058370
C        1.82596988       0.20583336      -0.00932298
C        0.11654953       0.18108404      -1.39678685
O        0.11360024       0.27625973      -2.56460740
H       -2.40618783       0.94541203       0.03172766
H       -2.15881921      -0.43991732       1.10306393
H       -2.47400857      -0.70237308      -0.61061792
H        0.85628193      -1.72425376       0.37305455
H        0.42685339       1.06949951       1.61651602
H        2.75733912      -0.06258543       0.48333923
H        2.16811344       0.89242969      -0.77725059
14
Frame=13 idx=008250 GeodesicLength=0.9185389878698869 rxn_smarts="[C:1]([C@:2]12[N:3]([H:11])[C@@:4]1([H:12])[C:5]([H:13])([H:14])[C:6]2=[O:7])([H:8])([H:9])[H:10]>>[C:1]([C:2]([C@@:4]1([H:12])[N:3]([H:11])[C:5]1([H:13])[H:14])=[C:6]=[O:7])([H:8])([H:9])[H:10]"
C       -1.96918629      -0.05607306       0.10187043
C       -0.49879229      -0.01034261      -0.16156387
N        0.65741030      -0.97356863       1.03143009
C        0.58846987       0.42301689       0.77724984
C        1.81664459       0.19651089      -0.01632060
C        0.12584020       0.18417463      -1.38910976
O        0.11030781       0.26178095      -2.55917952
H       -2.39880980       0.94725044       0.07184814
H       -2.16670236      -0.48452443       1.08490379
H       -2.47934970      -0.67103097      -0.63987694
H        0.85548269      -1.72519001       0.38651846
H        0.42934248       1.09046632       1.61230949
H        2.75043781      -0.06239562       0.47843130
H        2.17890468       0.87992522      -0.77851082
14
Frame=14 idx=008250 GeodesicLength=0.9891234837430137 rxn_smarts="[C:1]([C@:2]12[N:3]([H:11])[C@@:4]1([H:12])[C:5]([H:13])([H:14])[C:6]2=[O:7])([H:8])([H:9])[H:10]>>[C:1]([C:2]([C@@:4]1([H:12])[N:3]([H:11])[C:5]1([H:13])[H:14])=[C:6]=[O:7])([H:8])([H:9])[H:10]"
C       -1.97106144      -0.06027146       0.10132930
C       -0.49999762      -0.01785003      -0.15568518
N        0.66931667      -0.95631503       1.02732070
C        0.58288622       0.44198163       0.77355659
C        1.80733425       0.18760852      -0.02304746
C        0.13491202       0.18711914      -1.38162590
O        0.10719906       0.24732907      -2.55368509
H       -2.39178040       0.94718651       0.11259856
H       -2.17429710      -0.52874971       1.06497399
H       -2.48396513      -0.63837557      -0.66776868
H        0.85459002      -1.72574854       0.40060772
H        0.43202908       1.11130883       1.60758699
H        2.74341451      -0.06244302       0.47347501
H        2.18941987       0.86721967      -0.77963655
14
Frame=15 idx=008250 GeodesicLength=1.059665331833606 rxn_smarts="[C:1]([C@:2]12[N:3]([H:11])[C@@:4]1([H:12])[C:5]([H:13])([H:14])[C:6]2=[O:7])([H:8])([H:9])[H:10]>>[C:1]([C:2]([C@@:4]1([H:12])[N:3]([H:11])[C:5]1([H:13])[H:14])=[C:6]=[O:7])([H:8])([H:9])[H:10]"
C       -1.97283779      -0.06434346       0.10083633
C       -0.50112919      -0.02476185      -0.14983106
N        0.68058309      -0.93932401       1.02280543
C        0.57733233       0.46066410       0.76962493
C        1.79801355       0.17923431      -0.02953571
C        0.14369094       0.19032488      -1.37435733
O        0.10453307       0.23193755      -2.54807318
H       -2.38511621       0.94524385       0.15401827
H       -2.18167418      -0.57241898       1.04323954
H       -2.48787918      -0.60437223      -0.69417828
H        0.85368952      -1.72595410       0.41492704
H        0.43492732       1.13187975       1.60263029
H        2.73628872      -0.06271193       0.46846207
H        2.19957802       0.85460212      -0.78056834
14
Frame=16 idx=008250 GeodesicLength=1.130239111815015 rxn_smarts="[C:1]([C@:2]12[N:3]([H:11])[C@@:4]1([H:12])[C:5]([H:13])([H:14])[C:6]2=[O:7])([H:8])([H:9])[H:10]>>[C:1]([C:2]([C@@:4]1([H:12])[N:3]([H:11])[C:5]1([H:13])[H:14])=[C:6]=[O:7])([H:8])([H:9])[H:10]"
C       -1.97453652      -0.06828109       0.10039522
C       -0.50219862      -0.03111477      -0.14398620
N        0.69124890      -0.92258574       1.01783659
C        0.57181108       0.47901184       0.76544254
C        1.78869646       0.17134262      -0.03581168
C        0.15218477       0.19378661      -1.36722477
O        0.10229878       0.21569921      -2.54221091
H       -2.37886360       0.94134962       0.19581734
H       -2.18882127      -0.61524111       1.01973147
H       -2.49112097      -0.56918908      -0.71890628
H        0.85281021      -1.72571877       0.42938206
H        0.43803927       1.15206719       1.59739625
H        2.72907466      -0.06317433       0.46339574
H        2.20937684       0.84204779      -0.78125737
