12
Frame=0 idx=002786 GeodesicLength=0.0 rxn_smarts="[N:1]#[C:2][C:3]([N:4]1[C:5]([H:9])([H:10])[C:6]1([H:11])[H:12])([H:7])[H:8]>>[H:8][H:9].[N:1]#[C:2][C-:3]([N+:4]1=[C:5]([H:10])[C:6]1([H:11])[H:12])[H:7]"
N        2.83935677       1.35293008       0.44295616
C        2.03690626       0.64703428       0.01686157
C        1.05582823      -0.26562430      -0.46717754
N       -0.21197338       0.16260703      -0.59651062
C       -1.36565448      -0.43504458      -0.34645615
C       -1.10331787       0.85480012       0.32144223
H        1.38484174      -1.03418378      -1.15470985
H        0.32868486      -1.46170913       0.73284534
H       -0.53225480      -1.49890846       0.65367884
H       -2.10554081      -0.94173275      -0.94300620
H       -1.47736289       1.80652872      -0.04061482
H       -0.84951360       0.81330273       1.38069104
12
Frame=1 idx=002786 GeodesicLength=0.07953988038278757 rxn_smarts="[N:1]#[C:2][C:3]([N:4]1[C:5]([H:9])([H:10])[C:6]1([H:11])[H:12])([H:7])[H:8]>>[H:8][H:9].[N:1]#[C:2][C-:3]([N+:4]1=[C:5]([H:10])[C:6]1([H:11])[H:12])[H:7]"
N        2.85326086       1.34419479       0.43663899
C        2.04266614       0.64221086       0.01964854
C        1.05847790      -0.27160404      -0.45735267
N       -0.20879465       0.16614099      -0.57207903
C       -1.36444019      -0.43751053      -0.33075742
C       -1.11605946       0.86230268       0.32283507
H        1.37593759      -1.01695091      -1.17583697
H        0.34554026      -1.47702210       0.72388045
H       -0.53713961      -1.51584978       0.65540962
H       -2.09120608      -0.94105581      -0.94607199
H       -1.48378167       1.80793184      -0.06153098
H       -0.87446109       0.83721200       1.38521640
12
Frame=2 idx=002786 GeodesicLength=0.15905045270340956 rxn_smarts="[N:1]#[C:2][C:3]([N:4]1[C:5]([H:9])([H:10])[C:6]1([H:11])[H:12])([H:7])[H:8]>>[H:8][H:9].[N:1]#[C:2][C-:3]([N+:4]1=[C:5]([H:10])[C:6]1([H:11])[H:12])[H:7]"
N        2.86703909       1.33528213       0.43032912
C        2.04845667       0.63707790       0.02275176
C        1.06119045      -0.27758941      -0.44787655
N       -0.20550389       0.16948636      -0.54660246
C       -1.36322723      -0.43994155      -0.31443115
C       -1.12886311       0.86994361       0.32394586
H        1.36627239      -0.99855151      -1.19664135
H        0.36305710      -1.49287601       0.71408298
H       -0.54227050      -1.53342116       0.65667882
H       -2.07645956      -0.94026039      -0.94824182
H       -1.48958610       1.80892212      -0.08319622
H       -0.90010532       0.86192790       1.38920100
12
Frame=3 idx=002786 GeodesicLength=0.23853435966448772 rxn_smarts="[N:1]#[C:2][C:3]([N:4]1[C:5]([H:9])([H:10])[C:6]1([H:11])[H:12])([H:7])[H:8]>>[H:8][H:9].[N:1]#[C:2][C-:3]([N+:4]1=[C:5]([H:10])[C:6]1([H:11])[H:12])[H:7]"
N        2.88073033       1.32616417       0.42402335
C        2.05430067       0.63163083       0.02616884
C        1.06395171      -0.28354808      -0.43876634
N       -0.20208979       0.17263529      -0.51995517
C       -1.36201265      -0.44234045      -0.29742621
C       -1.14173083       0.87772179       0.32475463
H        1.35579523      -0.97892879      -1.21710037
H        0.38129116      -1.50927030       0.70336935
H       -0.54768162      -1.55164223       0.65746342
H       -2.06129245      -0.93935515      -0.94946365
H       -1.49471996       1.80944584      -0.10565851
H       -0.92654179       0.88748709       1.39259067
12
Frame=4 idx=002786 GeodesicLength=0.31799470197487567 rxn_smarts="[N:1]#[C:2][C:3]([N:4]1[C:5]([H:9])([H:10])[C:6]1([H:11])[H:12])([H:7])[H:8]>>[H:8][H:9].[N:1]#[C:2][C-:3]([N+:4]1=[C:5]([H:10])[C:6]1([H:11])[H:12])[H:7]"
N        2.89437563       1.31681336       0.41771035
C        2.06022418       0.62586342       0.02989403
C        1.06674447      -0.28944575      -0.43003318
N       -0.19853677       0.17557476      -0.49198453
C       -1.36079237      -0.44471132      -0.27968544
C       -1.15466208       0.88563263       0.32523903
H        1.34443975      -0.95800635      -1.23719504
H        0.40029996      -1.52620681       0.69164708
H       -0.55341566      -1.57053279       0.65774497
H       -2.04568787      -0.93834833      -0.94968671
H       -1.49910604       1.80944027      -0.12897318
H       -0.95388319       0.91392694       1.39532262
12
Frame=5 idx=002786 GeodesicLength=0.397434962541406 rxn_smarts="[N:1]#[C:2][C:3]([N:4]1[C:5]([H:9])([H:10])[C:6]1([H:11])[H:12])([H:7])[H:8]>>[H:8][H:9].[N:1]#[C:2][C-:3]([N+:4]1=[C:5]([H:10])[C:6]1([H:11])[H:12])[H:7]"
N        2.90801973       1.30719588       0.41137688
C        2.06625481       0.61976960       0.03391585
C        1.06954648      -0.29524358      -0.42168450
N       -0.19482600       0.17828473      -0.46250556
C       -1.35956129      -0.44706110      -0.26114343
C       -1.16765295       0.89366772       0.32537203
H        1.33211929      -0.93568013      -1.25691072
H        0.42014540      -1.54369100       0.67880816
H       -0.55952292      -1.59011065       0.65751427
H       -2.02961972      -0.93725079      -0.94885733
H       -1.50264055       1.80883145      -0.15320639
H       -0.98226227       0.94128788       1.39732073
12
Frame=6 idx=002786 GeodesicLength=0.47685970999442123 rxn_smarts="[N:1]#[C:2][C:3]([N:4]1[C:5]([H:9])([H:10])[C:6]1([H:11])[H:12])([H:7])[H:8]>>[H:8][H:9].[N:1]#[C:2][C-:3]([N+:4]1=[C:5]([H:10])[C:6]1([H:11])[H:12])[H:7]"
N        2.92170183       1.29727975       0.40500788
C        2.07242284       0.61334076       0.03821452
C        1.07232885      -0.30089810      -0.41372484
N       -0.19093377       0.18073548      -0.43129475
C       -1.35831333      -0.44939914      -0.24172578
C       -1.18069144       0.90181372       0.32512121
H        1.31872072      -0.91181774      -1.27623165
H        0.44089334      -1.56173218       0.66472516
H       -0.56606355      -1.61039334       0.65677072
H       -2.01305219      -0.93607374      -0.94691962
H       -1.50518351       1.80753145      -0.17843468
H       -1.01182979       0.96961308       1.39849183
12
Frame=7 idx=002786 GeodesicLength=0.5562710402000413 rxn_smarts="[N:1]#[C:2][C:3]([N:4]1[C:5]([H:9])([H:10])[C:6]1([H:11])[H:12])([H:7])[H:8]>>[H:8][H:9].[N:1]#[C:2][C-:3]([N+:4]1=[C:5]([H:10])[C:6]1([H:11])[H:12])[H:7]"
N        2.93546191       1.28702831       0.39858641
C        2.07875788       0.60656527       0.04276920
C        1.07505213      -0.30635665      -0.40615699
N       -0.18683327       0.18288432      -0.39808074
C       -1.35704203      -0.45173916      -0.22134589
C       -1.19375550       0.91005126       0.32444448
H        1.30409965      -0.88624183      -1.29514188
H        0.46261446      -1.58034990       0.64923453
H       -0.57310673      -1.63139306       0.65553270
H       -1.99593862      -0.93483370      -0.94380735
H       -1.50654950       1.80543397      -0.20475132
H       -1.04276038       0.99895118       1.39871685
12
Frame=8 idx=002786 GeodesicLength=0.63567257501055 rxn_smarts="[N:1]#[C:2][C:3]([N:4]1[C:5]([H:9])([H:10])[C:6]1([H:11])[H:12])([H:7])[H:8]>>[H:8][H:9].[N:1]#[C:2][C-:3]([N+:4]1=[C:5]([H:10])[C:6]1([H:11])[H:12])[H:7]"
N        2.94932693       1.27640723       0.39210052
C        2.08528833       0.59942984       0.04754776
C        1.07766192      -0.31155483      -0.39898333
N       -0.18249359       0.18467070      -0.36253650
C       -1.35574106      -0.45409983      -0.19990359
C       -1.20680409       0.91835342       0.32328855
H        1.28807034      -0.85872921      -1.31361554
H        0.48538369      -1.59956919       0.63213104
H       -0.58073337      -1.65312253       0.65383611
H       -1.97822216      -0.93355280      -0.93944486
H       -1.50649041       1.80240981      -0.23226354
H       -1.07524654       1.02935739       1.39784337
12
Frame=9 idx=002786 GeodesicLength=0.7150564987684388 rxn_smarts="[N:1]#[C:2][C:3]([N:4]1[C:5]([H:9])([H:10])[C:6]1([H:11])[H:12])([H:7])[H:8]>>[H:8][H:9].[N:1]#[C:2][C-:3]([N+:4]1=[C:5]([H:10])[C:6]1([H:11])[H:12])[H:7]"
N        2.96332110       1.26538425       0.38553007
C        2.09203500       0.59191652       0.05252619
C        1.08008138      -0.31641007      -0.39220368
N       -0.17788031       0.18600296      -0.32426979
C       -1.35440375      -0.45651013      -0.17728309
C       -1.21976965       0.92667977       0.32158278
H        1.27039713      -0.82898496      -1.33160546
H        0.50927743      -1.61942685       0.61314536
H       -0.58903507      -1.67558114       0.65174126
H       -1.95984030      -0.93226040      -0.93373601
H       -1.50468008       1.79830178      -0.26110058
H       -1.10950289       1.06088829       1.39567296
12
Frame=10 idx=002786 GeodesicLength=0.7944202565739389 rxn_smarts="[N:1]#[C:2][C:3]([N:4]1[C:5]([H:9])([H:10])[C:6]1([H:11])[H:12])([H:7])[H:8]>>[H:8][H:9].[N:1]#[C:2][C-:3]([N+:4]1=[C:5]([H:10])[C:6]1([H:11])[H:12])[H:7]"
N        2.97741480       1.25394993       0.37889514
C        2.09900525       0.58401602       0.05765641
C        1.08220100      -0.32081216      -0.38581892
N       -0.17296362       0.18676615      -0.28282799
C       -1.35303014      -0.45900108      -0.15334773
C       -1.23253223       0.93497748       0.31923668
H        1.25079329      -0.79667453      -1.34903375
H        0.53436845      -1.63996305       0.59191628
H       -0.59812006      -1.69878341       0.64934008
H       -1.94073226      -0.93100099      -0.92655614
H       -1.50068436       1.79290848      -0.29139792
H       -1.14572011       1.09361716       1.39193787
12
Frame=11 idx=002786 GeodesicLength=0.8737476070646393 rxn_smarts="[N:1]#[C:2][C:3]([N:4]1[C:5]([H:9])([H:10])[C:6]1([H:11])[H:12])([H:7])[H:8]>>[H:8][H:9].[N:1]#[C:2][C-:3]([N+:4]1=[C:5]([H:10])[C:6]1([H:11])[H:12])[H:7]"
N        2.99153077       1.24214758       0.37219683
C        2.10617835       0.57571583       0.06291336
C        1.08386682      -0.32462206      -0.37981486
N       -0.16771819       0.18679226      -0.23771013
C       -1.35162644      -0.46161563      -0.12795178
C       -1.24489677       0.94316449       0.31613757
H        1.22892127      -0.76139502      -1.36575296
H        0.56070747      -1.66120859       0.56799111
H       -0.60812430      -1.72273719       0.64674321
H       -1.92085617      -0.92982478      -0.91775415
H       -1.49393743       1.78598165      -0.32328885
H       -1.18404537       1.12760146       1.38629065
12
Frame=12 idx=002786 GeodesicLength=0.9530222134552162 rxn_smarts="[N:1]#[C:2][C:3]([N:4]1[C:5]([H:9])([H:10])[C:6]1([H:11])[H:12])([H:7])[H:8]>>[H:8][H:9].[N:1]#[C:2][C-:3]([N+:4]1=[C:5]([H:10])[C:6]1([H:11])[H:12])[H:7]"
N        3.00547188       1.23012106       0.36546881
C        2.11348661       0.56702078       0.06826759
C        1.08486758      -0.32766968      -0.37416228
N       -0.16213994       0.18585446      -0.18844699
C       -1.35021745      -0.46440656      -0.10095943
C       -1.25654398       0.95112078       0.31215336
H        1.20441632      -0.72273013      -1.38151480
H        0.58830526      -1.68314337       0.54084079
H       -0.61923118      -1.74745700       0.64407325
H       -1.90022938      -0.92879670      -0.90715559
H       -1.48372474       1.77721908      -0.35685219
H       -1.22446099       1.16286729       1.37828748
12
Frame=13 idx=002786 GeodesicLength=1.0322069879104259 rxn_smarts="[N:1]#[C:2][C:3]([N:4]1[C:5]([H:9])([H:10])[C:6]1([H:11])[H:12])([H:7])[H:8]>>[H:8][H:9].[N:1]#[C:2][C-:3]([N+:4]1=[C:5]([H:10])[C:6]1([H:11])[H:12])[H:7]"
N        3.01884323       1.21822547       0.35871104
C        2.12077560       0.55796374       0.07370353
C        1.08493345      -0.32977555      -0.36878733
N       -0.15625980       0.18367256      -0.13479121
C       -1.34885037      -0.46742078      -0.07232818
C       -1.26697745       0.95865373       0.30717182
H        1.17698718      -0.68041920      -1.39588784
H        0.61708033      -1.70559356       0.50999098
H       -0.63172281      -1.77293158       0.64140505
H       -1.87897399      -0.92794750      -0.89463443
H       -1.46923273       1.76627900      -0.39198892
H       -1.26660265       1.19929367       1.36743548
12
Frame=14 idx=002786 GeodesicLength=1.1112875436137932 rxn_smarts="[N:1]#[C:2][C:3]([N:4]1[C:5]([H:9])([H:10])[C:6]1([H:11])[H:12])([H:7])[H:8]>>[H:8][H:9].[N:1]#[C:2][C-:3]([N+:4]1=[C:5]([H:10])[C:6]1([H:11])[H:12])[H:7]"
N        3.03097378       1.20715584       0.35191970
C        2.12779651       0.54864979       0.07919547
C        1.08377683      -0.33080836      -0.36356807
N       -0.15018915       0.17993435      -0.07705067
C       -1.34762999      -0.47069805      -0.04223451
C       -1.27550123       0.96549497       0.30115288
H        1.14659684      -0.63459549      -1.40824934
H        0.64683158      -1.72815406       0.47523494
H       -0.64604866      -1.79909536       0.63876378
H       -1.85742337      -0.92727340      -0.88021979
H       -1.44968562       1.75288421      -0.42824410
H       -1.30949752       1.23650556       1.35329972
12
Frame=15 idx=002786 GeodesicLength=1.1902834517273162 rxn_smarts="[N:1]#[C:2][C:3]([N:4]1[C:5]([H:9])([H:10])[C:6]1([H:11])[H:12])([H:7])[H:8]>>[H:8][H:9].[N:1]#[C:2][C-:3]([N+:4]1=[C:5]([H:10])[C:6]1([H:11])[H:12])[H:7]"
N        3.04090415       1.19798549       0.34501271
C        2.13420575       0.53928035       0.08465514
C        1.08119861      -0.33079508      -0.35833620
N       -0.14411685       0.17440918      -0.01647796
C       -1.34670387      -0.47422254      -0.01127637
C       -1.28132203       0.97130300       0.29425292
H        1.11371992      -0.58620832      -1.41783045
H        0.67724515      -1.75006643       0.43704247
H       -0.66289381      -1.82570493       0.63610618
H       -1.83609935      -0.92663671      -0.86434281
H       -1.42473102       1.73697359      -0.46459672
H       -1.35140665       1.27368241       1.33579109
12
Frame=16 idx=002786 GeodesicLength=1.2692791227191462 rxn_smarts="[N:1]#[C:2][C:3]([N:4]1[C:5]([H:9])([H:10])[C:6]1([H:11])[H:12])([H:7])[H:8]>>[H:8][H:9].[N:1]#[C:2][C-:3]([N+:4]1=[C:5]([H:10])[C:6]1([H:11])[H:12])[H:7]"
N        3.04761067       1.19193902       0.33785403
C        2.13966210       0.53015154       0.08987741
C        1.07722094      -0.32999916      -0.35294617
N       -0.13827522       0.16705718       0.04476672
C       -1.34623201      -0.47790995       0.01949520
C       -1.28382318       0.97576196       0.28687015
H        1.07941173      -0.53707005      -1.42400797
H        0.70803115      -1.77037546       0.39669583
H       -0.68313012      -1.85227596       0.63347336
H       -1.81556573      -0.92577203      -0.84793908
H       -1.39475869       1.71887822      -0.49955103
H       -1.39015163       1.30961471       1.31541153
