10
Frame=0 idx=005554 GeodesicLength=0.0 rxn_smarts="[O:1]([c:2]1[n:3][n:4]([H:8])[c:5]([H:9])[c:6]1[H:10])[H:7]>>[O:1]([C:2]1=[N:3][N+:4]([H:8])([H:9])[C-:5]=[C:6]1[H:10])[H:7]"
O        2.13937763       0.14346198      -0.25870844
C        0.82574583       0.05342646      -0.05907707
N        0.21510738      -1.11203130      -0.03450182
N       -1.08074859      -0.75590952       0.17535032
C       -1.31496312       0.67285752       0.37870553
C       -0.04993424       1.15077136       0.11817481
H        2.49444663      -0.74702471      -0.34995551
H       -1.69326965      -1.45184895       0.57667474
H       -1.77019696      -0.14293165      -0.61141881
H        0.23443509       2.18922881       0.06475625
10
Frame=1 idx=005554 GeodesicLength=0.03372504750747981 rxn_smarts="[O:1]([c:2]1[n:3][n:4]([H:8])[c:5]([H:9])[c:6]1[H:10])[H:7]>>[O:1]([C:2]1=[N:3][N+:4]([H:8])([H:9])[C-:5]=[C:6]1[H:10])[H:7]"
O        2.14247174       0.14289913      -0.25129420
C        0.82618126       0.05297344      -0.06891121
N        0.21400600      -1.11112044      -0.05657828
N       -1.08129389      -0.75633455       0.17005574
C       -1.31033667       0.66954498       0.38149488
C       -0.04822003       1.15068396       0.11820551
H        2.49874565      -0.74794925      -0.33402442
H       -1.68335362      -1.45212871       0.58693627
H       -1.79263906      -0.13793755      -0.60713625
H        0.23443862       2.18936898       0.06125195
10
Frame=2 idx=005554 GeodesicLength=0.06743063724804226 rxn_smarts="[O:1]([c:2]1[n:3][n:4]([H:8])[c:5]([H:9])[c:6]1[H:10])[H:7]>>[O:1]([C:2]1=[N:3][N+:4]([H:8])([H:9])[C-:5]=[C:6]1[H:10])[H:7]"
O        2.14531726       0.14220254      -0.24462515
C        0.82677748       0.05262909      -0.07788461
N        0.21296716      -1.10992521      -0.07809023
N       -1.08175516      -0.75674047       0.16474517
C       -1.30581493       0.66625802       0.38368110
C       -0.04646013       1.15064873       0.11847211
H        2.50250029      -0.74909583      -0.31819211
H       -1.67305930      -1.45243331       0.59671259
H       -1.81488758      -0.13310384      -0.60267775
H        0.23441491       2.18956028       0.05785888
10
Frame=3 idx=005554 GeodesicLength=0.10109100554204839 rxn_smarts="[O:1]([c:2]1[n:3][n:4]([H:8])[c:5]([H:9])[c:6]1[H:10])[H:7]>>[O:1]([C:2]1=[N:3][N+:4]([H:8])([H:9])[C-:5]=[C:6]1[H:10])[H:7]"
O        2.14787384       0.14146760      -0.23912162
C        0.82769470       0.05226983      -0.08438787
N        0.21219083      -1.10857845      -0.09742821
N       -1.08220903      -0.75711968       0.15954602
C       -1.30168693       0.66311182       0.38457464
C       -0.04466553       1.15064700       0.11932497
H        2.50561746      -0.75027718      -0.30420257
H       -1.66296712      -1.45254295       0.60582952
H       -1.83626149      -0.12873708      -0.59894560
H        0.23441327       2.18975908       0.05481071
10
Frame=4 idx=005554 GeodesicLength=0.13468082229075248 rxn_smarts="[O:1]([c:2]1[n:3][n:4]([H:8])[c:5]([H:9])[c:6]1[H:10])[H:7]>>[O:1]([C:2]1=[N:3][N+:4]([H:8])([H:9])[C-:5]=[C:6]1[H:10])[H:7]"
O        2.15022095       0.14082708      -0.23439588
C        0.82912604       0.05169534      -0.08635329
N        0.21195743      -1.10731508      -0.11247042
N       -1.08277704      -0.75746327       0.15465524
C       -1.29834625       0.66027470       0.38327328
C       -0.04286905       1.15064573       0.12118512
H        2.50805080      -0.75119962      -0.29511725
H       -1.65391351      -1.45211953       0.61418884
H       -1.85592526      -0.12523691      -0.59719309
H        0.23447589       2.18989155       0.05222744
10
Frame=5 idx=005554 GeodesicLength=0.16825052053560724 rxn_smarts="[O:1]([c:2]1[n:3][n:4]([H:8])[c:5]([H:9])[c:6]1[H:10])[H:7]>>[O:1]([C:2]1=[N:3][N+:4]([H:8])([H:9])[C-:5]=[C:6]1[H:10])[H:7]"
O        2.15258838       0.14022277      -0.22904819
C        0.83088349       0.05094683      -0.08537350
N        0.21209567      -1.10609451      -0.12478038
N       -1.08342318      -0.75778515       0.14998727
C       -1.29552870       0.65765947       0.38049287
C       -0.04108185       1.15064017       0.12368843
H        2.51007086      -0.75193854      -0.29005206
H       -1.64550044      -1.45130945       0.62207840
H       -1.87464845      -0.12229172      -0.59661505
H        0.23454421       2.18995011       0.04962221
10
Frame=6 idx=005554 GeodesicLength=0.2018158495269517 rxn_smarts="[O:1]([c:2]1[n:3][n:4]([H:8])[c:5]([H:9])[c:6]1[H:10])[H:7]>>[O:1]([C:2]1=[N:3][N+:4]([H:8])([H:9])[C-:5]=[C:6]1[H:10])[H:7]"
O        2.15495459       0.13958905      -0.22361725
C        0.83271221       0.05014975      -0.08378467
N        0.21233559      -1.10478231      -0.13661342
N       -1.08406343      -0.75810916       0.14533946
C       -1.29284135       0.65510728       0.37722977
C       -0.03928066       1.15062811       0.12638214
H        2.51201265      -0.75268920      -0.28563718
H       -1.63703134      -1.45040424       0.62969652
H       -1.89342416      -0.11944851      -0.59595258
H        0.23462589       2.18995924       0.04695721
10
Frame=7 idx=005554 GeodesicLength=0.2354035391648899 rxn_smarts="[O:1]([c:2]1[n:3][n:4]([H:8])[c:5]([H:9])[c:6]1[H:10])[H:7]>>[O:1]([C:2]1=[N:3][N+:4]([H:8])([H:9])[C-:5]=[C:6]1[H:10])[H:7]"
O        2.15728701       0.13886120      -0.21865531
C        0.83443736       0.04943315      -0.08333531
N        0.21247056      -1.10323182      -0.14962372
N       -1.08462402      -0.75844672       0.14054656
C       -1.29000144       0.65249624       0.37418774
C       -0.03744359       1.15062070       0.12894557
H        2.51404459      -0.75365555      -0.27922521
H       -1.62792226      -1.44964317       0.63713579
H       -1.91296209      -0.11639316      -0.59421856
H        0.23471389       2.18995912       0.04424245
10
Frame=8 idx=005554 GeodesicLength=0.26898264395635635 rxn_smarts="[O:1]([c:2]1[n:3][n:4]([H:8])[c:5]([H:9])[c:6]1[H:10])[H:7]>>[O:1]([C:2]1=[N:3][N+:4]([H:8])([H:9])[C-:5]=[C:6]1[H:10])[H:7]"
O        2.15960383       0.13794881      -0.21407419
C        0.83595998       0.04891052      -0.08507008
N        0.21237019      -1.10131615      -0.16474049
N       -1.08504441      -0.75879887       0.13551733
C       -1.28684880       0.64976193       0.37170064
C       -0.03556496       1.15064384       0.13112831
H        2.51613499      -0.75498764      -0.26957789
H       -1.61776525      -1.44917254       0.64444457
H       -1.93363107      -0.11299601      -0.59077511
H        0.23478551       2.19000611       0.04144692
10
Frame=9 idx=005554 GeodesicLength=0.30255816026903715 rxn_smarts="[O:1]([c:2]1[n:3][n:4]([H:8])[c:5]([H:9])[c:6]1[H:10])[H:7]>>[O:1]([C:2]1=[N:3][N+:4]([H:8])([H:9])[C-:5]=[C:6]1[H:10])[H:7]"
O        2.16196572       0.13706226      -0.20877278
C        0.83768872       0.04824201      -0.08484529
N        0.21255807      -1.09942846      -0.17799321
N       -1.08551266      -0.75914548       0.13063894
C       -1.28407980       0.64721403       0.36800625
C       -0.03371532       1.15065877       0.13363892
H        2.51800092      -0.75617188      -0.26289534
H       -1.60802490      -1.44835142       0.65149133
H       -1.95381436      -0.11004921      -0.58801739
H        0.23493361       2.18996937       0.03874857
10
Frame=10 idx=005554 GeodesicLength=0.3361345038547348 rxn_smarts="[O:1]([c:2]1[n:3][n:4]([H:8])[c:5]([H:9])[c:6]1[H:10])[H:7]>>[O:1]([C:2]1=[N:3][N+:4]([H:8])([H:9])[C-:5]=[C:6]1[H:10])[H:7]"
O        2.16437382       0.13615847      -0.20283117
C        0.83952349       0.04748724      -0.08360445
N        0.21292660      -1.09750704      -0.19027977
N       -1.08599021      -0.75949625       0.12582447
C       -1.28153412       0.64478725       0.36348552
C       -0.03188360       1.15066714       0.13631142
H        2.51975114      -0.75729167      -0.25791722
H       -1.59840884      -1.44729675       0.65834122
H       -1.97390514      -0.10737685      -0.58541393
H        0.23514686       2.18986847       0.03608390
10
Frame=11 idx=005554 GeodesicLength=0.36973175018705307 rxn_smarts="[O:1]([c:2]1[n:3][n:4]([H:8])[c:5]([H:9])[c:6]1[H:10])[H:7]>>[O:1]([C:2]1=[N:3][N+:4]([H:8])([H:9])[C-:5]=[C:6]1[H:10])[H:7]"
O        2.16680766       0.13518683      -0.19651166
C        0.84136955       0.04672614      -0.08231835
N        0.21336186      -1.09545739      -0.20251360
N       -1.08643008      -0.75985689       0.12097424
C       -1.27905769       0.64241494       0.35849696
C       -0.03005839       1.15067722       0.13896467
H        2.52145096      -0.75846853      -0.25319520
H       -1.58857144      -1.44613706       0.66503666
H       -1.99429072      -0.10482106      -0.58239307
H        0.23541829       2.18973580       0.03345936
10
Frame=12 idx=005554 GeodesicLength=0.4033347998984774 rxn_smarts="[O:1]([c:2]1[n:3][n:4]([H:8])[c:5]([H:9])[c:6]1[H:10])[H:7]>>[O:1]([C:2]1=[N:3][N+:4]([H:8])([H:9])[C-:5]=[C:6]1[H:10])[H:7]"
O        2.16928164       0.13405509      -0.18977120
C        0.84313446       0.04609085      -0.08211044
N        0.21373157      -1.09314434      -0.21572046
N       -1.08676888      -0.76022955       0.11597788
C       -1.27649204       0.64002577       0.35343886
C       -0.02822764       1.15072041       0.14137722
H        2.52309445      -0.75988868      -0.24732143
H       -1.57807437      -1.44503811       0.67159169
H       -2.01537564      -0.10221533      -0.57824424
H        0.23569645       2.18962389       0.03078213
10
Frame=13 idx=005554 GeodesicLength=0.4369660923426321 rxn_smarts="[O:1]([c:2]1[n:3][n:4]([H:8])[c:5]([H:9])[c:6]1[H:10])[H:7]>>[O:1]([C:2]1=[N:3][N+:4]([H:8])([H:9])[C-:5]=[C:6]1[H:10])[H:7]"
O        2.17178204       0.13269409      -0.18255106
C        0.84477622       0.04567007      -0.08354666
N        0.21397520      -1.09047165      -0.23040008
N       -1.08696388      -0.76061080       0.11076190
C       -1.27375990       0.63759031       0.34844101
C       -0.02639129       1.15081975       0.14342864
H        2.52462042      -0.76168117      -0.23961259
H       -1.56664687      -1.44406931       0.67801193
H       -2.03735236      -0.09952707      -0.57257614
H        0.23596042       2.18958576       0.02804306
10
Frame=14 idx=005554 GeodesicLength=0.4706256149330757 rxn_smarts="[O:1]([c:2]1[n:3][n:4]([H:8])[c:5]([H:9])[c:6]1[H:10])[H:7]>>[O:1]([C:2]1=[N:3][N+:4]([H:8])([H:9])[C-:5]=[C:6]1[H:10])[H:7]"
O        2.17427588       0.13119046      -0.17502623
C        0.84639068       0.04536128      -0.08560411
N        0.21423170      -1.08757662      -0.24550929
N       -1.08706571      -0.76100455       0.10542796
C       -1.27103358       0.63518400       0.34305361
C       -0.02456082       1.15095038       0.14531589
H        2.52601147      -0.76368434      -0.23131545
H       -1.55471914      -1.44305521       0.68424701
H       -2.05979789      -0.09694269      -0.56601093
H        0.23626742       2.18957728       0.02542153
10
Frame=15 idx=005554 GeodesicLength=0.5042955881671407 rxn_smarts="[O:1]([c:2]1[n:3][n:4]([H:8])[c:5]([H:9])[c:6]1[H:10])[H:7]>>[O:1]([C:2]1=[N:3][N+:4]([H:8])([H:9])[C-:5]=[C:6]1[H:10])[H:7]"
O        2.17674178       0.12958788      -0.16733146
C        0.84801448       0.04511896      -0.08789434
N        0.21456377      -1.08453457      -0.26060216
N       -1.08709798      -0.76141516       0.10001370
C       -1.26838203       0.63283777       0.33706922
C       -0.02274233       1.15109430       0.14712228
H        2.52727678      -0.76581914      -0.22289674
H       -1.54249183      -1.44190588       0.69028642
H       -2.08253230      -0.09454409      -0.55880200
H        0.23664966       2.18957993       0.02303508
10
Frame=16 idx=005554 GeodesicLength=0.5379706269273333 rxn_smarts="[O:1]([c:2]1[n:3][n:4]([H:8])[c:5]([H:9])[c:6]1[H:10])[H:7]>>[O:1]([C:2]1=[N:3][N+:4]([H:8])([H:9])[C-:5]=[C:6]1[H:10])[H:7]"
O        2.17916161       0.12792323      -0.15963782
C        0.84966043       0.04491631      -0.09024884
N        0.21500776      -1.08140618      -0.27543576
N       -1.08707432      -0.76184987       0.09453834
C       -1.26583712       0.63056593       0.33036203
C       -0.02094090       1.15123569       0.14888871
H        2.52843709      -0.76803426      -0.21451699
H       -1.53008834      -1.44056264       0.69613400
H       -2.10546190      -0.09237076      -0.55108269
H        0.23713571       2.18958256       0.02099904
