11
Frame=0 idx=000419 GeodesicLength=0.0 rxn_smarts="[O:1]([N:2]=[C:3]1[C:4]([H:8])([H:9])[O:5][C:6]1([H:10])[H:11])[H:7]>>[H:9][H:10].[O:1]([N-:2][C:3]1=[C:4]([H:8])[O+:5]=[C:6]1[H:11])[H:7]"
O        2.26270527      -0.64340674      -0.43074094
N        1.54604532       0.39933057       0.08040711
C        0.30280829       0.23401905      -0.05274281
C       -0.85872609       1.09168686       0.25281163
O       -1.59908299       0.37439624      -0.59178584
C       -0.70127816      -0.67338591      -0.65066162
H        3.17656471      -0.38232804      -0.28978665
H       -1.09505713       2.10592737       0.52511274
H       -1.20017623      -0.24166258       1.54705449
H       -1.12790659      -0.94660137       1.12626346
H       -0.70589640      -1.31797548      -1.51593155
11
Frame=1 idx=000419 GeodesicLength=0.0829666787480885 rxn_smarts="[O:1]([N:2]=[C:3]1[C:4]([H:8])([H:9])[O:5][C:6]1([H:10])[H:11])[H:7]>>[H:9][H:10].[O:1]([N-:2][C:3]1=[C:4]([H:8])[O+:5]=[C:6]1[H:11])[H:7]"
O        2.26427095      -0.63973663      -0.43406060
N        1.54936827       0.40788839       0.07164469
C        0.30581083       0.23991566      -0.05774955
C       -0.85720109       1.09047989       0.26508461
O       -1.59809337       0.38866960      -0.59384331
C       -0.69903270      -0.67109200      -0.64944423
H        3.17863722      -0.37843288      -0.29712144
H       -1.07886311       2.11158210       0.52686744
H       -1.22181851      -0.24362648       1.54659144
H       -1.14549247      -0.96633240       1.11822764
H       -0.69758602      -1.33931524      -1.49619669
11
Frame=2 idx=000419 GeodesicLength=0.16549130806986084 rxn_smarts="[O:1]([N:2]=[C:3]1[C:4]([H:8])([H:9])[O:5][C:6]1([H:10])[H:11])[H:7]>>[H:9][H:10].[O:1]([N-:2][C:3]1=[C:4]([H:8])[O+:5]=[C:6]1[H:11])[H:7]"
O        2.26583900      -0.63618148      -0.43712100
N        1.55272177       0.41670889       0.06228433
C        0.30885754       0.24622818      -0.06356554
C       -0.85555677       1.08924134       0.27706007
O       -1.59718107       0.40306996      -0.59570537
C       -0.69677808      -0.66873507      -0.64840891
H        3.18070833      -0.37476001      -0.30408204
H       -1.06285950       2.11651478       0.52957074
H       -1.24329070      -0.24507711       1.54593677
H       -1.16322602      -0.98619257       1.10944760
H       -0.68923450      -1.36081691      -1.47541662
11
Frame=3 idx=000419 GeodesicLength=0.2477042659612662 rxn_smarts="[O:1]([N:2]=[C:3]1[C:4]([H:8])([H:9])[O:5][C:6]1([H:10])[H:11])[H:7]>>[H:9][H:10].[O:1]([N-:2][C:3]1=[C:4]([H:8])[O+:5]=[C:6]1[H:11])[H:7]"
O        2.26738003      -0.63276804      -0.43986803
N        1.55607714       0.42577597       0.05230881
C        0.31192381       0.25300132      -0.07029990
C       -0.85379008       1.08796108       0.28873826
O       -1.59641895       0.41757023      -0.59730767
C       -0.69453490      -0.66630508      -0.64759849
H        3.18275050      -0.37135130      -0.31058948
H       -1.04707465       2.12076491       0.53316285
H       -1.26447460      -0.24601263       1.54513992
H       -1.18101596      -1.00625664       1.09986148
H       -0.68082233      -1.38237981      -1.45354774
11
Frame=4 idx=000419 GeodesicLength=0.3297647404443515 rxn_smarts="[O:1]([N:2]=[C:3]1[C:4]([H:8])([H:9])[O:5][C:6]1([H:10])[H:11])[H:7]>>[H:9][H:10].[O:1]([N-:2][C:3]1=[C:4]([H:8])[O+:5]=[C:6]1[H:11])[H:7]"
O        2.26885653      -0.62962324      -0.44204351
N        1.55941039       0.43506357       0.04173006
C        0.31498713       0.26026263      -0.07803368
C       -0.85188711       1.08662662       0.30011884
O       -1.59586286       0.43215024      -0.59860229
C       -0.69231260      -0.66379706      -0.64705594
H        3.18473394      -0.36814445      -0.31678662
H       -1.03151949       2.12437026       0.53758069
H       -1.28528409      -0.24642106       1.54425484
H       -1.19881871      -1.02660962       1.08938939
H       -0.67230314      -1.40387789      -1.43055177
11
Frame=5 idx=000419 GeodesicLength=0.4117437386676291 rxn_smarts="[O:1]([N:2]=[C:3]1[C:4]([H:8])([H:9])[O:5][C:6]1([H:10])[H:11])[H:7]>>[H:9][H:10].[O:1]([N-:2][C:3]1=[C:4]([H:8])[O+:5]=[C:6]1[H:11])[H:7]"
O        2.27026539      -0.62662260      -0.44388673
N        1.56269263       0.44443149       0.03075300
C        0.31802245       0.26798270      -0.08675962
C       -0.84982779       1.08521782       0.31119286
O       -1.59553000       0.44676601      -0.59955853
C       -0.69012039      -0.66125276      -0.64675273
H        3.18664506      -0.36514987      -0.32265327
H       -1.01616182       2.12737841       0.54270266
H       -1.30572453      -0.24623576       1.54336059
H       -1.21668385      -1.04729835       1.07802598
H       -0.66357714      -1.42521709      -1.40642421
11
Frame=6 idx=000419 GeodesicLength=0.49380145202807146 rxn_smarts="[O:1]([N:2]=[C:3]1[C:4]([H:8])([H:9])[O:5][C:6]1([H:10])[H:11])[H:7]>>[H:9][H:10].[O:1]([N-:2][C:3]1=[C:4]([H:8])[O+:5]=[C:6]1[H:11])[H:7]"
O        2.27156087      -0.62391425      -0.44509534
N        1.56590477       0.45392017       0.01926685
C        0.32100179       0.27617251      -0.09654364
C       -0.84759562       1.08371029       0.32196584
O       -1.59548331       0.46136857      -0.60010816
C       -0.68796917      -0.65869999      -0.64669255
H        3.18845134      -0.36233428      -0.32828147
H       -1.00100762       2.12981401       0.54845461
H       -1.32570767      -0.24541667       1.54256024
H       -1.23457355      -1.06841706       1.06572286
H       -0.65458184      -1.44620329      -1.38124924
11
Frame=7 idx=000419 GeodesicLength=0.5760358526054535 rxn_smarts="[O:1]([N:2]=[C:3]1[C:4]([H:8])([H:9])[O:5][C:6]1([H:10])[H:11])[H:7]>>[H:9][H:10].[O:1]([N-:2][C:3]1=[C:4]([H:8])[O+:5]=[C:6]1[H:11])[H:7]"
O        2.27276381      -0.62133303      -0.44600508
N        1.56903672       0.46340856       0.00744021
C        0.32391282       0.28473478      -0.10726963
C       -0.84515280       1.08206915       0.33244342
O       -1.59569140       0.47590366      -0.60023871
C       -0.68584660      -0.65622615      -0.64677940
H        3.19016512      -0.35968050      -0.33366706
H       -0.98599513       2.13171259       0.55470310
H       -1.34533971      -0.24384366       1.54196403
H       -1.25265857      -1.09001531       1.05248984
H       -0.64519428      -1.46673009      -1.35508073
11
Frame=8 idx=000419 GeodesicLength=0.6585179948951903 rxn_smarts="[O:1]([N:2]=[C:3]1[C:4]([H:8])([H:9])[O:5][C:6]1([H:10])[H:11])[H:7]>>[H:9][H:10].[O:1]([N-:2][C:3]1=[C:4]([H:8])[O+:5]=[C:6]1[H:11])[H:7]"
O        2.27390998      -0.61879699      -0.44679088
N        1.57210780       0.47281715      -0.00457579
C        0.32676211       0.29352868      -0.11872378
C       -0.84245813       1.08025020       0.34265042
O       -1.59606801       0.49033281      -0.59997233
C       -0.68371210      -0.65393593      -0.64688279
H        3.19181701      -0.35707434      -0.33905568
H       -0.97104554       2.13309278       0.56133460
H       -1.36482432      -0.24137880       1.54165964
H       -1.27124129      -1.11213919       1.03831459
H       -0.63524752      -1.48669637      -1.32795800
11
Frame=9 idx=000419 GeodesicLength=0.7418182151311234 rxn_smarts="[O:1]([N:2]=[C:3]1[C:4]([H:8])([H:9])[O:5][C:6]1([H:10])[H:11])[H:7]>>[H:9][H:10].[O:1]([N-:2][C:3]1=[C:4]([H:8])[O+:5]=[C:6]1[H:11])[H:7]"
O        2.27492807      -0.61655026      -0.44681151
N        1.57507671       0.48241682      -0.01736446
C        0.32949084       0.30259248      -0.13100856
C       -0.83952740       1.07823440       0.35262245
O       -1.59674423       0.50451421      -0.59910998
C       -0.68159566      -0.65187101      -0.64694248
H        3.19333469      -0.35460243      -0.34427592
H       -0.95614836       2.13395212       0.56825391
H       -1.38395175      -0.23783979       1.54194180
H       -1.29007899      -1.13500759       1.02312538
H       -0.62478392      -1.50583896      -1.30043064
11
Frame=10 idx=000419 GeodesicLength=0.8254102581017383 rxn_smarts="[O:1]([N:2]=[C:3]1[C:4]([H:8])([H:9])[O:5][C:6]1([H:10])[H:11])[H:7]>>[H:9][H:10].[O:1]([N-:2][C:3]1=[C:4]([H:8])[O+:5]=[C:6]1[H:11])[H:7]"
O        2.27597583      -0.61417661      -0.44704360
N        1.57801833       0.49192336      -0.03039585
C        0.33217749       0.31162309      -0.14363584
C       -0.83626422       1.07595946       0.36239961
O       -1.59744356       0.51849456      -0.59784897
C       -0.67939355      -0.65018503      -0.64674869
H        3.19486685      -0.35204233      -0.34964581
H       -0.94117770       2.13431830       0.57538817
H       -1.40327160      -0.23312865       1.54272990
H       -1.30990890      -1.15853705       1.00689919
H       -0.61357898      -1.52424909      -1.27209812
11
Frame=11 idx=000419 GeodesicLength=0.9092249305803071 rxn_smarts="[O:1]([N:2]=[C:3]1[C:4]([H:8])([H:9])[O:5][C:6]1([H:10])[H:11])[H:7]>>[H:9][H:10].[O:1]([N-:2][C:3]1=[C:4]([H:8])[O+:5]=[C:6]1[H:11])[H:7]"
O        2.27708684      -0.61149443      -0.44787492
N        1.58093074       0.50142223      -0.04391040
C        0.33481487       0.32054235      -0.15652141
C       -0.83264578       1.07339834       0.37201471
O       -1.59815776       0.53219662      -0.59612589
C       -0.67709830      -0.64896481      -0.64616673
H        3.19642927      -0.34951442      -0.35474755
H       -0.92609115       2.13419124       0.58267669
H       -1.42280232      -0.22712326       1.54417279
H       -1.33084615      -1.18279966       0.98961147
H       -0.60162025      -1.54185419      -1.24312876
11
Frame=12 idx=000419 GeodesicLength=0.9932211525397323 rxn_smarts="[O:1]([N:2]=[C:3]1[C:4]([H:8])([H:9])[O:5][C:6]1([H:10])[H:11])[H:7]>>[H:9][H:10].[O:1]([N-:2][C:3]1=[C:4]([H:8])[O+:5]=[C:6]1[H:11])[H:7]"
O        2.27831594      -0.60857997      -0.44913442
N        1.58384043       0.51090547      -0.05789115
C        0.33742822       0.32921722      -0.16944415
C       -0.82864340       1.07052195       0.38151689
O       -1.59879028       0.54558086      -0.59395602
C       -0.67465792      -0.64830172      -0.64504109
H        3.19808310      -0.34679237      -0.35997815
H       -0.91082021       2.13357785       0.59005825
H       -1.44274065      -0.21965339       1.54635772
H       -1.35317978      -1.20786104       0.97114140
H       -0.58883545      -1.55861485      -1.21362928
11
Frame=13 idx=000419 GeodesicLength=1.077265763429838 rxn_smarts="[O:1]([N:2]=[C:3]1[C:4]([H:8])([H:9])[O:5][C:6]1([H:10])[H:11])[H:7]>>[H:9][H:10].[O:1]([N-:2][C:3]1=[C:4]([H:8])[O+:5]=[C:6]1[H:11])[H:7]"
O        2.27972313      -0.60526975      -0.45109534
N        1.58675581       0.52035379      -0.07229913
C        0.34003147       0.33756170      -0.18226879
C       -0.82425200       1.06731806       0.39093526
O       -1.59929204       0.55858600      -0.59131881
C       -0.67203308      -0.64827634      -0.64322347
H        3.19984705      -0.34388872      -0.36527378
H       -0.89533079       2.13249627       0.59745591
H       -1.46314844      -0.21055529       1.54940555
H       -1.37711801      -1.23378507       0.95139792
H       -0.57518311      -1.57454064      -1.18371533
11
Frame=14 idx=000419 GeodesicLength=1.1612701376525116 rxn_smarts="[O:1]([N:2]=[C:3]1[C:4]([H:8])([H:9])[O:5][C:6]1([H:10])[H:11])[H:7]>>[H:9][H:10].[O:1]([N-:2][C:3]1=[C:4]([H:8])[O+:5]=[C:6]1[H:11])[H:7]"
O        2.28132087      -0.60147450      -0.45419123
N        1.58965533       0.52986083      -0.08741988
C        0.34260287       0.34553725      -0.19500179
C       -0.81945160       1.06377210       0.40031407
O       -1.59970720       0.57114427      -0.58811259
C       -0.66923964      -0.64894488      -0.64060659
H        3.20176017      -0.34086892      -0.37002459
H       -0.87959605       2.13095362       0.60483514
H       -1.48390649      -0.19967641       1.55348281
H       -1.40271130      -1.26067476       0.93022832
H       -0.56072697      -1.58962860      -1.15350367
11
Frame=15 idx=000419 GeodesicLength=1.2450672511239482 rxn_smarts="[O:1]([N:2]=[C:3]1[C:4]([H:8])([H:9])[O:5][C:6]1([H:10])[H:11])[H:7]>>[H:9][H:10].[O:1]([N-:2][C:3]1=[C:4]([H:8])[O+:5]=[C:6]1[H:11])[H:7]"
O        2.28313206      -0.59709397      -0.45870746
N        1.59251802       0.53943914      -0.10332584
C        0.34512876       0.35311911      -0.20763793
C       -0.81423358       1.05988795       0.40967896
O       -1.60005721       0.58319570      -0.58426525
C       -0.66626830      -0.65035108      -0.63708538
H        3.20381903      -0.33776675      -0.37391242
H       -0.86359795       2.12897210       0.61214048
H       -1.50490928      -0.18686296       1.55874717
H       -1.43004685      -1.28862203       0.90745372
H       -0.54548469      -1.60391722      -1.12308606
11
Frame=16 idx=000419 GeodesicLength=1.3284610903376255 rxn_smarts="[O:1]([N:2]=[C:3]1[C:4]([H:8])([H:9])[O:5][C:6]1([H:10])[H:11])[H:7]>>[H:9][H:10].[O:1]([N-:2][C:3]1=[C:4]([H:8])[O+:5]=[C:6]1[H:11])[H:7]"
O        2.28518977      -0.59207841      -0.46488868
N        1.59532867       0.54908522      -0.12000554
C        0.34760691       0.36027702      -0.22013754
C       -0.80859136       1.05567065       0.41906387
O       -1.60033791       0.59469198      -0.57973083
C       -0.66308957      -0.65253490      -0.63254606
H        3.20602255      -0.33454820      -0.37677739
H       -0.84732369       2.12657563       0.61932612
H       -1.52608822      -0.17195457       1.56533551
H       -1.45926494      -1.31770276       0.88282474
H       -0.52945220      -1.61748164      -1.09246421
