13
Frame=0 idx=003308 GeodesicLength=0.0 rxn_smarts="[C:1]([C:2]#[C:3][C@@:4]1([H:10])[C:5]([H:11])([H:12])[N:6]1[H:13])([H:7])([H:8])[H:9]>>[C:1](=[C:2]=[C:3]([C@@:4]1([H:10])[C:5]([H:11])([H:12])[N:6]1[H:13])[H:7])([H:8])[H:9]"
C       -2.80804118      -0.03595841       0.20179673
C       -1.43130003       0.02615490       0.27539233
C       -0.20657230      -0.36327958       0.33515056
C        0.94824325      -0.15017803      -0.50005505
C        2.16428785       0.39853083       0.17845313
N        2.14999935      -0.97219696      -0.25692365
H       -1.73777929       0.98338940      -0.33483389
H       -3.41079609       0.80374983       0.52297963
H       -3.31902039      -0.88567424      -0.24212233
H        0.81550342       0.09408082      -1.55144135
H        2.07962507       0.61952935       1.23574513
H        2.79926071       1.06403981      -0.39412954
H        1.95658969      -1.58218769       0.52998833
13
Frame=1 idx=003308 GeodesicLength=0.10060577169274822 rxn_smarts="[C:1]([C:2]#[C:3][C@@:4]1([H:10])[C:5]([H:11])([H:12])[N:6]1[H:13])([H:7])([H:8])[H:9]>>[C:1](=[C:2]=[C:3]([C@@:4]1([H:10])[C:5]([H:11])([H:12])[N:6]1[H:13])[H:7])([H:8])[H:9]"
C       -2.80294551      -0.01588689       0.20851778
C       -1.42680156       0.01361147       0.30910932
C       -0.22185149      -0.42007871       0.24923462
C        0.96028541      -0.15821928      -0.53034449
C        2.14193646       0.40777056       0.19086304
N        2.16522812      -0.96206740      -0.25070141
H       -1.70818500       0.96376346      -0.37270063
H       -3.38695880       0.83154745       0.54449810
H       -3.33467422      -0.87875563      -0.18193642
H        0.85439742       0.09014466      -1.58349190
H        2.01208875       0.62314498       1.24481244
H        2.78894494       1.08349825      -0.35570253
H        1.95853548      -1.57847293       0.52784208
13
Frame=2 idx=003308 GeodesicLength=0.20221066376678287 rxn_smarts="[C:1]([C:2]#[C:3][C@@:4]1([H:10])[C:5]([H:11])([H:12])[N:6]1[H:13])([H:7])([H:8])[H:9]>>[C:1](=[C:2]=[C:3]([C@@:4]1([H:10])[C:5]([H:11])([H:12])[N:6]1[H:13])[H:7])([H:8])[H:9]"
C       -2.79414079      -0.00060464       0.22286649
C       -1.41742811       0.00215725       0.32549155
C       -0.23855996      -0.45931819       0.14717992
C        0.97597623      -0.15988287      -0.56522051
C        2.11969202       0.41482122       0.20621163
N        2.17458541      -0.95406471      -0.23939729
H       -1.69105116       0.93865453      -0.42589865
H       -3.35661308       0.85335948       0.57945023
H       -3.34896671      -0.87506858      -0.10436420
H        0.90742799       0.09368655      -1.61994166
H        1.93822518       0.62523546       1.25362044
H        2.78636716       1.09621803      -0.30881838
H        1.94448582      -1.57519355       0.52882041
13
Frame=3 idx=003308 GeodesicLength=0.304812108279086 rxn_smarts="[C:1]([C:2]#[C:3][C@@:4]1([H:10])[C:5]([H:11])([H:12])[N:6]1[H:13])([H:7])([H:8])[H:9]>>[C:1](=[C:2]=[C:3]([C@@:4]1([H:10])[C:5]([H:11])([H:12])[N:6]1[H:13])[H:7])([H:8])[H:9]"
C       -2.78162893       0.00970348       0.24013092
C       -1.40367118      -0.00858355       0.33054678
C       -0.25549212      -0.48078308       0.03726697
C        0.99319819      -0.15734385      -0.60160041
C        2.09764797       0.42005358       0.22128879
N        2.17643970      -0.94935260      -0.22275382
H       -1.68441685       0.91482115      -0.48197314
H       -3.32194222       0.86548247       0.62653471
H       -3.35611527      -0.87299884      -0.02503762
H        0.96884647       0.09956493      -1.65723046
H        1.86199520       0.62984339       1.25805157
H        2.78943159       1.10099325      -0.26011833
H        1.91570745      -1.57140034       0.53489403
13
Frame=4 idx=003308 GeodesicLength=0.4076927855433914 rxn_smarts="[C:1]([C:2]#[C:3][C@@:4]1([H:10])[C:5]([H:11])([H:12])[N:6]1[H:13])([H:7])([H:8])[H:9]>>[C:1](=[C:2]=[C:3]([C@@:4]1([H:10])[C:5]([H:11])([H:12])[N:6]1[H:13])[H:7])([H:8])[H:9]"
C       -2.76761510       0.01511677       0.25310954
C       -1.38857500      -0.02003168       0.33085967
C       -0.27130388      -0.48245116      -0.06815308
C        1.00980085      -0.15134161      -0.63553522
C        2.07837582       0.42369648       0.23331448
N        2.16950943      -0.94868930      -0.20270110
H       -1.68366774       0.90024280      -0.52885023
H       -3.28851503       0.86517233       0.67815971
H       -3.35436026      -0.87513079       0.04575396
H        1.03105311       0.10429307      -1.69134455
H        1.79267704       0.63866709       1.25641141
H        2.79810268       1.09696449      -0.21680189
H        1.87451809      -1.56650848       0.54577731
13
Frame=5 idx=003308 GeodesicLength=0.5108898973066646 rxn_smarts="[C:1]([C:2]#[C:3][C@@:4]1([H:10])[C:5]([H:11])([H:12])[N:6]1[H:13])([H:7])([H:8])[H:9]>>[C:1](=[C:2]=[C:3]([C@@:4]1([H:10])[C:5]([H:11])([H:12])[N:6]1[H:13])[H:7])([H:8])[H:9]"
C       -2.75226438       0.01611034       0.26345885
C       -1.37235879      -0.03271756       0.33026465
C       -0.28634430      -0.46872904      -0.16648286
C        1.02486984      -0.14419162      -0.66647944
C        2.06144382       0.42674630       0.24139801
N        2.15475944      -0.95136599      -0.17961877
H       -1.68607920       0.89610435      -0.56407450
H       -3.25590753       0.85234411       0.73526147
H       -3.34516815      -0.87905531       0.09881054
H        1.09149551       0.10441583      -1.72193671
H        1.73078963       0.65422640       1.24821387
H        2.81108030       1.08533112      -0.18071586
H        1.82368382      -1.55921894       0.56190075
13
Frame=6 idx=003308 GeodesicLength=0.6138300965753282 rxn_smarts="[C:1]([C:2]#[C:3][C@@:4]1([H:10])[C:5]([H:11])([H:12])[N:6]1[H:13])([H:7])([H:8])[H:9]>>[C:1](=[C:2]=[C:3]([C@@:4]1([H:10])[C:5]([H:11])([H:12])[N:6]1[H:13])[H:7])([H:8])[H:9]"
C       -2.73707145       0.01377254       0.27119810
C       -1.35653929      -0.04860571       0.33029875
C       -0.30020049      -0.44177364      -0.25420849
C        1.03812952      -0.13669454      -0.69357708
C        2.04785439       0.42972609       0.24543096
N        2.13368513      -0.95631988      -0.15469978
H       -1.68933789       0.90200592      -0.58711568
H       -3.22509538       0.82839652       0.79552540
H       -3.33259982      -0.88419487       0.13182158
H        1.14773088       0.09859288      -1.74839793
H        1.67912349       0.67629443       1.23448476
H        2.82770336       1.06766389      -0.15303278
H        1.76661755      -1.54886362       0.58227220
13
Frame=7 idx=003308 GeodesicLength=0.7162021411934761 rxn_smarts="[C:1]([C:2]#[C:3][C@@:4]1([H:10])[C:5]([H:11])([H:12])[N:6]1[H:13])([H:7])([H:8])[H:9]>>[C:1](=[C:2]=[C:3]([C@@:4]1([H:10])[C:5]([H:11])([H:12])[N:6]1[H:13])[H:7])([H:8])[H:9]"
C       -2.72233281       0.00916426       0.27698826
C       -1.34152473      -0.06793193       0.33105178
C       -0.31280141      -0.40394580      -0.33008447
C        1.04934902      -0.12911234      -0.71654902
C        2.03779731       0.43260532       0.24623459
N        2.10783778      -0.96232610      -0.12926551
H       -1.69297545       0.91534610      -0.60103778
H       -3.19621233       0.79553274       0.85571608
H       -3.31904038      -0.88990552       0.14805126
H        1.19820152       0.08742528      -1.77044010
H        1.63853332       0.70314473       1.21702084
H        2.84690293       1.04544481      -0.13265939
H        1.70626523      -1.53544156       0.60497347
13
Frame=8 idx=003308 GeodesicLength=0.8180796829653911 rxn_smarts="[C:1]([C:2]#[C:3][C@@:4]1([H:10])[C:5]([H:11])([H:12])[N:6]1[H:13])([H:7])([H:8])[H:9]>>[C:1](=[C:2]=[C:3]([C@@:4]1([H:10])[C:5]([H:11])([H:12])[N:6]1[H:13])[H:7])([H:8])[H:9]"
C       -2.70833065       0.00301209       0.28142580
C       -1.32747259      -0.09000788       0.33192698
C       -0.32430396      -0.35750662      -0.39429038
C        1.05853035      -0.12141258      -0.73559053
C        2.03120288       0.43535941       0.24479037
N        2.07857160      -0.96859529      -0.10439480
H       -1.69761493       0.93317214      -0.61001163
H       -3.16906270       0.75607275       0.91375912
H       -3.30580896      -0.89593368       0.15218867
H        1.24229722       0.07247855      -1.78835006
H        1.60890680       0.73297715       1.19787894
H        2.86837005       1.01973126      -0.11793869
H        1.64471489      -1.51934731       0.62860622
13
Frame=9 idx=003308 GeodesicLength=0.9194219930134481 rxn_smarts="[C:1]([C:2]#[C:3][C@@:4]1([H:10])[C:5]([H:11])([H:12])[N:6]1[H:13])([H:7])([H:8])[H:9]>>[C:1](=[C:2]=[C:3]([C@@:4]1([H:10])[C:5]([H:11])([H:12])[N:6]1[H:13])[H:7])([H:8])[H:9]"
C       -2.69466307      -0.00374775       0.28456305
C       -1.31413182      -0.11465233       0.33236545
C       -0.33491756      -0.30522949      -0.44691317
C        1.06517134      -0.11387887      -0.75062746
C        2.02720271       0.43794190       0.24169800
N        2.04713738      -0.97426615      -0.08053092
H       -1.70328895       0.95322334      -0.61687287
H       -3.14199144       0.71153012       0.96908708
H       -3.29327123      -0.90080494       0.14622376
H        1.27854746       0.05490263      -1.80199744
H        1.58927585       0.76407547       1.17826155
H        2.89044671       0.99145735      -0.10794820
H        1.58448262      -1.50055128       0.65269117
13
Frame=10 idx=003308 GeodesicLength=1.020513237124605 rxn_smarts="[C:1]([C:2]#[C:3][C@@:4]1([H:10])[C:5]([H:11])([H:12])[N:6]1[H:13])([H:7])([H:8])[H:9]>>[C:1](=[C:2]=[C:3]([C@@:4]1([H:10])[C:5]([H:11])([H:12])[N:6]1[H:13])[H:7])([H:8])[H:9]"
C       -2.68181329      -0.01057782       0.28655906
C       -1.30199482      -0.14222703       0.33127789
C       -0.34440013      -0.24856464      -0.48858049
C        1.06975602      -0.10624154      -0.76206525
C        2.02583433       0.44023270       0.23787021
N        2.01502269      -0.97900803      -0.05836622
H       -1.71047904       0.97358059      -0.62473890
H       -3.11536317       0.66435567       1.02014407
H       -3.28278901      -0.90439252       0.13543464
H        1.30754342       0.03624050      -1.81204303
H        1.57873851       0.79484996       1.15973462
H        2.91283134       0.96193896      -0.10124987
H        1.52711313      -1.48018681       0.67602327
13
Frame=11 idx=003308 GeodesicLength=1.1214259673334173 rxn_smarts="[C:1]([C:2]#[C:3][C@@:4]1([H:10])[C:5]([H:11])([H:12])[N:6]1[H:13])([H:7])([H:8])[H:9]>>[C:1](=[C:2]=[C:3]([C@@:4]1([H:10])[C:5]([H:11])([H:12])[N:6]1[H:13])[H:7])([H:8])[H:9]"
C       -2.66960511      -0.01748508       0.28743392
C       -1.29118279      -0.17325942       0.32816310
C       -0.35262072      -0.18776775      -0.51891749
C        1.07224827      -0.09820457      -0.76987884
C        2.02706155       0.44209867       0.23344316
N        1.98289071      -0.98267378      -0.03792764
H       -1.71955674       0.99376673      -0.63410730
H       -3.08967482       0.61549294       1.06574605
H       -3.27437114      -0.90644229       0.12123168
H        1.32881798       0.01704863      -1.81867499
H        1.57715672       0.82466269       1.14270400
H        2.93530991       0.93128916      -0.09783340
H        1.47352618      -1.45852592       0.69861776
13
Frame=12 idx=003308 GeodesicLength=1.2225177565510972 rxn_smarts="[C:1]([C:2]#[C:3][C@@:4]1([H:10])[C:5]([H:11])([H:12])[N:6]1[H:13])([H:7])([H:8])[H:9]>>[C:1](=[C:2]=[C:3]([C@@:4]1([H:10])[C:5]([H:11])([H:12])[N:6]1[H:13])[H:7])([H:8])[H:9]"
C       -2.65728808      -0.02299463       0.28810732
C       -1.28138885      -0.20929525       0.32116468
C       -0.36005404      -0.12729034      -0.54026554
C        1.07259889      -0.09030914      -0.77464464
C        2.02897212       0.44407992       0.22931629
N        1.95198508      -0.98472232      -0.01907006
H       -1.72969701       1.01098133      -0.64906148
H       -3.05986394       0.56639873       1.10953070
H       -3.26988813      -0.90365394       0.10471968
H        1.34314043      -0.00123827      -1.82240308
H        1.58061388       0.85244522       1.12810887
H        2.95562012       0.90190645      -0.09595888
H        1.42524951      -1.43630776       0.72045613
13
Frame=13 idx=003308 GeodesicLength=1.3235146891986447 rxn_smarts="[C:1]([C:2]#[C:3][C@@:4]1([H:10])[C:5]([H:11])([H:12])[N:6]1[H:13])([H:7])([H:8])[H:9]>>[C:1](=[C:2]=[C:3]([C@@:4]1([H:10])[C:5]([H:11])([H:12])[N:6]1[H:13])[H:7])([H:8])[H:9]"
C       -2.64510584      -0.02772110       0.28857105
C       -1.27316912      -0.25013900       0.30949426
C       -0.36634566      -0.06489431      -0.55085143
C        1.07107474      -0.08125140      -0.77601249
C        2.03271958       0.44573303       0.22571724
N        1.92232645      -0.98553483      -0.00225679
H       -1.74304606       1.02376466      -0.67195513
H       -3.02807553       0.51836448       1.14909677
H       -3.26885636      -0.89743485       0.08930626
H        1.35027383      -0.01698549      -1.82319109
H        1.59088172       0.87758272       1.11675499
H        2.97538974       0.87266057      -0.09564691
H        1.38193252      -1.41414450       0.74097326
13
Frame=14 idx=003308 GeodesicLength=1.4248007102466704 rxn_smarts="[C:1]([C:2]#[C:3][C@@:4]1([H:10])[C:5]([H:11])([H:12])[N:6]1[H:13])([H:7])([H:8])[H:9]>>[C:1](=[C:2]=[C:3]([C@@:4]1([H:10])[C:5]([H:11])([H:12])[N:6]1[H:13])[H:7])([H:8])[H:9]"
C       -2.63054667      -0.02928978       0.29146038
C       -1.26563756      -0.29902231       0.28916974
C       -0.37236870      -0.00756674      -0.55593353
C        1.06804375      -0.07077173      -0.77525442
C        2.03428805       0.44761896       0.22545188
N        1.89554309      -0.98453426       0.01112462
H       -1.75945070       1.02433108      -0.71320374
H       -2.98396462       0.47838068       1.18811318
H       -3.27360495      -0.88327636       0.08341154
H        1.35343411      -0.02547277      -1.82160523
H        1.59957084       0.89651610       1.11156765
H        2.99005268       0.84853199      -0.09084274
H        1.34464068      -1.39544484       0.75654066
13
Frame=15 idx=003308 GeodesicLength=1.526272861401295 rxn_smarts="[C:1]([C:2]#[C:3][C@@:4]1([H:10])[C:5]([H:11])([H:12])[N:6]1[H:13])([H:7])([H:8])[H:9]>>[C:1](=[C:2]=[C:3]([C@@:4]1([H:10])[C:5]([H:11])([H:12])[N:6]1[H:13])[H:7])([H:8])[H:9]"
C       -2.61275698      -0.02757560       0.29670270
C       -1.26026264      -0.35866704       0.25642188
C       -0.37839068       0.04767755      -0.55317261
C        1.06341532      -0.05775530      -0.77180853
C        2.03439562       0.44988402       0.22871012
N        1.87073049      -0.98194591       0.02150412
H       -1.78033850       1.00983578      -0.77535193
H       -2.92514152       0.44482152       1.22784914
H       -3.28494291      -0.85910447       0.08774647
H        1.35236716      -0.02590602      -1.81749794
H        1.60807840       0.91022331       1.11304963
H        3.00110532       0.82841364      -0.08200001
H        1.31174094      -1.37990149       0.76784697
13
Frame=16 idx=003308 GeodesicLength=1.628221461578398 rxn_smarts="[C:1]([C:2]#[C:3][C@@:4]1([H:10])[C:5]([H:11])([H:12])[N:6]1[H:13])([H:7])([H:8])[H:9]>>[C:1](=[C:2]=[C:3]([C@@:4]1([H:10])[C:5]([H:11])([H:12])[N:6]1[H:13])[H:7])([H:8])[H:9]"
C       -2.58763196      -0.02057911       0.30514840
C       -1.25587394      -0.42726646       0.21041418
C       -0.38665630       0.09684866      -0.54573845
C        1.05641742      -0.04110466      -0.76649522
C        2.02960860       0.45231213       0.23787682
N        1.84743261      -0.97797925       0.02674211
H       -1.80547861       0.97229515      -0.86592208
H       -2.84462872       0.42358387       1.26726092
H       -3.29879190      -0.82349510       0.11118573
H        1.34849891      -0.01351802      -1.81123957
H        1.60994447       0.91508948       1.12414291
H        3.00523511       0.81487171      -0.06409631
H        1.28192431      -1.37105840       0.77072055
