13
Frame=0 idx=000508 GeodesicLength=0.0 rxn_smarts="[C:1]([n:2]1[c:3]([H:10])[c:4]([H:11])[c:5]([H:12])[c:6]1[H:13])([H:7])([H:8])[H:9]>>[C-:1]([N+:2]1=[C:3]=[C:4]([H:11])[C:5]([H:12])=[C:6]1[H:13])([H:7])[H:9].[H:8][H:10]"
C       -1.67046847       0.39807531       0.15845834
N       -0.38354715       0.18109397      -0.01581896
C        0.25051669      -0.95911609       0.48914344
C        1.57692281      -0.71031322       0.39096337
C        1.77467057       0.56325352      -0.29434575
C        0.56102747       1.05883630      -0.59920280
H       -2.16088283       0.04776487       1.05063230
H       -1.96710960      -1.56546531      -0.00302634
H       -2.14222868       1.17324903      -0.43604968
H       -1.16928000      -1.74572995       0.30289718
H        2.36135136      -1.41965820       0.60660574
H        2.71810914       0.98730335      -0.60615645
H        0.25091864       1.99070640      -1.04410036
13
Frame=1 idx=000508 GeodesicLength=0.0573316608281719 rxn_smarts="[C:1]([n:2]1[c:3]([H:10])[c:4]([H:11])[c:5]([H:12])[c:6]1[H:13])([H:7])([H:8])[H:9]>>[C-:1]([N+:2]1=[C:3]=[C:4]([H:11])[C:5]([H:12])=[C:6]1[H:13])([H:7])[H:9].[H:8][H:10]"
C       -1.67654618       0.38862252       0.14375699
N       -0.38271750       0.18452803      -0.01313605
C        0.25092190      -0.96192656       0.48607954
C        1.57759792      -0.71153436       0.38668070
C        1.77500121       0.56304610      -0.29432664
C        0.56102066       1.06293304      -0.59300708
H       -2.16151436       0.06244941       1.04880498
H       -1.97407461      -1.56325356       0.00907188
H       -2.14036890       1.17354767      -0.44438517
H       -1.16091517      -1.76182839       0.30888132
H        2.36220734      -1.42108264       0.60103377
H        2.71827376       0.98758312      -0.60591007
H        0.25111394       1.99691561      -1.03354416
13
Frame=2 idx=000508 GeodesicLength=0.11467947473093593 rxn_smarts="[C:1]([n:2]1[c:3]([H:10])[c:4]([H:11])[c:5]([H:12])[c:6]1[H:13])([H:7])([H:8])[H:9]>>[C-:1]([N+:2]1=[C:3]=[C:4]([H:11])[C:5]([H:12])=[C:6]1[H:13])([H:7])[H:9].[H:8][H:10]"
C       -1.68230368       0.37942337       0.12965054
N       -0.38184294       0.18835468      -0.00952033
C        0.25133643      -0.96471080       0.48312743
C        1.57828723      -0.71282524       0.38228582
C        1.77531372       0.56269729      -0.29457601
C        0.56098883       1.06711986      -0.58648370
H       -2.16258631       0.07741775       1.04637977
H       -1.98095999      -1.56066196       0.02100579
H       -2.13857123       1.17272487      -0.45342657
H       -1.15235437      -1.77786015       0.31485890
H        2.36306828      -1.42260247       0.59531430
H        2.71838153       0.98764875      -0.60614632
H        0.25124252       2.00327405      -1.02246962
13
Frame=3 idx=000508 GeodesicLength=0.17196404448931685 rxn_smarts="[C:1]([n:2]1[c:3]([H:10])[c:4]([H:11])[c:5]([H:12])[c:6]1[H:13])([H:7])([H:8])[H:9]>>[C-:1]([N+:2]1=[C:3]=[C:4]([H:11])[C:5]([H:12])=[C:6]1[H:13])([H:7])[H:9].[H:8][H:10]"
C       -1.68770840       0.37049274       0.11630903
N       -0.38092059       0.19257797      -0.00489945
C        0.25175111      -0.96749524       0.48013601
C        1.57897986      -0.71412725       0.37782016
C        1.77560065       0.56220745      -0.29506709
C        0.56093218       1.07135927      -0.57958602
H       -2.16407635       0.09246383       1.04346230
H       -1.98780208      -1.55758889       0.03251840
H       -2.13677580       1.17098254      -0.46282237
H       -1.14361818      -1.79379019       0.32060051
H        2.36394929      -1.42403057       0.58973241
H        2.71841758       0.98746400      -0.60690509
H        0.25127072       2.00948434      -1.01129881
13
Frame=4 idx=000508 GeodesicLength=0.22926948345363926 rxn_smarts="[C:1]([n:2]1[c:3]([H:10])[c:4]([H:11])[c:5]([H:12])[c:6]1[H:13])([H:7])([H:8])[H:9]>>[C-:1]([N+:2]1=[C:3]=[C:4]([H:11])[C:5]([H:12])=[C:6]1[H:13])([H:7])[H:9].[H:8][H:10]"
C       -1.69275280       0.36182161       0.10353947
N       -0.37997225       0.19707201       0.00044240
C        0.25216378      -0.97029076       0.47716436
C        1.57967443      -0.71558678       0.37305521
C        1.77584949       0.56166361      -0.29568913
C        0.56084836       1.07556256      -0.57258748
H       -2.16588325       0.10791301       1.04010233
H       -1.99471253      -1.55413731       0.04416643
H       -2.13496807       1.16821125      -0.47304133
H       -1.13471637      -1.80970952       0.32659807
H        2.36480579      -1.42576512       0.58347258
H        2.71843159       0.98758918      -0.60724299
H        0.25123183       2.01565624      -0.99997992
13
Frame=5 idx=000508 GeodesicLength=0.2865690854249646 rxn_smarts="[C:1]([n:2]1[c:3]([H:10])[c:4]([H:11])[c:5]([H:12])[c:6]1[H:13])([H:7])([H:8])[H:9]>>[C-:1]([N+:2]1=[C:3]=[C:4]([H:11])[C:5]([H:12])=[C:6]1[H:13])([H:7])[H:9].[H:8][H:10]"
C       -1.69743483       0.35343677       0.09153091
N       -0.37899338       0.20186681       0.00663480
C        0.25256679      -0.97314620       0.47405490
C        1.58035961      -0.71707011       0.36821751
C        1.77605803       0.56109764      -0.29637163
C        0.56073733       1.07980952      -0.56527462
H       -2.16803142       0.12345162       1.03640181
H       -2.00167958      -1.55023864       0.05545369
H       -2.13308980       1.16472038      -0.48355054
H       -1.12561802      -1.82565793       0.33238352
H        2.36567402      -1.42745997       0.57725093
H        2.71836855       0.98760957      -0.60786406
H        0.25108270       2.02158053      -0.98886722
13
Frame=6 idx=000508 GeodesicLength=0.3438727190371089 rxn_smarts="[C:1]([n:2]1[c:3]([H:10])[c:4]([H:11])[c:5]([H:12])[c:6]1[H:13])([H:7])([H:8])[H:9]>>[C-:1]([N+:2]1=[C:3]=[C:4]([H:11])[C:5]([H:12])=[C:6]1[H:13])([H:7])[H:9].[H:8][H:10]"
C       -1.70175658       0.34527809       0.08008755
N       -0.37801373       0.20678421       0.01328534
C        0.25295113      -0.97608148       0.47074027
C        1.58102608      -0.71869613       0.36304186
C        1.77621763       0.56051424      -0.29713835
C        0.56059645       1.08400778      -0.55787558
H       -2.17036228       0.13935690       1.03236396
H       -2.00884087      -1.54595646       0.06691261
H       -2.13112820       1.16041815      -0.49467898
H       -1.11636088      -1.84167616       0.33841359
H        2.36652391      -1.42933506       0.57055063
H        2.71828431       0.98799420      -0.60795113
H        0.25086304       2.02739171      -0.97775178
13
Frame=7 idx=000508 GeodesicLength=0.40116884105637574 rxn_smarts="[C:1]([n:2]1[c:3]([H:10])[c:4]([H:11])[c:5]([H:12])[c:6]1[H:13])([H:7])([H:8])[H:9]>>[C-:1]([N+:2]1=[C:3]=[C:4]([H:11])[C:5]([H:12])=[C:6]1[H:13])([H:7])[H:9].[H:8][H:10]"
C       -1.70573301       0.33740355       0.06945352
N       -0.37702452       0.21192733       0.02067183
C        0.25330774      -0.97913264       0.46711411
C        1.58166291      -0.72024131       0.35799362
C        1.77633343       0.56001417      -0.29775787
C        0.56043900       1.08838679      -0.54989477
H       -2.17297228       0.15513769       1.02810087
H       -2.01610432      -1.54124998       0.07770980
H       -2.12901216       1.15576032      -0.50568492
H       -1.10685108      -1.85784029       0.34395550
H        2.36739971      -1.43094009       0.56440100
H        2.71805975       0.98794480      -0.60889987
H        0.25049484       2.03282965      -0.96716283
13
Frame=8 idx=000508 GeodesicLength=0.45848803954210693 rxn_smarts="[C:1]([n:2]1[c:3]([H:10])[c:4]([H:11])[c:5]([H:12])[c:6]1[H:13])([H:7])([H:8])[H:9]>>[C-:1]([N+:2]1=[C:3]=[C:4]([H:11])[C:5]([H:12])=[C:6]1[H:13])([H:7])[H:9].[H:8][H:10]"
C       -1.70938877       0.32974510       0.05938442
N       -0.37606330       0.21713911       0.02842173
C        0.25363563      -0.98230418       0.46315799
C        1.58226870      -0.72177109       0.35292998
C        1.77640204       0.55959082      -0.29827317
C        0.56026418       1.09291427      -0.54146275
H       -2.17575668       0.17104302       1.02354045
H       -2.02356195      -1.53620548       0.08827224
H       -2.12674290       1.15061995      -0.51694800
H       -1.09709538      -1.87420620       0.34948029
H        2.36827948      -1.43244074       0.55841763
H        2.71771883       0.98769720      -0.61033239
H        0.25004014       2.03817824      -0.95658843
13
Frame=9 idx=000508 GeodesicLength=0.5157709686068438 rxn_smarts="[C:1]([n:2]1[c:3]([H:10])[c:4]([H:11])[c:5]([H:12])[c:6]1[H:13])([H:7])([H:8])[H:9]>>[C-:1]([N+:2]1=[C:3]=[C:4]([H:11])[C:5]([H:12])=[C:6]1[H:13])([H:7])[H:9].[H:8][H:10]"
C       -1.71274673       0.32218108       0.04959768
N       -0.37513927       0.22217959       0.03608203
C        0.25391814      -0.98555837       0.45886049
C        1.58282867      -0.72338602       0.34754713
C        1.77642241       0.55933073      -0.29854782
C        0.56007797       1.09737198      -0.53296941
H       -2.17855476       0.18752927       1.01856897
H       -2.03139849      -1.53083524       0.09946483
H       -2.12430369       1.14466045      -0.52906268
H       -1.08710469      -1.89076264       0.35553567
H        2.36909911      -1.43415156       0.55168673
H        2.71733247       0.98778435      -0.61127707
H        0.24956886       2.04365637      -0.94548656
13
Frame=10 idx=000508 GeodesicLength=0.5730903610277436 rxn_smarts="[C:1]([n:2]1[c:3]([H:10])[c:4]([H:11])[c:5]([H:12])[c:6]1[H:13])([H:7])([H:8])[H:9]>>[C-:1]([N+:2]1=[C:3]=[C:4]([H:11])[C:5]([H:12])=[C:6]1[H:13])([H:7])[H:9].[H:8][H:10]"
C       -1.71584009       0.31476194       0.04018186
N       -0.37426840       0.22708679       0.04368623
C        0.25416223      -0.98897339       0.45412170
C        1.58334764      -0.72504250       0.34200243
C        1.77639627       0.55924399      -0.29855827
C        0.55986777       1.10186555      -0.52427507
H       -2.18136964       0.20438640       1.01326172
H       -2.03958498      -1.52514553       0.11087874
H       -2.12167893       1.13818066      -0.54166026
H       -1.07682807      -1.90760741       0.36193364
H        2.36990609      -1.43589326       0.54475682
H        2.71685528       0.98793172      -0.61224886
H        0.24903483       2.04920503      -0.93408067
13
Frame=11 idx=000508 GeodesicLength=0.6304237507758467 rxn_smarts="[C:1]([n:2]1[c:3]([H:10])[c:4]([H:11])[c:5]([H:12])[c:6]1[H:13])([H:7])([H:8])[H:9]>>[C-:1]([N+:2]1=[C:3]=[C:4]([H:11])[C:5]([H:12])=[C:6]1[H:13])([H:7])[H:9].[H:8][H:10]"
C       -1.71867541       0.30756896       0.03138981
N       -0.37344503       0.23184223       0.05120301
C        0.25434792      -0.99264604       0.44865137
C        1.58380922      -0.72677780       0.33618331
C        1.77633324       0.55936390      -0.29817198
C        0.55963196       1.10631582      -0.51547462
H       -2.18401684       0.22146118       1.00790807
H       -2.04822083      -1.51899890       0.12230514
H       -2.11886495       1.13150086      -0.55408886
H       -1.06630721      -1.92474404       0.36843908
H        2.37070623      -1.43758866       0.53773559
H        2.71635467       0.98849693      -0.61249065
H        0.24834705       2.05420556      -0.92358927
13
Frame=12 idx=000508 GeodesicLength=0.6877562674810959 rxn_smarts="[C:1]([n:2]1[c:3]([H:10])[c:4]([H:11])[c:5]([H:12])[c:6]1[H:13])([H:7])([H:8])[H:9]>>[C-:1]([N+:2]1=[C:3]=[C:4]([H:11])[C:5]([H:12])=[C:6]1[H:13])([H:7])[H:9].[H:8][H:10]"
C       -1.72130873       0.30048818       0.02292165
N       -0.37268013       0.23630480       0.05836125
C        0.25447265      -0.99653963       0.44252096
C        1.58420966      -0.72862606       0.32998723
C        1.77621719       0.55958898      -0.29767053
C        0.55935864       1.11065268      -0.50676509
H       -2.18647848       0.23910575       1.00229818
H       -2.05739318      -1.51246084       0.13437634
H       -2.11587369       1.12430682      -0.56700452
H       -1.05544252      -1.94225645       0.37533729
H        2.37148209      -1.43933124       0.53044228
H        2.71584409       0.98950946      -0.61201627
H        0.24759241       2.05925755      -0.91278876
13
Frame=13 idx=000508 GeodesicLength=0.7451392624392676 rxn_smarts="[C:1]([n:2]1[c:3]([H:10])[c:4]([H:11])[c:5]([H:12])[c:6]1[H:13])([H:7])([H:8])[H:9]>>[C-:1]([N+:2]1=[C:3]=[C:4]([H:11])[C:5]([H:12])=[C:6]1[H:13])([H:7])[H:9].[H:8][H:10]"
C       -1.72376213       0.29364460       0.01504641
N       -0.37196783       0.24053141       0.06524349
C        0.25452924      -1.00074032       0.43553161
C        1.58454538      -0.73061879       0.32337417
C        1.77606639       0.56000779      -0.29681736
C        0.55903737       1.11484205      -0.49821244
H       -2.18865957       0.25701379       0.99670150
H       -2.06709645      -1.50543697       0.14646240
H       -2.11272842       1.11704523      -0.57964411
H       -1.04426158      -1.96013201       0.38267249
H        2.37224362      -1.44109795       0.52294205
H        2.71538075       0.99120532      -0.61027072
H        0.24667322       2.06373584      -0.90302947
13
Frame=14 idx=000508 GeodesicLength=0.8024849777297569 rxn_smarts="[C:1]([n:2]1[c:3]([H:10])[c:4]([H:11])[c:5]([H:12])[c:6]1[H:13])([H:7])([H:8])[H:9]>>[C-:1]([N+:2]1=[C:3]=[C:4]([H:11])[C:5]([H:12])=[C:6]1[H:13])([H:7])[H:9].[H:8][H:10]"
C       -1.72608071       0.28691372       0.00752080
N       -0.37131830       0.24446003       0.07173073
C        0.25450580      -1.00514105       0.42780353
C        1.58480584      -0.73269628       0.31639590
C        1.77587386       0.56055093      -0.29574656
C        0.55866250       1.11883920      -0.48989177
H       -2.19061551       0.27544888       0.99088145
H       -2.07738642      -1.49794727       0.15913084
H       -2.10943004       1.10938063      -0.59257889
H       -1.03258967      -1.97843608       0.39039369
H        2.37295805      -1.44288586       0.51517706
H        2.71493725       0.99333885      -0.60767668
H        0.24567735       2.06817429      -0.89314010
13
Frame=15 idx=000508 GeodesicLength=0.8598569373172387 rxn_smarts="[C:1]([n:2]1[c:3]([H:10])[c:4]([H:11])[c:5]([H:12])[c:6]1[H:13])([H:7])([H:8])[H:9]>>[C-:1]([N+:2]1=[C:3]=[C:4]([H:11])[C:5]([H:12])=[C:6]1[H:13])([H:7])[H:9].[H:8][H:10]"
C       -1.72829214       0.28035369       0.00041248
N       -0.37072991       0.24814222       0.07793276
C        0.25440167      -1.00976505       0.41930626
C        1.58499244      -0.73479340       0.30922433
C        1.77563913       0.56122583      -0.29443769
C        0.55823565       1.12273532      -0.48163655
H       -2.19239627       0.29412276       0.98486726
H       -2.08822142      -1.48999105       0.17172765
H       -2.10597282       1.10158825      -0.60543949
H       -1.02033951      -1.99721186       0.39851273
H        2.37365296      -1.44450016       0.50768772
H        2.71443771       0.99554932      -0.60495119
H        0.24459249       2.07254414      -0.88320627
13
Frame=16 idx=000508 GeodesicLength=0.9172438543733396 rxn_smarts="[C:1]([n:2]1[c:3]([H:10])[c:4]([H:11])[c:5]([H:12])[c:6]1[H:13])([H:7])([H:8])[H:9]>>[C-:1]([N+:2]1=[C:3]=[C:4]([H:11])[C:5]([H:12])=[C:6]1[H:13])([H:7])[H:9].[H:8][H:10]"
C       -1.73042440       0.27399979      -0.00623505
N       -0.37020282       0.25159134       0.08387449
C        0.25420838      -1.01460303       0.40999451
C        1.58509925      -0.73687344       0.30194185
C        1.77535961       0.56199599      -0.29293920
C        0.55775264       1.12652683      -0.47344882
H       -2.19399067       0.31288834       0.97872447
H       -2.09961964      -1.48155432       0.18391582
H       -2.10238024       1.09383919      -0.61798822
H       -1.00740743      -2.01649164       0.40701838
H        2.37432677      -1.44583482       0.50078097
H        2.71385990       0.99770291      -0.60234041
H        0.24341866       2.07681286      -0.87329879
