15
Frame=0 idx=009323 GeodesicLength=0.0 rxn_smarts="[C:1]([n:2]1[c:3]([H:11])[c:4]([C:5]([H:12])([H:13])[H:14])[c:6]([H:15])[n:7]1)([H:8])([H:9])[H:10]>>[C:1]([n:2]1[c+:3]([H:11])[c:4]([C:5]([H:12])([H:13])[H:14])[c-:6][n:7]1[H:15])([H:8])([H:9])[H:10]"
C       -2.46407840      -0.05400238      -0.40360270
N       -1.08709008       0.17394679      -0.03602217
C        0.01209228      -0.51346502      -0.39988839
C        1.12036646       0.09103615       0.12857753
C        2.53798185      -0.37004358       0.02625415
C        0.67429513       1.28409015       0.77643765
N       -0.71256014       1.29702612       0.63524386
H       -2.65259110       0.22517006      -1.44210220
H       -3.08519552       0.55993243       0.24443504
H       -2.72252842      -1.10305752      -0.25801178
H       -0.07897561      -1.39369940      -1.02121459
H        2.60732379      -1.35594672      -0.43658390
H        2.99514829      -0.42452832       1.01550303
H        3.13434969       0.32441268      -0.56769065
H       -0.27853817       1.25912855       1.73866516
15
Frame=1 idx=009323 GeodesicLength=0.054343079510262446 rxn_smarts="[C:1]([n:2]1[c:3]([H:11])[c:4]([C:5]([H:12])([H:13])[H:14])[c:6]([H:15])[n:7]1)([H:8])([H:9])[H:10]>>[C:1]([n:2]1[c+:3]([H:11])[c:4]([C:5]([H:12])([H:13])[H:14])[c-:6][n:7]1[H:15])([H:8])([H:9])[H:10]"
C       -2.46772623      -0.06384874      -0.38850251
N       -1.08791034       0.17281731      -0.03854903
C        0.00985512      -0.51860721      -0.39997366
C        1.12151629       0.09995648       0.10530197
C        2.53614619      -0.37369965       0.03146366
C        0.67485666       1.30515080       0.72902625
N       -0.70797385       1.31459273       0.59578633
H       -2.67241116       0.21868523      -1.42305842
H       -3.08713397       0.53963370       0.27113627
H       -2.71420631      -1.11603405      -0.24539501
H       -0.08763891      -1.41784691      -0.99235197
H        2.63223838      -1.29500619      -0.54548075
H        2.93376955      -0.55663886       1.03104146
H        3.18436761       0.36833017      -0.43778530
H       -0.26774902       1.32251519       1.70734072
15
Frame=2 idx=009323 GeodesicLength=0.10831910292943725 rxn_smarts="[C:1]([n:2]1[c:3]([H:11])[c:4]([C:5]([H:12])([H:13])[H:14])[c:6]([H:15])[n:7]1)([H:8])([H:9])[H:10]>>[C:1]([n:2]1[c+:3]([H:11])[c:4]([C:5]([H:12])([H:13])[H:14])[c-:6][n:7]1[H:15])([H:8])([H:9])[H:10]"
C       -2.47060856      -0.07343830      -0.37314986
N       -1.08817183       0.17183902      -0.04107530
C        0.00817709      -0.52392195      -0.39943123
C        1.12267230       0.10759855       0.08410619
C        2.53409279      -0.37750725       0.03660068
C        0.67532436       1.32485653       0.68245396
N       -0.70338324       1.33128142       0.55585120
H       -2.69149699       0.21211095      -1.40357617
H       -3.08769131       0.51994611       0.29801095
H       -2.70536322      -1.12856898      -0.23250584
H       -0.09447823      -1.43996256      -0.96448094
H        2.66255985      -1.22118766      -0.64356256
H        2.87140968      -0.68689765       1.02722685
H        3.22469727       0.39752665      -0.30052095
H       -0.25773997       1.38632511       1.67405302
15
Frame=3 idx=009323 GeodesicLength=0.162049740810051 rxn_smarts="[C:1]([n:2]1[c:3]([H:11])[c:4]([C:5]([H:12])([H:13])[H:14])[c:6]([H:15])[n:7]1)([H:8])([H:9])[H:10]>>[C:1]([n:2]1[c+:3]([H:11])[c:4]([C:5]([H:12])([H:13])[H:14])[c-:6][n:7]1[H:15])([H:8])([H:9])[H:10]"
C       -2.47280041      -0.08264963      -0.35771183
N       -1.08800665       0.17087874      -0.04340813
C        0.00692527      -0.52966866      -0.39781181
C        1.12345404       0.11231549       0.06801535
C        2.53196968      -0.38169504       0.04192918
C        0.67563412       1.34274678       0.63735889
N       -0.69877675       1.34709285       0.51523205
H       -2.70963003       0.20542529      -1.38395756
H       -3.08700157       0.50125420       0.32461120
H       -2.69620462      -1.14049377      -0.21939608
H       -0.09967588      -1.45917024      -0.93955444
H        2.69694551      -1.13693244      -0.72840935
H        2.81277103      -0.81225116       1.00460877
H        3.25352279       0.41202288      -0.16018687
H       -0.24912653       1.45112471       1.63868065
15
Frame=4 idx=009323 GeodesicLength=0.21520081563642282 rxn_smarts="[C:1]([n:2]1[c:3]([H:11])[c:4]([C:5]([H:12])([H:13])[H:14])[c:6]([H:15])[n:7]1)([H:8])([H:9])[H:10]>>[C:1]([n:2]1[c+:3]([H:11])[c:4]([C:5]([H:12])([H:13])[H:14])[c-:6][n:7]1[H:15])([H:8])([H:9])[H:10]"
C       -2.47452900      -0.09137174      -0.34228890
N       -1.08761792       0.16973112      -0.04530982
C        0.00582681      -0.53620111      -0.39461117
C        1.12372248       0.11375966       0.05791547
C        2.53001879      -0.38619742       0.04780245
C        0.67588762       1.35856447       0.59389433
N       -0.69412352       1.36167526       0.47423040
H       -2.72671803       0.19895247      -1.36427329
H       -3.08534885       0.48365569       0.35079502
H       -2.68723815      -1.15168108      -0.20644584
H       -0.10370409      -1.47505042      -0.91925052
H        2.73402568      -1.04514131      -0.79797165
H        2.76062641      -0.92984266       0.96560869
H        3.27091029       0.41252763      -0.02132725
H       -0.24173850       1.51661946       1.60123209
15
Frame=5 idx=009323 GeodesicLength=0.26819056812874625 rxn_smarts="[C:1]([n:2]1[c:3]([H:11])[c:4]([C:5]([H:12])([H:13])[H:14])[c:6]([H:15])[n:7]1)([H:8])([H:9])[H:10]>>[C:1]([n:2]1[c+:3]([H:11])[c:4]([C:5]([H:12])([H:13])[H:14])[c-:6][n:7]1[H:15])([H:8])([H:9])[H:10]"
C       -2.47598563      -0.09945188      -0.32698451
N       -1.08721208       0.16827857      -0.04651286
C        0.00473546      -0.54432607      -0.38852909
C        1.12329898       0.11163203       0.05459643
C        2.52853261      -0.39103086       0.05393123
C        0.67592245       1.37225522       0.55192871
N       -0.68956479       1.37511602       0.43252524
H       -2.74246264       0.19231438      -1.34506802
H       -3.08317310       0.46800960       0.37587595
H       -2.67888215      -1.16191957      -0.19305384
H       -0.10697751      -1.48855216      -0.90273155
H        2.77276076      -0.94587196      -0.85379315
H        2.71690240      -1.04032407       0.91096373
H        3.27792519       0.40041103       0.11567708
H       -0.23581995       1.58345972       1.56117463
15
Frame=6 idx=009323 GeodesicLength=0.32029904630576755 rxn_smarts="[C:1]([n:2]1[c:3]([H:11])[c:4]([C:5]([H:12])([H:13])[H:14])[c:6]([H:15])[n:7]1)([H:8])([H:9])[H:10]>>[C:1]([n:2]1[c+:3]([H:11])[c:4]([C:5]([H:12])([H:13])[H:14])[c-:6][n:7]1[H:15])([H:8])([H:9])[H:10]"
C       -2.47723955      -0.10803907      -0.30949308
N       -1.08624571       0.16742398      -0.04962340
C        0.00391707      -0.55070331      -0.38641965
C        1.12268989       0.10861794       0.05281246
C        2.52653480      -0.39665034       0.06290398
C        0.67687461       1.38479782       0.50839081
N       -0.68415387       1.38762268       0.38849505
H       -2.76122405       0.18548209      -1.32222318
H       -3.07857283       0.45083741       0.40529320
H       -2.66922324      -1.17270883      -0.17802705
H       -0.10954499      -1.49717173      -0.89592934
H        2.81427419      -0.84212274      -0.89111378
H        2.67533608      -1.14251819       0.84570153
H        3.27561422       0.37448769       0.25315087
H       -0.22903661       1.65064459       1.51608158
15
Frame=7 idx=009323 GeodesicLength=0.3725667619366133 rxn_smarts="[C:1]([n:2]1[c:3]([H:11])[c:4]([C:5]([H:12])([H:13])[H:14])[c:6]([H:15])[n:7]1)([H:8])([H:9])[H:10]>>[C:1]([n:2]1[c+:3]([H:11])[c:4]([C:5]([H:12])([H:13])[H:14])[c-:6][n:7]1[H:15])([H:8])([H:9])[H:10]"
C       -2.47821805      -0.11531610      -0.29284119
N       -1.08546128       0.16599065      -0.05151723
C        0.00283857      -0.55991958      -0.37909132
C        1.12113705       0.10232057       0.05764078
C        2.52517911      -0.40216151       0.07086707
C        0.67740166       1.39454157       0.46676032
N       -0.67890560       1.39844230       0.34405103
H       -2.77732097       0.17856906      -1.30119915
H       -3.07389333       0.43739091       0.43164849
H       -2.66098819      -1.18164055      -0.16243128
H       -0.11212466      -1.50672200      -0.88725701
H        2.85575061      -0.72986131      -0.91648507
H        2.64432421      -1.23677369       0.76434760
H        3.26396846       0.33668032       0.38748538
H       -0.22368758       1.71845935       1.46802159
15
Frame=8 idx=009323 GeodesicLength=0.4241311757334856 rxn_smarts="[C:1]([n:2]1[c:3]([H:11])[c:4]([C:5]([H:12])([H:13])[H:14])[c:6]([H:15])[n:7]1)([H:8])([H:9])[H:10]>>[C:1]([n:2]1[c+:3]([H:11])[c:4]([C:5]([H:12])([H:13])[H:14])[c-:6][n:7]1[H:15])([H:8])([H:9])[H:10]"
C       -2.47902605      -0.12208963      -0.27581695
N       -1.08440750       0.16450787      -0.05428928
C        0.00166674      -0.56845918      -0.37414332
C        1.11964211       0.09673730       0.06038270
C        2.52345570      -0.40728567       0.07980901
C        0.67870758       1.40249889       0.42537651
N       -0.67307010       1.40708898       0.30050973
H       -2.79433273       0.17378488      -1.27859983
H       -3.06761435       0.42335541       0.45995412
H       -2.65293434      -1.19010329      -0.14835652
H       -0.11483044      -1.51633108      -0.87970276
H        2.89865812      -0.61797470      -0.92326385
H        2.61678699      -1.31718971       0.67540960
H        3.24385477       0.28850888       0.51454773
H       -0.21655649       1.78295103       1.41818313
15
Frame=9 idx=009323 GeodesicLength=0.4755993502439393 rxn_smarts="[C:1]([n:2]1[c:3]([H:11])[c:4]([C:5]([H:12])([H:13])[H:14])[c:6]([H:15])[n:7]1)([H:8])([H:9])[H:10]>>[C:1]([n:2]1[c+:3]([H:11])[c:4]([C:5]([H:12])([H:13])[H:14])[c-:6][n:7]1[H:15])([H:8])([H:9])[H:10]"
C       -2.47980946      -0.12722433      -0.26067013
N       -1.08363526       0.16225231      -0.05537710
C        0.00013582      -0.57924029      -0.36469168
C        1.11794714       0.09029817       0.06462758
C        2.52253280      -0.41145950       0.08674286
C        0.67975902       1.40784568       0.38706239
N       -0.66742873       1.41335729       0.25936236
H       -2.80808317       0.17079297      -1.25867513
H       -3.06221478       0.41236703       0.48451990
H       -2.64710745      -1.19658792      -0.13634825
H       -0.11815086      -1.52955049      -0.86496119
H        2.94023982      -0.50437191      -0.91735875
H        2.59839655      -1.38434284       0.57582938
H        3.21711798       0.23115213       0.63158733
H       -0.20969941       1.84471171       1.36835043
15
Frame=10 idx=009323 GeodesicLength=0.5269772116393509 rxn_smarts="[C:1]([n:2]1[c:3]([H:11])[c:4]([C:5]([H:12])([H:13])[H:14])[c:6]([H:15])[n:7]1)([H:8])([H:9])[H:10]>>[C:1]([n:2]1[c+:3]([H:11])[c:4]([C:5]([H:12])([H:13])[H:14])[c-:6][n:7]1[H:15])([H:8])([H:9])[H:10]"
C       -2.48043379      -0.13135281      -0.24635279
N       -1.08284245       0.15971737      -0.05597599
C       -0.00151587      -0.59047929      -0.35416606
C        1.11642049       0.08446515       0.06691944
C        2.52194441      -0.41496755       0.09259555
C        0.68070546       1.41145436       0.35051611
N       -0.66185345       1.41768461       0.22002334
H       -2.82055691       0.16961335      -1.23950958
H       -3.05670335       0.40247209       0.50791491
H       -2.64221238      -1.20193735      -0.12598624
H       -0.12191914      -1.54523404      -0.84508287
H        2.98148592      -0.39171906      -0.89717677
H        2.58576433      -1.43760056       0.46915941
H        3.18413519       0.16453104       0.73913337
H       -0.20241847       1.90335269       1.31798818
15
Frame=11 idx=009323 GeodesicLength=0.5784151290953111 rxn_smarts="[C:1]([n:2]1[c:3]([H:11])[c:4]([C:5]([H:12])([H:13])[H:14])[c:6]([H:15])[n:7]1)([H:8])([H:9])[H:10]>>[C:1]([n:2]1[c+:3]([H:11])[c:4]([C:5]([H:12])([H:13])[H:14])[c-:6][n:7]1[H:15])([H:8])([H:9])[H:10]"
C       -2.48085353      -0.13506299      -0.23172629
N       -1.08181555       0.15730294      -0.05730686
C       -0.00305287      -0.60074446      -0.34608758
C        1.11548728       0.08038776       0.06386867
C        2.52133593      -0.41807263       0.09836471
C        0.68171223       1.41433337       0.31400748
N       -0.65636201       1.42062917       0.18176753
H       -2.83380425       0.17027729      -1.21909417
H       -3.04999789       0.39189785       0.53288004
H       -2.63722010      -1.20693651      -0.11678343
H       -0.12600158      -1.56248356      -0.82217128
H        3.02416163      -0.28242328      -0.86085346
H        2.57632595      -1.47687241       0.35816541
H        3.14410202       0.08891182       0.83837331
H       -0.19401726       1.95885565       1.26659591
15
Frame=12 idx=009323 GeodesicLength=0.6301061014076397 rxn_smarts="[C:1]([n:2]1[c:3]([H:11])[c:4]([C:5]([H:12])([H:13])[H:14])[c:6]([H:15])[n:7]1)([H:8])([H:9])[H:10]>>[C:1]([n:2]1[c+:3]([H:11])[c:4]([C:5]([H:12])([H:13])[H:14])[c-:6][n:7]1[H:15])([H:8])([H:9])[H:10]"
C       -2.48094153      -0.13860905      -0.21612369
N       -1.08039354       0.15518676      -0.05998359
C       -0.00426637      -0.60973163      -0.34166500
C        1.11535854       0.07829107       0.05416904
C        2.52049670      -0.42090507       0.10450403
C        0.68282227       1.41708642       0.27641708
N       -0.65096097       1.42270100       0.14370596
H       -2.84860837       0.17256592      -1.19629662
H       -3.04138759       0.38011086       0.56062662
H       -2.63167326      -1.21190807      -0.10811772
H       -0.13019577      -1.58116741      -0.79646435
H        3.06896057      -0.17687532      -0.80690863
H        2.56996310      -1.50248348       0.24260630
H        3.09532197       0.00377783       0.93020621
H       -0.18449576       2.01196016       1.21332436
15
Frame=13 idx=009323 GeodesicLength=0.6821672179202548 rxn_smarts="[C:1]([n:2]1[c:3]([H:11])[c:4]([C:5]([H:12])([H:13])[H:14])[c:6]([H:15])[n:7]1)([H:8])([H:9])[H:10]>>[C:1]([n:2]1[c+:3]([H:11])[c:4]([C:5]([H:12])([H:13])[H:14])[c-:6][n:7]1[H:15])([H:8])([H:9])[H:10]"
C       -2.48059768      -0.14189392      -0.19968481
N       -1.07858693       0.15331146      -0.06373861
C       -0.00514748      -0.61789724      -0.33984648
C        1.11599036       0.07785905       0.03829854
C        2.51954150      -0.42353163       0.11061908
C        0.68385800       1.41984025       0.23779121
N       -0.64575444       1.42410155       0.10549804
H       -2.86436378       0.17607937      -1.17150731
H       -3.03094737       0.36771852       0.59041534
H       -2.62573419      -1.21665156      -0.09960993
H       -0.13430522      -1.60162181      -0.76606292
H        3.11473252      -0.07478635      -0.73495221
H        2.56853264      -1.51381276       0.12165310
H        3.03714489      -0.09209052       1.01329299
H       -0.17436283       2.06337558       1.15783397
15
Frame=14 idx=009323 GeodesicLength=0.7343904680459857 rxn_smarts="[C:1]([n:2]1[c:3]([H:11])[c:4]([C:5]([H:12])([H:13])[H:14])[c:6]([H:15])[n:7]1)([H:8])([H:9])[H:10]>>[C:1]([n:2]1[c+:3]([H:11])[c:4]([C:5]([H:12])([H:13])[H:14])[c-:6][n:7]1[H:15])([H:8])([H:9])[H:10]"
C       -2.47972612      -0.14479496      -0.18301619
N       -1.07640994       0.15150441      -0.06790870
C       -0.00568636      -0.62575489      -0.33894219
C        1.11734158       0.07865753       0.01755035
C        2.51840866      -0.42596939       0.11631505
C        0.68479964       1.42248894       0.19879851
N       -0.64074966       1.42474877       0.06763137
H       -2.87997739       0.18076765      -1.14568014
H       -3.01913517       0.35513090       0.62092453
H       -2.61971067      -1.22095446      -0.09178035
H       -0.13789777      -1.62368622      -0.72932165
H        3.15853658       0.02178352      -0.64559535
H        2.57325632      -1.50945501      -0.00328883
H        2.97077960      -0.19764380       1.08366624
H       -0.16382930       2.11317699       1.10064734
15
Frame=15 idx=009323 GeodesicLength=0.786770262164719 rxn_smarts="[C:1]([n:2]1[c:3]([H:11])[c:4]([C:5]([H:12])([H:13])[H:14])[c:6]([H:15])[n:7]1)([H:8])([H:9])[H:10]>>[C:1]([n:2]1[c+:3]([H:11])[c:4]([C:5]([H:12])([H:13])[H:14])[c-:6][n:7]1[H:15])([H:8])([H:9])[H:10]"
C       -2.47826742      -0.14711456      -0.16719910
N       -1.07390474       0.14965944      -0.07185517
C       -0.00584626      -0.63378024      -0.33676663
C        1.11906606       0.07983206      -0.00453339
C        2.51721237      -0.42824732       0.12087614
C        0.68558720       1.42463123       0.16131005
N       -0.63583589       1.42452635       0.03065377
H       -2.89404060       0.18645889      -1.12053769
H       -3.00678816       0.34302862       0.65009422
H       -2.61393086      -1.22450448      -0.08541560
H       -0.14041880      -1.64705981      -0.68404839
H        3.19609128       0.11057848      -0.54200351
H        2.58466849      -1.48839938      -0.12989181
H        2.90009130      -0.31122726       1.13683940
H       -0.15368397       2.16161800       1.04247771
15
Frame=16 idx=009323 GeodesicLength=0.8394864022571877 rxn_smarts="[C:1]([n:2]1[c:3]([H:11])[c:4]([C:5]([H:12])([H:13])[H:14])[c:6]([H:15])[n:7]1)([H:8])([H:9])[H:10]>>[C:1]([n:2]1[c+:3]([H:11])[c:4]([C:5]([H:12])([H:13])[H:14])[c-:6][n:7]1[H:15])([H:8])([H:9])[H:10]"
C       -2.47630112      -0.14886476      -0.15286786
N       -1.07115263       0.14781698      -0.07562563
C       -0.00552935      -0.64200321      -0.33250728
C        1.12077134       0.08066268      -0.02420054
C        2.51610501      -0.43063401       0.12420539
C        0.68620059       1.42605885       0.12677180
N       -0.63092699       1.42347340      -0.00535204
H       -2.90621527       0.19311740      -1.09695162
H       -2.99439517       0.33141193       0.67706042
H       -2.60841047      -1.22732546      -0.08117232
H       -0.14131503      -1.67063298      -0.63029305
H        3.22430927       0.18886939      -0.42812422
H        2.60163804      -1.45082341      -0.25454952
H        2.82991443      -0.43022049       1.17010165
H       -0.14469265       2.20909372       0.98350482
