13
Frame=0 idx=009685 GeodesicLength=0.0 rxn_smarts="[C:1]([c:2]1[n:3][c:4]([H:11])[c:5]([O:6][H:12])[n:7]1[H:13])([H:8])([H:9])[H:10]>>[C:1]([C@@:2]1([N:7]([C:5][O:6][H:12])[H:13])[N:3]=[C:4]1[H:11])([H:8])([H:9])[H:10]"
C        1.97050874      -0.28833506       0.02366062
C        0.54275009       0.09148039      -0.17219286
N        0.01600083       0.06261271      -1.55368323
C       -0.78743987      -0.70408130      -0.94349211
C       -1.49884620       0.03525908       0.55105693
O       -2.41263683       1.04639681       0.43084833
N       -0.24773028       0.55304881       0.82232181
H        2.54737539      -0.06296538      -0.87317750
H        2.08274403      -1.35367198       0.24146444
H        2.38779471       0.26387782       0.86827977
H       -1.27901904      -1.59278385      -1.33927860
H       -3.28321138       0.64708663       0.48300971
H       -0.03829021       1.30207535       1.46118272
13
Frame=1 idx=009685 GeodesicLength=0.03749895858167571 rxn_smarts="[C:1]([c:2]1[n:3][c:4]([H:11])[c:5]([O:6][H:12])[n:7]1[H:13])([H:8])([H:9])[H:10]>>[C:1]([C@@:2]1([N:7]([C:5][O:6][H:12])[H:13])[N:3]=[C:4]1[H:11])([H:8])([H:9])[H:10]"
C        1.97256674      -0.28931583       0.02877921
C        0.54600304       0.08776220      -0.18046600
N        0.02598006       0.07157879      -1.55850760
C       -0.78656979      -0.69836670      -0.95882301
C       -1.50043016       0.03680534       0.54015328
O       -2.42075239       1.04384296       0.46139539
N       -0.25032811       0.54978647       0.81354218
H        2.54914360      -0.10791398      -0.87798396
H        2.07923130      -1.34440867       0.29382798
H        2.39626595       0.29878826       0.84558414
H       -1.28359469      -1.57776640      -1.36690260
H       -3.28840685       0.63678787       0.50018712
H       -0.03910870       1.29241968       1.45921387
13
Frame=2 idx=009685 GeodesicLength=0.07507541114967849 rxn_smarts="[C:1]([c:2]1[n:3][c:4]([H:11])[c:5]([O:6][H:12])[n:7]1[H:13])([H:8])([H:9])[H:10]>>[C:1]([C@@:2]1([N:7]([C:5][O:6][H:12])[H:13])[N:3]=[C:4]1[H:11])([H:8])([H:9])[H:10]"
C        1.97456237      -0.29030282       0.03404809
C        0.54928130       0.08379705      -0.18879433
N        0.03632205       0.08036202      -1.56342990
C       -0.78566913      -0.69241200      -0.97445757
C       -1.50210309       0.03884767       0.52877104
O       -2.42864874       1.04036143       0.49301567
N       -0.25295535       0.54676863       0.80443075
H        2.55036339      -0.15418165      -0.88092924
H        2.07554021      -1.33279390       0.34667533
H        2.40470822       0.33290714       0.82098175
H       -1.28822223      -1.56214247      -1.39486399
H       -3.29342935       0.62618843       0.51738703
H       -0.03974965       1.28260048       1.45716537
13
Frame=3 idx=009685 GeodesicLength=0.11249512029151454 rxn_smarts="[C:1]([c:2]1[n:3][c:4]([H:11])[c:5]([O:6][H:12])[n:7]1[H:13])([H:8])([H:9])[H:10]>>[C:1]([C@@:2]1([N:7]([C:5][O:6][H:12])[H:13])[N:3]=[C:4]1[H:11])([H:8])([H:9])[H:10]"
C        1.97651084      -0.29120800       0.03939438
C        0.55252069       0.07943645      -0.19709184
N        0.04686781       0.08861423      -1.56834077
C       -0.78481235      -0.68651024      -0.99011987
C       -1.50393906       0.04156173       0.51696244
O       -2.43618227       1.03611911       0.52545277
N       -0.25560694       0.54395634       0.79506439
H        2.55103170      -0.20046323      -0.88182234
H        2.07205467      -1.31899294       0.39873415
H        2.41288222       0.36539347       0.79521941
H       -1.29290756      -1.54635785      -1.42262743
H       -3.29823616       0.61574013       0.53423452
H       -0.04018359       1.27271080       1.45494019
13
Frame=4 idx=009685 GeodesicLength=0.1498472586211297 rxn_smarts="[C:1]([c:2]1[n:3][c:4]([H:11])[c:5]([O:6][H:12])[n:7]1[H:13])([H:8])([H:9])[H:10]>>[C:1]([C@@:2]1([N:7]([C:5][O:6][H:12])[H:13])[N:3]=[C:4]1[H:11])([H:8])([H:9])[H:10]"
C        1.97837137      -0.29207842       0.04482226
C        0.55572180       0.07470544      -0.20537901
N        0.05767662       0.09637029      -1.57326331
C       -0.78398834      -0.68057760      -1.00584965
C       -1.50592639       0.04499303       0.50471734
O       -2.44333235       1.03094691       0.55897758
N       -0.25828738       0.54138609       0.78542048
H        2.55114630      -0.24678053      -0.88066960
H        2.06859656      -1.30305356       0.45008059
H        2.42083345       0.39628809       0.76822689
H       -1.29757139      -1.53037592      -1.45020017
H       -3.30282100       0.60541152       0.55059998
H       -0.04041923       1.26276467       1.45251662
13
Frame=5 idx=009685 GeodesicLength=0.18722341113827884 rxn_smarts="[C:1]([c:2]1[n:3][c:4]([H:11])[c:5]([O:6][H:12])[n:7]1[H:13])([H:8])([H:9])[H:10]>>[C:1]([C@@:2]1([N:7]([C:5][O:6][H:12])[H:13])[N:3]=[C:4]1[H:11])([H:8])([H:9])[H:10]"
C        1.98016759      -0.29296639       0.05045288
C        0.55894493       0.06964747      -0.21372237
N        0.06893206       0.10371942      -1.57832042
C       -0.78314762      -0.67445255      -1.02186529
C       -1.50801553       0.04920178       0.49187384
O       -2.45023325       1.02449169       0.59361768
N       -0.26099294       0.53931070       0.77528570
H        2.55072927      -0.29377756      -0.87735616
H        2.06506788      -1.28490549       0.50119267
H        2.42867658       0.42571535       0.73995987
H       -1.30238380      -1.51379303      -1.47805513
H       -3.30724423       0.59476454       0.56726573
H       -0.04050093       1.25304406       1.44967099
13
Frame=6 idx=009685 GeodesicLength=0.2243597763666273 rxn_smarts="[C:1]([c:2]1[n:3][c:4]([H:11])[c:5]([O:6][H:12])[n:7]1[H:13])([H:8])([H:9])[H:10]>>[C:1]([C@@:2]1([N:7]([C:5][O:6][H:12])[H:13])[N:3]=[C:4]1[H:11])([H:8])([H:9])[H:10]"
C        1.98187072      -0.29374364       0.05609108
C        0.56206470       0.06414915      -0.22198920
N        0.08028804       0.11033677      -1.58330916
C       -0.78239857      -0.66852266      -1.03774203
C       -1.51033655       0.05434150       0.47859985
O       -2.45657478       1.01703550       0.62933688
N       -0.26372474       0.53739967       0.76498341
H        2.54978403      -0.33976207      -0.87205499
H        2.06176106      -1.26490688       0.55069499
H        2.43619781       0.45312541       0.71107389
H       -1.30714099      -1.49741606      -1.50530951
H       -3.31141952       0.58477008       0.58290809
H       -0.04037121       1.24319324       1.44671671
13
Frame=7 idx=009685 GeodesicLength=0.26110731032859097 rxn_smarts="[C:1]([c:2]1[n:3][c:4]([H:11])[c:5]([O:6][H:12])[n:7]1[H:13])([H:8])([H:9])[H:10]>>[C:1]([C@@:2]1([N:7]([C:5][O:6][H:12])[H:13])[N:3]=[C:4]1[H:11])([H:8])([H:9])[H:10]"
C        1.98348898      -0.29434629       0.06166604
C        0.56505331       0.05820563      -0.23013641
N        0.09163676       0.11605598      -1.58815683
C       -0.78174305      -0.66299788      -1.05327968
C       -1.51294566       0.06055697       0.46491393
O       -2.46229142       1.00862029       0.66583056
N       -0.26649420       0.53561135       0.75458712
H        2.54846567      -0.38384798      -0.86495660
H        2.05883517      -1.24353086       0.59775770
H        2.44322422       0.47817915       0.68231450
H       -1.31177905      -1.48161106      -1.53158796
H       -3.31535523       0.57582909       0.59743597
H       -0.04009551       1.23327560       1.44361165
13
Frame=8 idx=009685 GeodesicLength=0.2975045508206111 rxn_smarts="[C:1]([c:2]1[n:3][c:4]([H:11])[c:5]([O:6][H:12])[n:7]1[H:13])([H:8])([H:9])[H:10]>>[C:1]([C@@:2]1([N:7]([C:5][O:6][H:12])[H:13])[N:3]=[C:4]1[H:11])([H:8])([H:9])[H:10]"
C        1.98503297      -0.29479347       0.06719250
C        0.56791776       0.05185852      -0.23817602
N        0.10295976       0.12094626      -1.59289562
C       -0.78119558      -0.65783529      -1.06853148
C       -1.51583080       0.06789082       0.45079175
O       -2.46739263       0.99892764       0.70339353
N       -0.26928740       0.53395854       0.74410730
H        2.54682222      -0.42619625      -0.85623870
H        2.05620685      -1.22089605       0.64265097
H        2.44987578       0.50113463       0.65364472
H       -1.31634023      -1.46634204      -1.55700335
H       -3.31910251       0.56805535       0.61066388
H       -0.03966619       1.22329134       1.44040053
13
Frame=9 idx=009685 GeodesicLength=0.33365394848520374 rxn_smarts="[C:1]([c:2]1[n:3][c:4]([H:11])[c:5]([O:6][H:12])[n:7]1[H:13])([H:8])([H:9])[H:10]>>[C:1]([C@@:2]1([N:7]([C:5][O:6][H:12])[H:13])[N:3]=[C:4]1[H:11])([H:8])([H:9])[H:10]"
C        1.98648011      -0.29515092       0.07274525
C        0.57069914       0.04517766      -0.24618050
N        0.11440468       0.12506218      -1.59763086
C       -0.78070800      -0.65290482      -1.08365296
C       -1.51895317       0.07647643       0.43607583
O       -2.47193940       0.98749503       0.74223359
N       -0.27210665       0.53264035       0.73337669
H        2.54492313      -0.46721763      -0.84590454
H        2.05364465      -1.19706812       0.68575220
H        2.45622128       0.52216251       0.62504115
H       -1.32085795      -1.45139801      -1.58181956
H       -3.32268011       0.56127123       0.62304875
H       -0.03912771       1.21345411       1.43691496
13
Frame=10 idx=009685 GeodesicLength=0.3697202050326844 rxn_smarts="[C:1]([c:2]1[n:3][c:4]([H:11])[c:5]([O:6][H:12])[n:7]1[H:13])([H:8])([H:9])[H:10]>>[C:1]([C@@:2]1([N:7]([C:5][O:6][H:12])[H:13])[N:3]=[C:4]1[H:11])([H:8])([H:9])[H:10]"
C        1.98784403      -0.29550006       0.07846766
C        0.57346551       0.03823059      -0.25423234
N        0.12620476       0.12851934      -1.60251027
C       -0.78024787      -0.64795417      -1.09888426
C       -1.52224531       0.08652656       0.42053632
O       -2.47605710       0.97354588       0.78278186
N       -0.27492815       0.53202876       0.72210628
H        2.54271369      -0.50797285      -0.83375393
H        2.05094518      -1.17180845       0.72790328
H        2.46250281       0.54159233       0.59608480
H       -1.32560909      -1.43617609      -1.60654939
H       -3.32612065       0.55495440       0.63507332
H       -0.03846781       1.20401377       1.43297667
13
Frame=11 idx=009685 GeodesicLength=0.40548363763666906 rxn_smarts="[C:1]([c:2]1[n:3][c:4]([H:11])[c:5]([O:6][H:12])[n:7]1[H:13])([H:8])([H:9])[H:10]>>[C:1]([C@@:2]1([N:7]([C:5][O:6][H:12])[H:13])[N:3]=[C:4]1[H:11])([H:8])([H:9])[H:10]"
C        1.98879458      -0.29583597       0.08432871
C        0.57612393       0.03105037      -0.26236284
N        0.13838625       0.13119826      -1.60756862
C       -0.77967290      -0.64299372      -1.11414951
C       -1.52562656       0.09828505       0.40403662
O       -2.47926265       0.95672044       0.82490576
N       -0.27778141       0.53197549       0.71031569
H        2.54003531      -0.54763772      -0.81993788
H        2.04760362      -1.14540222       0.76862020
H        2.46828666       0.55904060       0.56730586
H       -1.33002762      -1.42104080      -1.63077998
H       -3.32902435       0.54954820       0.64701659
H       -0.03783486       1.19509204       1.42826937
13
Frame=12 idx=009685 GeodesicLength=0.44103475300967077 rxn_smarts="[C:1]([c:2]1[n:3][c:4]([H:11])[c:5]([O:6][H:12])[n:7]1[H:13])([H:8])([H:9])[H:10]>>[C:1]([C@@:2]1([N:7]([C:5][O:6][H:12])[H:13])[N:3]=[C:4]1[H:11])([H:8])([H:9])[H:10]"
C        1.98955307      -0.29636024       0.09059585
C        0.57881067       0.02376524      -0.27067783
N        0.15120527       0.13315551      -1.61302023
C       -0.77908331      -0.63774332      -1.12983218
C       -1.52918132       0.11234479       0.38607358
O       -2.48191816       0.93619838       0.86865064
N       -0.28062682       0.53318767       0.69755888
H        2.53707102      -0.58736938      -0.80398624
H        2.04359625      -1.11785234       0.80860202
H        2.47413725       0.57459939       0.53863952
H       -1.33468801      -1.40534305      -1.65524435
H       -3.33168761       0.54388861       0.66026752
H       -0.03718829       1.18752873       1.42237281
13
Frame=13 idx=009685 GeodesicLength=0.4763756876103621 rxn_smarts="[C:1]([c:2]1[n:3][c:4]([H:11])[c:5]([O:6][H:12])[n:7]1[H:13])([H:8])([H:9])[H:10]>>[C:1]([C@@:2]1([N:7]([C:5][O:6][H:12])[H:13])[N:3]=[C:4]1[H:11])([H:8])([H:9])[H:10]"
C        1.99011061      -0.29693007       0.09705399
C        0.58145206       0.01629939      -0.27907145
N        0.16448858       0.13412192      -1.61870985
C       -0.77850505      -0.63262409      -1.14555225
C       -1.53313308       0.12913290       0.36663523
O       -2.48370696       0.91175377       0.91386726
N       -0.28352150       0.53522639       0.68422480
H        2.53403808      -0.62571514      -0.78651123
H        2.03909170      -1.08972767       0.84687454
H        2.47983437       0.58819563       0.51074924
H       -1.33939034      -1.38996901      -1.67917392
H       -3.33415513       0.53938597       0.67387674
H       -0.03660334       1.18085001       1.41573690
13
Frame=14 idx=009685 GeodesicLength=0.5110251526868219 rxn_smarts="[C:1]([c:2]1[n:3][c:4]([H:11])[c:5]([O:6][H:12])[n:7]1[H:13])([H:8])([H:9])[H:10]>>[C:1]([C@@:2]1([N:7]([C:5][O:6][H:12])[H:13])[N:3]=[C:4]1[H:11])([H:8])([H:9])[H:10]"
C        1.99001551      -0.29778969       0.10409602
C        0.58401914       0.00891012      -0.28773562
N        0.17853690       0.13405023      -1.62498217
C       -0.77781220      -0.62699863      -1.16160187
C       -1.53704977       0.14986883       0.34491188
O       -2.48412739       0.88118437       0.96115261
N       -0.28631113       0.53908112       0.66952482
H        2.53033682      -0.66399171      -0.76673479
H        2.03311735      -1.06080099       0.88446262
H        2.48526059       0.59959595       0.48342518
H       -1.34432834      -1.37376707      -1.70289266
H       -3.33565489       0.53442407       0.68910770
H       -0.03600259       1.17623340       1.40726628
13
Frame=15 idx=009685 GeodesicLength=0.5451453809932738 rxn_smarts="[C:1]([c:2]1[n:3][c:4]([H:11])[c:5]([O:6][H:12])[n:7]1[H:13])([H:8])([H:9])[H:10]>>[C:1]([C@@:2]1([N:7]([C:5][O:6][H:12])[H:13])[N:3]=[C:4]1[H:11])([H:8])([H:9])[H:10]"
C        1.98932503      -0.29922669       0.11191877
C        0.58660521       0.00163493      -0.29670101
N        0.19379511       0.13272375      -1.63194545
C       -0.77711531      -0.62072547      -1.17815456
C       -1.54131511       0.17624917       0.32000546
O       -2.48296248       0.84434896       1.00912358
N       -0.28901810       0.54511498       0.65331708
H        2.52632605      -0.70194370      -0.74462272
H        2.02531016      -1.03184293       0.92112339
H        2.49072066       0.60835912       0.45762596
H       -1.34979691      -1.35679031      -1.72646916
H       -3.33640142       0.52726925       0.70841626
H       -0.03547287       1.17482894       1.39636239
13
Frame=16 idx=009685 GeodesicLength=0.5784094593484375 rxn_smarts="[C:1]([c:2]1[n:3][c:4]([H:11])[c:5]([O:6][H:12])[n:7]1[H:13])([H:8])([H:9])[H:10]>>[C:1]([C@@:2]1([N:7]([C:5][O:6][H:12])[H:13])[N:3]=[C:4]1[H:11])([H:8])([H:9])[H:10]"
C        1.98759075      -0.30169037       0.12102189
C        0.58917532      -0.00528326      -0.30608353
N        0.21070545       0.12981651      -1.63993272
C       -0.77653398      -0.61300924      -1.19534407
C       -1.54571834       0.21132691       0.29060239
O       -2.47921773       0.79868465       1.05767635
N       -0.29140735       0.55470275       0.63486454
H        2.52139578      -0.74086950      -0.71934448
H        2.01457504      -1.00292310       0.95780581
H        2.49635193       0.61391192       0.43344743
H       -1.35660728      -1.33768832      -1.74990202
H       -3.33555643       0.51443734       0.73338321
H       -0.03475315       1.17858373       1.38180519
