13
Frame=0 idx=008465 GeodesicLength=0.0 rxn_smarts="[N:1]([c:2]1[c:3]([O:4][H:10])[c:5]([H:11])[c:6]([H:12])[n:7]1[H:13])([H:8])[H:9]>>[N:1]([C+:2](/[C:3]([O:4][H:10])=[C:5](\[C:6][H:12])[H:11])[N-:7][H:13])([H:8])[H:9]"
N        1.92582527       0.65973667       0.17639078
C        0.63902775       0.60117418      -0.31020363
C       -0.10303733      -0.62221145       0.06690838
O        0.65441294      -1.72888400       0.06193107
C       -1.43906392      -0.62259431       0.33991049
C       -2.18783576       0.56174461       0.46695166
N        0.01890899       1.48235990      -0.98777194
H        2.55240514       1.31187734      -0.26016807
H        2.34499567      -0.20466501       0.47132380
H        0.14560071      -2.46918897       0.40910645
H       -1.89571943      -1.61386932       0.45197654
H       -3.24187618       0.32559547       0.23368870
H        0.58635609       2.31892489      -1.12004418
13
Frame=1 idx=008465 GeodesicLength=0.07936477625254745 rxn_smarts="[N:1]([c:2]1[c:3]([O:4][H:10])[c:5]([H:11])[c:6]([H:12])[n:7]1[H:13])([H:8])[H:9]>>[N:1]([C+:2](/[C:3]([O:4][H:10])=[C:5](\[C:6][H:12])[H:11])[N-:7][H:13])([H:8])[H:9]"
N        1.89894655       0.68757182       0.20126613
C        0.64482915       0.57279055      -0.35503668
C       -0.09526934      -0.64860794       0.02274196
O        0.65824562      -1.75636068       0.01865069
C       -1.42270585      -0.62977601       0.34492941
C       -2.12747235       0.57797098       0.48522859
N        0.00143480       1.45556015      -1.01406924
H        2.54279576       1.31388954      -0.24761706
H        2.29503652      -0.14265575       0.60802647
H        0.14153742      -2.49738010       0.35245861
H       -1.89860194      -1.61146449       0.45354747
H       -3.19750735       0.38345867       0.29537452
H        0.55873101       2.29500326      -1.16550087
13
Frame=2 idx=008465 GeodesicLength=0.16017136597274573 rxn_smarts="[N:1]([c:2]1[c:3]([O:4][H:10])[c:5]([H:11])[c:6]([H:12])[n:7]1[H:13])([H:8])[H:9]>>[N:1]([C+:2](/[C:3]([O:4][H:10])=[C:5](\[C:6][H:12])[H:11])[N-:7][H:13])([H:8])[H:9]"
N        1.87224307       0.71357825       0.22327403
C        0.65153825       0.54667096      -0.39109153
C       -0.08632222      -0.67278082      -0.01146238
O        0.66207572      -1.78246606      -0.01963633
C       -1.40493952      -0.63642668       0.35353626
C       -2.06698659       0.59236998       0.50334863
N       -0.01442628       1.42620777      -1.03800639
H        2.53361014       1.31529927      -0.23343873
H        2.23668757      -0.07723636       0.72839713
H        0.13547338      -2.52538787       0.29388714
H       -1.90152977      -1.60819005       0.45033894
H       -3.14864555       0.43972281       0.35077764
H        0.53122181       2.26863879      -1.20992442
13
Frame=3 idx=008465 GeodesicLength=0.24145881068806746 rxn_smarts="[N:1]([c:2]1[c:3]([O:4][H:10])[c:5]([H:11])[c:6]([H:12])[n:7]1[H:13])([H:8])[H:9]>>[N:1]([C+:2](/[C:3]([O:4][H:10])=[C:5](\[C:6][H:12])[H:11])[N-:7][H:13])([H:8])[H:9]"
N        1.84660836       0.73740815       0.24326372
C        0.65936015       0.52305128      -0.42033928
C       -0.07668348      -0.69471560      -0.03985566
O        0.66477755      -1.80753694      -0.05792677
C       -1.38712237      -0.64238115       0.36090050
C       -2.00882119       0.60522291       0.51434342
N       -0.02718156       1.39633875      -1.06077764
H        2.52640090       1.31454473      -0.21785460
H        2.17089030      -0.00978059       0.83633394
H        0.12866348      -2.55140481       0.23670125
H       -1.90317592      -1.60392916       0.44946340
H       -3.09946568       0.49091623       0.40689531
H        0.50574945       2.24226621      -1.25114759
13
Frame=4 idx=008465 GeodesicLength=0.32315415907996287 rxn_smarts="[N:1]([c:2]1[c:3]([O:4][H:10])[c:5]([H:11])[c:6]([H:12])[n:7]1[H:13])([H:8])[H:9]>>[N:1]([C+:2](/[C:3]([O:4][H:10])=[C:5](\[C:6][H:12])[H:11])[N-:7][H:13])([H:8])[H:9]"
N        1.82287766       0.75957470       0.26096285
C        0.66776295       0.50117470      -0.44292468
C       -0.06600349      -0.71484742      -0.06032656
O        0.66627062      -1.83199469      -0.09503483
C       -1.36921970      -0.64802789       0.37003261
C       -1.95287709       0.61636275       0.52262838
N       -0.03845565       1.36556442      -1.08092275
H        2.52049212       1.31288773      -0.20250502
H        2.10225404       0.05968900       0.93115721
H        0.12026428      -2.57612261       0.18028456
H       -1.90485251      -1.59900659       0.44739509
H       -3.04904098       0.53930424       0.45778648
H        0.48052776       2.21544165      -1.28853333
13
Frame=5 idx=008465 GeodesicLength=0.4051622207385477 rxn_smarts="[N:1]([c:2]1[c:3]([O:4][H:10])[c:5]([H:11])[c:6]([H:12])[n:7]1[H:13])([H:8])[H:9]>>[N:1]([C+:2](/[C:3]([O:4][H:10])=[C:5](\[C:6][H:12])[H:11])[N-:7][H:13])([H:8])[H:9]"
N        1.80082616       0.78029393       0.27713269
C        0.67685161       0.48065994      -0.46055497
C       -0.05438288      -0.73360140      -0.07521392
O        0.66626713      -1.85602134      -0.13277450
C       -1.35133913      -0.65339994       0.37977367
C       -1.89937123       0.62594683       0.52726744
N       -0.04802568       1.33438709      -1.09903849
H        2.51617976       1.30981972      -0.18685031
H        2.03027432       0.13185747       1.01594080
H        0.11030435      -2.59933440       0.12422692
H       -1.90580586      -1.59357763       0.44681413
H       -2.99807432       0.58460451       0.50595438
H        0.45629576       2.18836522      -1.32267782
13
Frame=6 idx=008465 GeodesicLength=0.4872418037172256 rxn_smarts="[N:1]([c:2]1[c:3]([O:4][H:10])[c:5]([H:11])[c:6]([H:12])[n:7]1[H:13])([H:8])[H:9]>>[N:1]([C+:2](/[C:3]([O:4][H:10])=[C:5](\[C:6][H:12])[H:11])[N-:7][H:13])([H:8])[H:9]"
N        1.78063628       0.79980239       0.29216681
C        0.68646881       0.46123542      -0.47350812
C       -0.04169863      -0.75125971      -0.08440891
O        0.66435801      -1.87969122      -0.17206521
C       -1.33362793      -0.65867573       0.39039921
C       -1.84844852       0.63394243       0.52916956
N       -0.05622886       1.30278895      -1.11481694
H        2.51320149       1.30593440      -0.17085943
H        1.95698759       0.20663623       1.09088303
H        0.09867482      -2.62095927       0.06926838
H       -1.90640747      -1.58781922       0.44670731
H       -2.94680968       0.62726442       0.55085155
H        0.43289408       2.16080091      -1.35378725
13
Frame=7 idx=008465 GeodesicLength=0.5693670655818586 rxn_smarts="[N:1]([c:2]1[c:3]([O:4][H:10])[c:5]([H:11])[c:6]([H:12])[n:7]1[H:13])([H:8])[H:9]>>[N:1]([C+:2](/[C:3]([O:4][H:10])=[C:5](\[C:6][H:12])[H:11])[N-:7][H:13])([H:8])[H:9]"
N        1.76203729       0.81851850       0.30674006
C        0.69673162       0.44255649      -0.48236887
C       -0.02777469      -0.76818110      -0.08841283
O        0.66030752      -1.90294542      -0.21328461
C       -1.31595911      -0.66389011       0.40191540
C       -1.80001215       0.64045589       0.52837124
N       -0.06294845       1.27045333      -1.12873635
H        2.51134122       1.30165728      -0.15387055
H        1.88253406       0.28464513       1.15722463
H        0.08468942      -2.64111568       0.01360988
H       -1.90629341      -1.58187320       0.44827789
H       -2.89526129       0.66749373       0.59328905
H        0.41060797       2.13222515      -1.38275493
13
Frame=8 idx=008465 GeodesicLength=0.6514476830440696 rxn_smarts="[N:1]([c:2]1[c:3]([O:4][H:10])[c:5]([H:11])[c:6]([H:12])[n:7]1[H:13])([H:8])[H:9]>>[N:1]([C+:2](/[C:3]([O:4][H:10])=[C:5](\[C:6][H:12])[H:11])[N-:7][H:13])([H:8])[H:9]"
N        1.74488328       0.83672450       0.32126781
C        0.70757775       0.42444761      -0.48729247
C       -0.01245365      -0.78467760      -0.08738095
O        0.65370788      -1.92552721      -0.25718445
C       -1.29828739      -0.66919766       0.41438488
C       -1.75397932       0.64540861       0.52541861
N       -0.06829474       1.23725614      -1.14073754
H        2.51040448       1.29722511      -0.13569918
H        1.80771277       0.36596133       1.21530940
H        0.06813777      -2.65959331      -0.04277814
H       -1.90540213      -1.57595832       0.45158689
H       -2.84344704       0.70557890       0.63294868
H        0.38944033       2.10235190      -1.40984353
13
Frame=9 idx=008465 GeodesicLength=0.7335313227775159 rxn_smarts="[N:1]([c:2]1[c:3]([O:4][H:10])[c:5]([H:11])[c:6]([H:12])[n:7]1[H:13])([H:8])[H:9]>>[N:1]([C+:2](/[C:3]([O:4][H:10])=[C:5](\[C:6][H:12])[H:11])[N-:7][H:13])([H:8])[H:9]"
N        1.72872519       0.85464067       0.33629370
C        0.71911426       0.40672730      -0.48872146
C        0.00434062      -0.80109181      -0.08222135
O        0.64422020      -1.94703950      -0.30420631
C       -1.28033912      -0.67460330       0.42772172
C       -1.71024264       0.64881197       0.52007018
N       -0.07204563       1.20308025      -1.15121705
H        2.51015530       1.29282359      -0.11553862
H        1.73204497       0.45060637       1.26563181
H        0.04850753      -2.67611309      -0.10115017
H       -1.90295933      -1.57040924       0.45886134
H       -2.79128338       0.74161349       0.66998144
H        0.36976204       2.07095331      -1.43550525
13
Frame=10 idx=008465 GeodesicLength=0.8155640787994258 rxn_smarts="[N:1]([c:2]1[c:3]([O:4][H:10])[c:5]([H:11])[c:6]([H:12])[n:7]1[H:13])([H:8])[H:9]>>[N:1]([C+:2](/[C:3]([O:4][H:10])=[C:5](\[C:6][H:12])[H:11])[N-:7][H:13])([H:8])[H:9]"
N        1.71322720       0.87248549       0.35211311
C        0.73128203       0.38931054      -0.48680006
C        0.02265129      -0.81772576      -0.07346210
O        0.63157315      -1.96689909      -0.35431467
C       -1.26199865      -0.68023932       0.44184605
C       -1.66874875       0.65052901       0.51245877
N       -0.07418964       1.16788832      -1.16024024
H        2.51033074       1.28861918      -0.09306355
H        1.65603802       0.53816107       1.30813305
H        0.02564388      -2.69022459      -0.16141641
H       -1.89882342      -1.56550386       0.47018108
H       -2.73869897       0.77572052       0.70451330
H        0.35171312       2.03787851      -1.45994832
13
Frame=11 idx=008465 GeodesicLength=0.8975957303086498 rxn_smarts="[N:1]([c:2]1[c:3]([O:4][H:10])[c:5]([H:11])[c:6]([H:12])[n:7]1[H:13])([H:8])[H:9]>>[N:1]([C+:2](/[C:3]([O:4][H:10])=[C:5](\[C:6][H:12])[H:11])[N-:7][H:13])([H:8])[H:9]"
N        1.69787450       0.89025499       0.36894062
C        0.74401584       0.37220699      -0.48200941
C        0.04226718      -0.83482043      -0.06250663
O        0.61565092      -1.98447751      -0.40726957
C       -1.24305192      -0.68614330       0.45654837
C       -1.62945531       0.65045989       0.50241727
N       -0.07466199       1.13199330      -1.16799210
H        2.51059833       1.28464350      -0.06768526
H        1.57960135       0.62751920       1.34266244
H       -0.00037110      -2.70145691      -0.22322638
H       -1.89243921      -1.56158209       0.48684375
H       -2.68556912       0.80799781       0.73647108
H        0.33554053       2.00340456      -1.48319421
13
Frame=12 idx=008465 GeodesicLength=0.9797313941224941 rxn_smarts="[N:1]([c:2]1[c:3]([O:4][H:10])[c:5]([H:11])[c:6]([H:12])[n:7]1[H:13])([H:8])[H:9]>>[N:1]([C+:2](/[C:3]([O:4][H:10])=[C:5](\[C:6][H:12])[H:11])[N-:7][H:13])([H:8])[H:9]"
N        1.68232679       0.90768317       0.38673968
C        0.75715561       0.35556729      -0.47496205
C        0.06278783      -0.85246429      -0.05102875
O        0.59645547      -1.99919508      -0.46266984
C       -1.22324307      -0.69231419       0.47182907
C       -1.59226074       0.64851575       0.49022066
N       -0.07361915       1.09613199      -1.17439175
H        2.51073822       1.28067586      -0.03910857
H        1.50284732       0.71697454       1.36895927
H       -0.02920055      -2.70944843      -0.28571234
H       -1.88310203      -1.55896768       0.51050779
H       -2.63213585       0.83849445       0.76441012
H        0.32125015       1.96834661      -1.50479330
13
Frame=13 idx=008465 GeodesicLength=1.0620798742241757 rxn_smarts="[N:1]([c:2]1[c:3]([O:4][H:10])[c:5]([H:11])[c:6]([H:12])[n:7]1[H:13])([H:8])[H:9]>>[N:1]([C+:2](/[C:3]([O:4][H:10])=[C:5](\[C:6][H:12])[H:11])[N-:7][H:13])([H:8])[H:9]"
N        1.66632061       0.92450148       0.40531482
C        0.77051078       0.33952933      -0.46629797
C        0.08378609      -0.87061810      -0.04040706
O        0.57431645      -2.01070620      -0.51950198
C       -1.20257297      -0.69876551       0.48735583
C       -1.55715405       0.64464227       0.47599103
N       -0.07126257       1.06095544      -1.17953260
H        2.51056946       1.27637851      -0.00727797
H        1.42593886       0.80511139       1.38690972
H       -0.06009687      -2.71416178      -0.34729828
H       -1.87070497      -1.55768657       0.54059343
H       -2.57839242       0.86732941       0.78861983
H        0.30874163       1.93349033      -1.52446880
13
Frame=14 idx=008465 GeodesicLength=1.1446709317092638 rxn_smarts="[N:1]([c:2]1[c:3]([O:4][H:10])[c:5]([H:11])[c:6]([H:12])[n:7]1[H:13])([H:8])[H:9]>>[N:1]([C+:2](/[C:3]([O:4][H:10])=[C:5](\[C:6][H:12])[H:11])[N-:7][H:13])([H:8])[H:9]"
N        1.64982335       0.94059785       0.42429179
C        0.78381299       0.32417859      -0.45640440
C        0.10493523      -0.88917868      -0.03115454
O        0.54987067      -2.01895071      -0.57617963
C       -1.18118304      -0.70556891       0.50308213
C       -1.52387890       0.63887102       0.46071016
N       -0.06808747       1.02687514      -1.18327567
H        2.50989795       1.27165472       0.02730623
H        1.34998081       0.89072215       1.39663090
H       -0.09234438      -2.71577246      -0.40672644
H       -1.85582411      -1.55745469       0.57472554
H       -2.52446824       0.89465897       0.80899035
H        0.29746513       1.89936701      -1.54199642
13
Frame=15 idx=008465 GeodesicLength=1.2275312853314113 rxn_smarts="[N:1]([c:2]1[c:3]([O:4][H:10])[c:5]([H:11])[c:6]([H:12])[n:7]1[H:13])([H:8])[H:9]>>[N:1]([C+:2](/[C:3]([O:4][H:10])=[C:5](\[C:6][H:12])[H:11])[N-:7][H:13])([H:8])[H:9]"
N        1.63280173       0.95588087       0.44335220
C        0.79684155       0.30957648      -0.44566866
C        0.12593052      -0.90797756      -0.02363103
O        0.52377734      -2.02408486      -0.63149804
C       -1.15931347      -0.71271841       0.51875873
C       -1.49221047       0.63137763       0.44509109
N       -0.06449853       0.99419566      -1.18565242
H        2.50851678       1.26647158       0.06422094
H        1.27580596       0.97285747       1.39855213
H       -0.12513843      -2.71467157      -0.46290195
H       -1.83908420      -1.55797515       0.61076480
H       -2.47038350       0.92067931       0.82595260
H        0.28695471       1.86638855      -1.55734041
13
Frame=16 idx=008465 GeodesicLength=1.3106866479831967 rxn_smarts="[N:1]([c:2]1[c:3]([O:4][H:10])[c:5]([H:11])[c:6]([H:12])[n:7]1[H:13])([H:8])[H:9]>>[N:1]([C+:2](/[C:3]([O:4][H:10])=[C:5](\[C:6][H:12])[H:11])[N-:7][H:13])([H:8])[H:9]"
N        1.61513409       0.97036279       0.46230058
C        0.80942352       0.29570772      -0.43436935
C        0.14654251      -0.92687051      -0.01790533
O        0.49682515      -2.02648019      -0.68440208
C       -1.13733784      -0.72022179       0.53391721
C       -1.46210181       0.62235039       0.42931276
N       -0.06073025       0.96293052      -1.18694553
H        2.50619739       1.26080189       0.10322954
H        1.20372723       1.05135734       1.39324467
H       -0.15780506      -2.71132495      -0.51537184
H       -1.82124050      -1.55905251       0.64665879
H       -2.41555591       0.94578479       0.84108919
H        0.27692148       1.83465450      -1.57075860
