10
Frame=0 idx=005482 GeodesicLength=0.0 rxn_smarts="[O:1]=[C:2]([C@@:3]1([H:7])[C:4]([H:8])([H:9])[N:5]1[H:10])[H:6]>>[O:1]([C+:2]([C@@:3]1([H:7])[C-:4]([H:9])[N:5]1[H:10])[H:6])[H:8]"
O        0.57354139      -1.69794899      -0.34171972
C        0.88532587      -0.53600948       0.12255398
C        0.28134010       0.51361135      -0.65436004
C       -0.94105743       0.01633688       0.16199392
N       -0.67319416       1.42686592      -0.08978928
H        1.47421066      -0.42108162       1.03176580
H        0.18653762       0.34143589      -1.71904314
H       -0.62354359      -1.28147425      -0.47590871
H       -0.80733175      -0.26164741       1.21569750
H       -0.35582870       1.89991170       0.74880968
10
Frame=1 idx=005482 GeodesicLength=0.08999231486447579 rxn_smarts="[O:1]=[C:2]([C@@:3]1([H:7])[C:4]([H:8])([H:9])[N:5]1[H:10])[H:6]>>[O:1]([C+:2]([C@@:3]1([H:7])[C-:4]([H:9])[N:5]1[H:10])[H:6])[H:8]"
O        0.58556263      -1.70356954      -0.32015661
C        0.89293281      -0.53219689       0.12028390
C        0.27409596       0.50831342      -0.65547780
C       -0.95797942       0.02274616       0.15079669
N       -0.66732768       1.42958026      -0.08018922
H        1.49712355      -0.40168082       1.01727698
H        0.18728520       0.34702412      -1.72232677
H       -0.63341898      -1.29487683      -0.47777177
H       -0.84388664      -0.26121380       1.20518054
H       -0.33438743       1.88587393       0.76238405
10
Frame=2 idx=005482 GeodesicLength=0.17993911762330095 rxn_smarts="[O:1]=[C:2]([C@@:3]1([H:7])[C:4]([H:8])([H:9])[N:5]1[H:10])[H:6]>>[O:1]([C+:2]([C@@:3]1([H:7])[C-:4]([H:9])[N:5]1[H:10])[H:6])[H:8]"
O        0.59719135      -1.70898892      -0.29720455
C        0.90079517      -0.52844002       0.11800151
C        0.26694576       0.50283739      -0.65630739
C       -0.97511210       0.02956723       0.13927210
N       -0.66120104       1.43200494      -0.07039071
H        1.52149324      -0.38203279       1.00117597
H        0.18862128       0.35296623      -1.72527469
H       -0.64377278      -1.30827411      -0.47950246
H       -0.88141486      -0.26043751       1.19397679
H       -0.31354602       1.87079757       0.77625343
10
Frame=3 idx=005482 GeodesicLength=0.2698886524469883 rxn_smarts="[O:1]=[C:2]([C@@:3]1([H:7])[C:4]([H:8])([H:9])[N:5]1[H:10])[H:6]>>[O:1]([C+:2]([C@@:3]1([H:7])[C-:4]([H:9])[N:5]1[H:10])[H:6])[H:8]"
O        0.60842317      -1.71418714      -0.27272892
C        0.90895226      -0.52474124       0.11569835
C        0.25989831       0.49717441      -0.65683660
C       -0.99246352       0.03681071       0.12739448
N       -0.65482909       1.43412183      -0.06036177
H        1.54737889      -0.36215116       0.98328402
H        0.19058533       0.35928827      -1.72785977
H       -0.65461145      -1.32169441      -0.48109243
H       -0.91998363      -0.25927735       1.18203110
H       -0.29335027       1.85465607       0.79047155
10
Frame=4 idx=005482 GeodesicLength=0.35982392986038075 rxn_smarts="[O:1]=[C:2]([C@@:3]1([H:7])[C:4]([H:8])([H:9])[N:5]1[H:10])[H:6]>>[O:1]([C+:2]([C@@:3]1([H:7])[C-:4]([H:9])[N:5]1[H:10])[H:6])[H:8]"
O        0.61924722      -1.71910741      -0.24655550
C        0.91743793      -0.52109669       0.11336789
C        0.25295518       0.49131030      -0.65705232
C       -1.01002972       0.04449427       0.11511872
N       -0.64821344       1.43589456      -0.05006930
H        1.57482691      -0.34205215       0.96339895
H        0.19320000       0.36601920      -1.73004367
H       -0.66593123      -1.33514447      -0.48252160
H       -0.95965021      -0.25769033       1.16925781
H       -0.27384265       1.83737272       0.80509902
10
Frame=5 idx=005482 GeodesicLength=0.4497430225470445 rxn_smarts="[O:1]=[C:2]([C@@:3]1([H:7])[C:4]([H:8])([H:9])[N:5]1[H:10])[H:6]>>[O:1]([C+:2]([C@@:3]1([H:7])[C-:4]([H:9])[N:5]1[H:10])[H:6])[H:8]"
O        0.62965690      -1.72367927      -0.21849521
C        0.92629607      -0.51750098       0.11099358
C        0.24611979       0.48523223      -0.65694340
C       -1.02780490       0.05263499       0.10240049
N       -0.64135934       1.43728586      -0.03947337
H        1.60386388      -0.32176803       0.94130315
H        0.19648933       0.37319454      -1.73178814
H       -0.67772320      -1.34863897      -0.48376213
H       -1.00047079      -0.25563033       1.15556676
H       -0.25506774       1.81886997       0.82019827
10
Frame=6 idx=005482 GeodesicLength=0.5396439812682848 rxn_smarts="[O:1]=[C:2]([C@@:3]1([H:7])[C:4]([H:8])([H:9])[N:5]1[H:10])[H:6]>>[O:1]([C+:2]([C@@:3]1([H:7])[C-:4]([H:9])[N:5]1[H:10])[H:6])[H:8]"
O        0.63964953      -1.72780869      -0.18833675
C        0.93557914      -0.51394643       0.10854620
C        0.23939529       0.47892760      -0.65650199
C       -1.04577819       0.06125120       0.08919148
N       -0.63427116       1.43825326      -0.02852717
H        1.63448904      -0.30134706       0.91676528
H        0.20047251       0.38085789      -1.73305397
H       -0.68997063      -1.36219523      -0.48477415
H       -1.04249659      -0.25304834       1.14085633
H       -0.23706894       1.79905581       0.83583473
10
Frame=7 idx=005482 GeodesicLength=0.62952543583802 rxn_smarts="[O:1]=[C:2]([C@@:3]1([H:7])[C:4]([H:8])([H:9])[N:5]1[H:10])[H:6]>>[O:1]([C+:2]([C@@:3]1([H:7])[C-:4]([H:9])[N:5]1[H:10])[H:6])[H:8]"
O        0.64922841      -1.73137202      -0.15584643
C        0.94534986      -0.51042369       0.10597817
C        0.23278471       0.47238460      -0.65572524
C       -1.06393230       0.07036252       0.07543983
N       -0.62695248       1.43874814      -0.01717662
H        1.66666595      -0.28085871       0.88954680
H        0.20516144       0.38906363      -1.73380234
H       -0.70264779      -1.37583392      -0.48550259
H       -1.08577044      -0.24989269       1.12501319
H       -0.21988735       1.77782214       0.85207521
10
Frame=8 idx=005482 GeodesicLength=0.7193839734478923 rxn_smarts="[O:1]=[C:2]([C@@:3]1([H:7])[C:4]([H:8])([H:9])[N:5]1[H:10])[H:6]>>[O:1]([C+:2]([C@@:3]1([H:7])[C-:4]([H:9])[N:5]1[H:10])[H:6])[H:8]"
O        0.65840466      -1.73420629      -0.12076805
C        0.95568225      -0.50692267       0.10321510
C        0.22629163       0.46559178      -0.65461692
C       -1.08224178       0.07998999       0.06109111
N       -0.61940548       1.43871300      -0.00535961
H        1.70031323      -0.26039910       0.85940869
H        0.21055920       0.39787887      -1.73399500
H       -0.71571852      -1.38957778      -0.48587250
H       -1.13032403      -0.24610863       1.10791151
H       -0.20356117       1.75504084       0.86898568
10
Frame=9 idx=005482 GeodesicLength=0.8092218634021222 rxn_smarts="[O:1]=[C:2]([C@@:3]1([H:7])[C:4]([H:8])([H:9])[N:5]1[H:10])[H:6]>>[O:1]([C+:2]([C@@:3]1([H:7])[C-:4]([H:9])[N:5]1[H:10])[H:6])[H:8]"
O        0.66720300      -1.73610523      -0.08282907
C        0.96666269      -0.50343673       0.10014627
C        0.21991912       0.45853958      -0.65319320
C       -1.10067215       0.09015600       0.04608651
N       -0.61162819       1.43808277       0.00699375
H        1.73529175      -0.24009022       0.82613260
H        0.21665396       0.40739050      -1.73360162
H       -0.72913765      -1.40345796      -0.48578085
H       -1.17617306      -0.24163745       1.08941378
H       -0.18811947       1.73055873       0.88663183
10
Frame=10 idx=005482 GeodesicLength=0.8990435640594863 rxn_smarts="[O:1]=[C:2]([C@@:3]1([H:7])[C:4]([H:8])([H:9])[N:5]1[H:10])[H:6]>>[O:1]([C+:2]([C@@:3]1([H:7])[C-:4]([H:9])[N:5]1[H:10])[H:6])[H:8]"
O        0.67566510      -1.73680399      -0.04174168
C        0.97838744      -0.49996745       0.09661509
C        0.21367066       0.45121903      -0.65148306
C       -1.11917913       0.10088604       0.03036340
N       -0.60361377       1.43677975       0.01996204
H        1.77140198      -0.22008455       0.78952960
H        0.22341771       0.41770662      -1.73259667
H       -0.74285143      -1.41750893      -0.48509030
H       -1.22331687      -0.23641742       1.06936738
H       -0.17358169       1.70419090       0.90507421
10
Frame=11 idx=005482 GeodesicLength=0.9888570694281777 rxn_smarts="[O:1]=[C:2]([C@@:3]1([H:7])[C:4]([H:8])([H:9])[N:5]1[H:10])[H:6]>>[O:1]([C+:2]([C@@:3]1([H:7])[C-:4]([H:9])[N:5]1[H:10])[H:6])[H:8]"
O        0.68385559      -1.73596715       0.00278570
C        0.99095723      -0.49653241       0.09241064
C        0.20755011       0.44362073      -0.64953180
C       -1.13770819       0.11220897       0.01385486
N       -0.59534807       1.43471033       0.03363256
H        1.80837984      -0.20056211       0.74946088
H        0.23080462       0.42896034      -1.73096274
H       -0.75680148      -1.43176991      -0.48362073
H       -1.27173681      -0.23038273       1.04760502
H       -0.15995283       1.67571394       0.92436562
10
Frame=12 idx=005482 GeodesicLength=1.0787508627446598 rxn_smarts="[O:1]=[C:2]([C@@:3]1([H:7])[C:4]([H:8])([H:9])[N:5]1[H:10])[H:6]>>[O:1]([C+:2]([C@@:3]1([H:7])[C-:4]([H:9])[N:5]1[H:10])[H:6])[H:8]"
O        0.69188609      -1.73321964       0.05099624
C        1.00449003      -0.49318741       0.08725803
C        0.20156680       0.43574098      -0.64740225
C       -1.15621504       0.12415364      -0.00349071
N       -0.58683106       1.43179359       0.04809245
H        1.84591717      -0.18174279       0.70588412
H        0.23876594       0.44133190      -1.72868855
H       -0.77094618      -1.44631754      -0.48114219
H       -1.32140760      -0.22346895       1.02396904
H       -0.14722615       1.64491623       0.94452382
10
Frame=13 idx=005482 GeodesicLength=1.168850186108713 rxn_smarts="[O:1]=[C:2]([C@@:3]1([H:7])[C:4]([H:8])([H:9])[N:5]1[H:10])[H:6]>>[O:1]([C+:2]([C@@:3]1([H:7])[C-:4]([H:9])[N:5]1[H:10])[H:6])[H:8]"
O        0.69991999      -1.72809295       0.10312139
C        1.01908358      -0.49003135       0.08083870
C        0.19572994       0.42757276      -0.64517317
C       -1.17465802       0.13676900      -0.02175534
N       -0.57804077       1.42792723       0.06344496
H        1.88369032      -0.16384280       0.65880727
H        0.24723118       0.45501653      -1.72576341
H       -0.78526420      -1.46123003      -0.47735377
H       -1.37231367      -0.21559586       0.99825418
H       -0.13537835       1.61150748       0.96557920
10
Frame=14 idx=005482 GeodesicLength=1.2591844034291562 rxn_smarts="[O:1]=[C:2]([C@@:3]1([H:7])[C:4]([H:8])([H:9])[N:5]1[H:10])[H:6]>>[O:1]([C+:2]([C@@:3]1([H:7])[C-:4]([H:9])[N:5]1[H:10])[H:6])[H:8]"
O        0.70817527      -1.71999301       0.15926932
C        1.03477307      -0.48720637       0.07280453
C        0.19004410       0.41908647      -0.64293580
C       -1.19296188       0.15010549      -0.04101039
N       -0.56894556       1.42295450       0.07978480
H        1.92128344      -0.14708707       0.60836626
H        0.25612711       0.47022024      -1.72216753
H       -0.79974836      -1.47655711      -0.47188351
H       -1.42437585      -0.20665994       0.97025976
H       -0.12437134       1.57513681       0.98751256
10
Frame=15 idx=005482 GeodesicLength=1.348609080528897 rxn_smarts="[O:1]=[C:2]([C@@:3]1([H:7])[C:4]([H:8])([H:9])[N:5]1[H:10])[H:6]>>[O:1]([C+:2]([C@@:3]1([H:7])[C-:4]([H:9])[N:5]1[H:10])[H:6])[H:8]"
O        0.71662266      -1.70758740       0.21989448
C        1.05116772      -0.48475325       0.06281670
C        0.18448793       0.41012985      -0.64082017
C       -1.21068907       0.16422574      -0.06146760
N       -0.55924314       1.41619366       0.09727211
H        1.95780694      -0.13158586       0.55431991
H        0.26543762       0.48706984      -1.71790980
H       -0.81414363      -1.49183211      -0.46415407
H       -1.47724547      -0.19650257       0.93960641
H       -0.11420156       1.53464209       1.01044203
10
Frame=16 idx=005482 GeodesicLength=1.4388075338500168 rxn_smarts="[O:1]=[C:2]([C@@:3]1([H:7])[C:4]([H:8])([H:9])[N:5]1[H:10])[H:6]>>[O:1]([C+:2]([C@@:3]1([H:7])[C-:4]([H:9])[N:5]1[H:10])[H:6])[H:8]"
O        0.72619279      -1.69114156       0.28382855
C        1.06861064      -0.48317798       0.05066086
C        0.17913057       0.40081337      -0.63883980
C       -1.22820704       0.17920137      -0.08289830
N       -0.54936244       1.40815296       0.11580316
H        1.99333433      -0.11778607       0.49771075
H        0.27514470       0.50587982      -1.71275664
H       -0.82892341      -1.50771668      -0.45378088
H       -1.53101927      -0.18501097       0.90642729
H       -0.10490087       1.49078574       1.03384500
