13
Frame=0 idx=006303 GeodesicLength=0.0 rxn_smarts="[C:1]([C@@:2]1([H:10])[C:3]([H:11])([H:12])/[C:4](=[N:5]/[H:13])[O:6]1)([H:7])([H:8])[H:9]>>[C:1]([C@@:2]([C:3]([C:4]#[N:5])([H:11])[H:12])([O:6][H:13])[H:10])([H:7])([H:8])[H:9]"
C        1.47550837      -0.36233672      -0.21003157
C        0.36007825       0.29584030       0.58013895
C       -0.70764340       0.99994919      -0.31149206
C       -1.57366295      -0.18408387      -0.23439853
N       -2.14469127      -1.20039650      -0.46571184
O       -0.46644306      -0.61597587       1.26234890
H        2.09281600      -0.95257690       0.46727403
H        2.10814981       0.37743370      -0.70620302
H        1.07165329      -1.03884682      -0.96859219
H        0.77469673       1.02392295       1.28458202
H       -1.16577497       1.84136658       0.20580867
H       -0.45902776       1.26641115      -1.34028142
H       -1.36565902      -1.45070725       0.43655810
13
Frame=1 idx=006303 GeodesicLength=0.06908089468258875 rxn_smarts="[C:1]([C@@:2]1([H:10])[C:3]([H:11])([H:12])/[C:4](=[N:5]/[H:13])[O:6]1)([H:7])([H:8])[H:9]>>[C:1]([C@@:2]([C:3]([C:4]#[N:5])([H:11])[H:12])([O:6][H:13])[H:10])([H:7])([H:8])[H:9]"
C        1.47850124      -0.36051556      -0.21054684
C        0.36120203       0.29625114       0.57718414
C       -0.70629891       1.00023352      -0.31248455
C       -1.57514370      -0.18229804      -0.24090606
N       -2.15891154      -1.19470137      -0.46145434
O       -0.46686212      -0.61983512       1.25520363
H        2.09663737      -0.94917081       0.46741088
H        2.11027565       0.38098542      -0.70517404
H        1.07702333      -1.03689411      -0.97036140
H        0.77238479       1.02083597       1.28681326
H       -1.16562972       1.84191963       0.20329948
H       -0.45335412       1.26721896      -1.33988408
H       -1.36982432      -1.46402962       0.45089993
13
Frame=2 idx=006303 GeodesicLength=0.13816252626237566 rxn_smarts="[C:1]([C@@:2]1([H:10])[C:3]([H:11])([H:12])/[C:4](=[N:5]/[H:13])[O:6]1)([H:7])([H:8])[H:9]>>[C:1]([C@@:2]([C:3]([C:4]#[N:5])([H:11])[H:12])([O:6][H:13])[H:10])([H:7])([H:8])[H:9]"
C        1.48150799      -0.35866980      -0.21106830
C        0.36229144       0.29663332       0.57418785
C       -0.70493979       1.00053174      -0.31354800
C       -1.57661181      -0.18047893      -0.24767190
N       -2.17321979      -1.18874625      -0.45694172
O       -0.46735129      -0.62377765       1.24785446
H        2.10041682      -0.94578376       0.46754942
H        2.11244300       0.38459094      -0.70405952
H        1.08246639      -1.03486292      -0.97220635
H        0.76996234       1.01763461       1.28906227
H       -1.16548318       1.84246481       0.20073686
H       -0.44762888       1.26810493      -1.33951238
H       -1.37385323      -1.47764102       0.46561731
13
Frame=3 idx=006303 GeodesicLength=0.20723503943065708 rxn_smarts="[C:1]([C@@:2]1([H:10])[C:3]([H:11])([H:12])/[C:4](=[N:5]/[H:13])[O:6]1)([H:7])([H:8])[H:9]>>[C:1]([C@@:2]([C:3]([C:4]#[N:5])([H:11])[H:12])([O:6][H:13])[H:10])([H:7])([H:8])[H:9]"
C        1.48451962      -0.35680453      -0.21159772
C        0.36334374       0.29698923       0.57114988
C       -0.70356977       1.00084900      -0.31467992
C       -1.57807007      -0.17862166      -0.25470359
N       -2.18755964      -1.18253694      -0.45220808
O       -0.46791579      -0.62779769       1.24029873
H        2.10414266      -0.94242522       0.46768710
H        2.11464451       0.38824027      -0.70286472
H        1.08796863      -1.03275748      -0.97412594
H        0.76743026       1.01431885       1.29132506
H       -1.16534075       1.84300355       0.19812786
H       -0.44185438       1.26908193      -1.33916057
H       -1.37773904      -1.49153931       0.48075190
13
Frame=4 idx=006303 GeodesicLength=0.2762827555405199 rxn_smarts="[C:1]([C@@:2]1([H:10])[C:3]([H:11])([H:12])/[C:4](=[N:5]/[H:13])[O:6]1)([H:7])([H:8])[H:9]>>[C:1]([C@@:2]([C:3]([C:4]#[N:5])([H:11])[H:12])([O:6][H:13])[H:10])([H:7])([H:8])[H:9]"
C        1.48752494      -0.35492617      -0.21213794
C        0.36435625       0.29732199       0.56807087
C       -0.70219318       1.00119188      -0.31587596
C       -1.57952342      -0.17671979      -0.26200539
N       -2.20185793      -1.17608847      -0.44730474
O       -0.46856138      -0.63188841       1.23253602
H        2.10780198      -0.93910579       0.46781995
H        2.11687048       0.39192117      -0.70159852
H        1.09351161      -1.03058425      -0.97611852
H        0.76479156       1.01088938       1.29359801
H       -1.16520761       1.84353894       0.19548219
H       -0.43603424       1.27016479      -1.33882155
H       -1.38147905      -1.50571527       0.49635558
13
Frame=5 idx=006303 GeodesicLength=0.3452715051497567 rxn_smarts="[C:1]([C@@:2]1([H:10])[C:3]([H:11])([H:12])/[C:4](=[N:5]/[H:13])[O:6]1)([H:7])([H:8])[H:9]>>[C:1]([C@@:2]([C:3]([C:4]#[N:5])([H:11])[H:12])([O:6][H:13])[H:10])([H:7])([H:8])[H:9]"
C        1.49051098      -0.35304354      -0.21269245
C        0.36532693       0.29763414       0.56495332
C       -0.70081686       1.00156913      -0.31713131
C       -1.58098362      -0.17477003      -0.26958230
N       -2.21602457      -1.16942943      -0.44230147
O       -0.46929410      -0.63604871       1.22456953
H        2.11138286      -0.93583996       0.46794445
H        2.11910959       0.39562121      -0.70027284
H        1.09907063      -1.02835396      -0.97818386
H        0.76205439       1.00734680       1.29588231
H       -1.16508976       1.84407773       0.19281212
H       -0.43017675       1.27137430      -1.33849071
H       -1.38506971      -1.52013768       0.51249321
13
Frame=6 idx=006303 GeodesicLength=0.4141007807924767 rxn_smarts="[C:1]([C@@:2]1([H:10])[C:3]([H:11])([H:12])/[C:4](=[N:5]/[H:13])[O:6]1)([H:7])([H:8])[H:9]>>[C:1]([C@@:2]([C:3]([C:4]#[N:5])([H:11])[H:12])([O:6][H:13])[H:10])([H:7])([H:8])[H:9]"
C        1.49345721      -0.35116622      -0.21326989
C        0.36625156       0.29793409       0.56179809
C       -0.69944326       1.00199267      -0.31843156
C       -1.58244885      -0.17274675      -0.27742600
N       -2.22989958      -1.16261392      -0.43729220
O       -0.47012060      -0.64025092       1.21640109
H        2.11486104      -0.93263987       0.46804413
H        2.12134230       0.39931436      -0.69890810
H        1.10461459      -1.02607434      -0.98031948
H        0.75922151       1.00369550       1.29816488
H       -1.16499283       1.84462385       0.19013936
H       -0.42428218       1.27272844      -1.33814481
H       -1.38856090      -1.53479688       0.52924449
13
Frame=7 idx=006303 GeodesicLength=0.4831230573735015 rxn_smarts="[C:1]([C@@:2]1([H:10])[C:3]([H:11])([H:12])/[C:4](=[N:5]/[H:13])[O:6]1)([H:7])([H:8])[H:9]>>[C:1]([C@@:2]([C:3]([C:4]#[N:5])([H:11])[H:12])([O:6][H:13])[H:10])([H:7])([H:8])[H:9]"
C        1.49631023      -0.34932125      -0.21387540
C        0.36710799       0.29823741       0.55860555
C       -0.69808105       1.00250082      -0.31976523
C       -1.58396207      -0.17057254      -0.28553672
N       -2.24328428      -1.15568916      -0.43240590
O       -0.47109157      -0.64443035       1.20805130
H        2.11816871      -0.92954635       0.46811184
H        2.12353432       0.40294430      -0.69752772
H        1.11005976      -1.02376812      -0.98251230
H        0.75630148       0.99995123       1.30042228
H       -1.16491150       1.84521393       0.18748415
H       -0.41834445       1.27427685      -1.33775748
H       -1.39180757      -1.54979678       0.54670562
13
Frame=8 idx=006303 GeodesicLength=0.5520678898824726 rxn_smarts="[C:1]([C@@:2]1([H:10])[C:3]([H:11])([H:12])/[C:4](=[N:5]/[H:13])[O:6]1)([H:7])([H:8])[H:9]>>[C:1]([C@@:2]([C:3]([C:4]#[N:5])([H:11])[H:12])([O:6][H:13])[H:10])([H:7])([H:8])[H:9]"
C        1.49910337      -0.34749582      -0.21450878
C        0.36791136       0.29852775       0.55537861
C       -0.69673207       1.00307067      -0.32113834
C       -1.58551024      -0.16830454      -0.29391259
N       -2.25629214      -1.14865581      -0.42765560
O       -0.47217104      -0.64865329       1.19950238
H        2.12135695      -0.92654286       0.46814928
H        2.12570552       0.40655168      -0.69611809
H        1.11545216      -1.02142537      -0.98477942
H        0.75329472       0.99609073       1.30268363
H       -1.16485125       1.84583094       0.18483981
H       -0.41238181       1.27599780      -1.33735031
H       -1.39488553      -1.56499188       0.56490942
13
Frame=9 idx=006303 GeodesicLength=0.6208432109832439 rxn_smarts="[C:1]([C@@:2]1([H:10])[C:3]([H:11])([H:12])/[C:4](=[N:5]/[H:13])[O:6]1)([H:7])([H:8])[H:9]>>[C:1]([C@@:2]([C:3]([C:4]#[N:5])([H:11])[H:12])([O:6][H:13])[H:10])([H:7])([H:8])[H:9]"
C        1.50183121      -0.34568920      -0.21517954
C        0.36865814       0.29880057       0.55211272
C       -0.69539196       1.00370760      -0.32254680
C       -1.58709004      -0.16592310      -0.30257242
N       -2.26883029      -1.14155608      -0.42308597
O       -0.47336467      -0.65292485       1.19073095
H        2.12442401      -0.92362475       0.46814090
H        2.12784746       0.41013534      -0.69469007
H        1.12078668      -1.01904055      -0.98712837
H        0.75019229       0.99209769       1.30494819
H       -1.16481205       1.84647000       0.18221783
H       -0.40637988       1.27790938      -1.33690691
H       -1.39787090      -1.58036205       0.58395948
13
Frame=10 idx=006303 GeodesicLength=0.6895607991583509 rxn_smarts="[C:1]([C@@:2]1([H:10])[C:3]([H:11])([H:12])/[C:4](=[N:5]/[H:13])[O:6]1)([H:7])([H:8])[H:9]>>[C:1]([C@@:2]([C:3]([C:4]#[N:5])([H:11])[H:12])([O:6][H:13])[H:10])([H:7])([H:8])[H:9]"
C        1.50450553      -0.34389423      -0.21588662
C        0.36934366       0.29904521       0.54880132
C       -0.69405734       1.00440851      -0.32400306
C       -1.58870184      -0.16342709      -0.31153886
N       -2.28099690      -1.13436592      -0.41867453
O       -0.47467444      -0.65727490       1.18170577
H        2.12737861      -0.92078811       0.46809078
H        2.12997160       0.41371465      -0.69322398
H        1.12608717      -1.01659948      -0.98957169
H        0.74697479       0.98794789       1.30722940
H       -1.16478484       1.84713370       0.17960669
H       -0.40033053       1.28001053      -1.33643953
H       -1.40071547      -1.59591076       0.60390432
13
Frame=11 idx=006303 GeodesicLength=0.7582831201098303 rxn_smarts="[C:1]([C@@:2]1([H:10])[C:3]([H:11])([H:12])/[C:4](=[N:5]/[H:13])[O:6]1)([H:7])([H:8])[H:9]>>[C:1]([C@@:2]([C:3]([C:4]#[N:5])([H:11])[H:12])([O:6][H:13])[H:10])([H:7])([H:8])[H:9]"
C        1.50707131      -0.34214095      -0.21664770
C        0.36995750       0.29927788       0.54545135
C       -0.69274131       1.00520787      -0.32547662
C       -1.59037677      -0.16075584      -0.32078270
N       -2.29248109      -1.12722235      -0.41468660
O       -0.47613020      -0.66163982       1.17246093
H        2.13016073      -0.91808087       0.46796668
H        2.13204087       0.41723105      -0.69175569
H        1.13126014      -1.01412533      -0.99210953
H        0.74367048       0.98365762       1.30950433
H       -1.16477939       1.84784560       0.17705177
H       -0.39424366       1.28235085      -1.33590511
H       -1.40340860      -1.61160571       0.62492888
13
Frame=12 idx=006303 GeodesicLength=0.8269428181292052 rxn_smarts="[C:1]([C@@:2]1([H:10])[C:3]([H:11])([H:12])/[C:4](=[N:5]/[H:13])[O:6]1)([H:7])([H:8])[H:9]>>[C:1]([C@@:2]([C:3]([C:4]#[N:5])([H:11])[H:12])([O:6][H:13])[H:10])([H:7])([H:8])[H:9]"
C        1.50954470      -0.34042006      -0.21746882
C        0.37049907       0.29948307       0.54205497
C       -0.69144033       1.00609822      -0.32697720
C       -1.59210772      -0.15791855      -0.33033793
N       -2.30332949      -1.12013415      -0.41111253
O       -0.47772505      -0.66606641       1.16295452
H        2.13278709      -0.91549949       0.46776111
H        2.13407216       0.42071208      -0.69026315
H        1.13633640      -1.01159497      -0.99476957
H        0.74025992       0.97919518       1.31178927
H       -1.16479446       1.84859625       0.17454953
H       -0.38811107       1.28493658      -1.33530944
H       -1.40599123      -1.62738775       0.64712925
13
Frame=13 idx=006303 GeodesicLength=0.8955907075598889 rxn_smarts="[C:1]([C@@:2]1([H:10])[C:3]([H:11])([H:12])/[C:4](=[N:5]/[H:13])[O:6]1)([H:7])([H:8])[H:9]>>[C:1]([C@@:2]([C:3]([C:4]#[N:5])([H:11])[H:12])([O:6][H:13])[H:10])([H:7])([H:8])[H:9]"
C        1.51193032      -0.33872763      -0.21835576
C        0.37096334       0.29964822       0.53860581
C       -0.69015129       1.00707969      -0.32850933
C       -1.59389368      -0.15490450      -0.34022578
N       -2.31357115      -1.11311746      -0.40798638
O       -0.47946390      -0.67057776       1.15315456
H        2.13526264      -0.91304420       0.46746430
H        2.13607276       0.42417103      -0.68873214
H        1.14132850      -1.00899324      -0.99756998
H        0.73672615       0.97453356       1.31409151
H       -1.16482478       1.84938310       0.17210245
H       -0.38192297       1.28777639      -1.33465045
H       -1.40845593      -1.64322721       0.67061119
13
Frame=14 idx=006303 GeodesicLength=0.9642264484221028 rxn_smarts="[C:1]([C@@:2]1([H:10])[C:3]([H:11])([H:12])/[C:4](=[N:5]/[H:13])[O:6]1)([H:7])([H:8])[H:9]>>[C:1]([C@@:2]([C:3]([C:4]#[N:5])([H:11])[H:12])([O:6][H:13])[H:10])([H:7])([H:8])[H:9]"
C        1.51423243      -0.33706021      -0.21931735
C        0.37134536       0.29976019       0.53509800
C       -0.68887312       1.00815061      -0.33007823
C       -1.59573379      -0.15171121      -0.35048390
N       -2.32321212      -1.10619195      -0.40533682
O       -0.48135416      -0.67520131       1.14302849
H        2.13758535      -0.91072380       0.46706461
H        2.13805376       0.42762502      -0.68714528
H        1.14624824      -1.00630109      -1.00053919
H        0.73305542       0.96964431       1.31642048
H       -1.16487376       1.85019488       0.16971720
H       -0.37566630       1.29088702      -1.33392503
H       -1.41080730      -1.65907246       0.69549701
13
Frame=15 idx=006303 GeodesicLength=1.0328256899707435 rxn_smarts="[C:1]([C@@:2]1([H:10])[C:3]([H:11])([H:12])/[C:4](=[N:5]/[H:13])[O:6]1)([H:7])([H:8])[H:9]>>[C:1]([C@@:2]([C:3]([C:4]#[N:5])([H:11])[H:12])([O:6][H:13])[H:10])([H:7])([H:8])[H:9]"
C        1.51644850      -0.33541696      -0.22036446
C        0.37163584       0.29979957       0.53151810
C       -0.68760865       1.00930694      -0.33168376
C       -1.59761630      -0.14833086      -0.36114592
N       -2.33219479      -1.09938213      -0.40322896
O       -0.48339272      -0.67996767       1.13252385
H        2.13974583      -0.90855914       0.46653506
H        2.14001143       0.43108471      -0.68547570
H        1.15110717      -1.00349257      -1.00370223
H        0.72922150       0.96448621       1.31877144
H       -1.16495254       1.85101494       0.16740519
H       -0.36933935       1.29428536      -1.33311209
H       -1.41306592      -1.67482841       0.72195947
13
Frame=16 idx=006303 GeodesicLength=1.1014089207997444 rxn_smarts="[C:1]([C@@:2]1([H:10])[C:3]([H:11])([H:12])/[C:4](=[N:5]/[H:13])[O:6]1)([H:7])([H:8])[H:9]>>[C:1]([C@@:2]([C:3]([C:4]#[N:5])([H:11])[H:12])([O:6][H:13])[H:10])([H:7])([H:8])[H:9]"
C        1.51857190      -0.33380167      -0.22151138
C        0.37183127       0.29975799       0.52786980
C       -0.68635873       1.01055921      -0.33331710
C       -1.59955287      -0.14474858      -0.37223632
N       -2.34045600      -1.09277280      -0.40179280
O       -0.48559730      -0.68489552       1.12162465
H        2.14173851      -0.90656338       0.46585763
H        2.14194552       0.43455174      -0.68373810
H        1.15588995      -1.00056592      -1.00708474
H        0.72522693       0.95903423       1.32116311
H       -1.16506606       1.85184245       0.16519364
H       -0.36293215       1.29800735      -1.33219889
H       -1.41524098      -1.69040510       0.75017049
