11
Frame=0 idx=000912 GeodesicLength=0.0 rxn_smarts="[N:1]([c:2]1[n:3][n:4]([H:9])[c:5]([H:10])[c:6]1[H:11])([H:7])[H:8]>>[N:1]([C:2]1=[C:6]([H:11])[C:5]([H:9])([H:10])[N:4]=[N:3]1)([H:7])[H:8]"
N       -1.94149172      -0.39069247       0.25254055
C       -0.59407386      -0.24489968       0.02640004
N        0.16443148      -1.34157025      -0.18425837
N        1.41275586      -0.97422219      -0.37774407
C        1.47409729       0.43690281      -0.18122144
C        0.17972422       0.90571653       0.05755732
H       -2.52233127       0.38910545       0.00132109
H       -2.30686621      -1.28302405      -0.03653485
H        1.89941727      -0.38566435       0.68970957
H        2.36439897       0.96743574      -0.48885767
H       -0.13006200       1.92091249       0.24108787
11
Frame=1 idx=000912 GeodesicLength=0.036722190600109526 rxn_smarts="[N:1]([c:2]1[n:3][n:4]([H:9])[c:5]([H:10])[c:6]1[H:11])([H:7])[H:8]>>[N:1]([C:2]1=[C:6]([H:11])[C:5]([H:9])([H:10])[N:4]=[N:3]1)([H:7])[H:8]"
N       -1.94445057      -0.38899151       0.25114530
C       -0.59599222      -0.24262380       0.02948566
N        0.16279668      -1.34006451      -0.18567544
N        1.40920831      -0.97028258      -0.37653515
C        1.47518410       0.43747485      -0.17221342
C        0.17921087       0.90603986       0.06747416
H       -2.52465950       0.38794376      -0.01053783
H       -2.30718003      -1.28392909      -0.03332897
H        1.92026106      -0.39801229       0.69074086
H        2.35784113       0.96950524      -0.49922581
H       -0.13221983       1.92294007       0.23867064
11
Frame=2 idx=000912 GeodesicLength=0.07341331918732293 rxn_smarts="[N:1]([c:2]1[n:3][n:4]([H:9])[c:5]([H:10])[c:6]1[H:11])([H:7])[H:8]>>[N:1]([C:2]1=[C:6]([H:11])[C:5]([H:9])([H:10])[N:4]=[N:3]1)([H:7])[H:8]"
N       -1.94732130      -0.38732785       0.24984841
C       -0.59798280      -0.24025230       0.03183139
N        0.16118693      -1.33848363      -0.18729904
N        1.40578838      -0.96632638      -0.37489865
C        1.47633893       0.43804054      -0.16296265
C        0.17860878       0.90641745       0.07684443
H       -2.52700786       0.38674536      -0.02161823
H       -2.30753856      -1.28474311      -0.03012488
H        1.94122442      -0.41049511       0.69147508
H        2.35106005       0.97153853      -0.50893707
H       -0.13435698       1.92488649       0.23584122
11
Frame=3 idx=000912 GeodesicLength=0.11012338398752394 rxn_smarts="[N:1]([c:2]1[n:3][n:4]([H:9])[c:5]([H:10])[c:6]1[H:11])([H:7])[H:8]>>[N:1]([C:2]1=[C:6]([H:11])[C:5]([H:9])([H:10])[N:4]=[N:3]1)([H:7])[H:8]"
N       -1.95024823      -0.38561508       0.24842485
C       -0.60000742      -0.23785233       0.03422604
N        0.15959908      -1.33690433      -0.18851224
N        1.40237908      -0.96237900      -0.37288315
C        1.47748496       0.43860418      -0.15361331
C        0.17794162       0.90681300       0.08616556
H       -2.52929463       0.38555313      -0.03282475
H       -2.30794754      -1.28545755      -0.02711514
H        1.96271061      -0.42305864       0.69155420
H        2.34380297       0.97356920      -0.51857800
H       -0.13642050       1.92672743       0.23315594
11
Frame=4 idx=000912 GeodesicLength=0.14684509628090975 rxn_smarts="[N:1]([c:2]1[n:3][n:4]([H:9])[c:5]([H:10])[c:6]1[H:11])([H:7])[H:8]>>[N:1]([C:2]1=[C:6]([H:11])[C:5]([H:9])([H:10])[N:4]=[N:3]1)([H:7])[H:8]"
N       -1.95333357      -0.38376975       0.24667975
C       -0.60203763      -0.23547914       0.03727819
N        0.15802980      -1.33537797      -0.18881141
N        1.39888686      -0.95845470      -0.37049396
C        1.47855922       0.43916715      -0.14428908
C        0.17722442       0.90718609       0.09579817
H       -2.53141176       0.38438988      -0.04491276
H       -2.30841165      -1.28604629      -0.02441957
H        1.98502631      -0.43561768       0.69065332
H        2.33584014       0.97558959      -0.52860582
H       -0.13837215       1.92841282       0.23112317
11
Frame=5 idx=000912 GeodesicLength=0.18356275207902875 rxn_smarts="[N:1]([c:2]1[n:3][n:4]([H:9])[c:5]([H:10])[c:6]1[H:11])([H:7])[H:8]>>[N:1]([C:2]1=[C:6]([H:11])[C:5]([H:9])([H:10])[N:4]=[N:3]1)([H:7])[H:8]"
N       -1.95639364      -0.38194532       0.24491550
C       -0.60413367      -0.23304305       0.03987047
N        0.15649656      -1.33384818      -0.18891959
N        1.39548607      -0.95457741      -0.36756959
C        1.47965414       0.43972080      -0.13486643
C        0.17640021       0.90761619       0.10488357
H       -2.53353189       0.38322795      -0.05651778
H       -2.30893411      -1.28652912      -0.02193943
H        2.00764131      -0.44815404       0.68924201
H        2.32757892       0.97752690      -0.53823426
H       -0.14026389       1.93000528       0.22913555
11
Frame=6 idx=000912 GeodesicLength=0.22029440371351 rxn_smarts="[N:1]([c:2]1[n:3][n:4]([H:9])[c:5]([H:10])[c:6]1[H:11])([H:7])[H:8]>>[N:1]([C:2]1=[C:6]([H:11])[C:5]([H:9])([H:10])[N:4]=[N:3]1)([H:7])[H:8]"
N       -1.95952793      -0.38005080       0.24297179
C       -0.60627621      -0.23058171       0.04252578
N        0.15498657      -1.33235553      -0.18845412
N        1.39209099      -0.95075099      -0.36417229
C        1.48072610       0.44027062      -0.12541735
C        0.17549259       0.90807350       0.11382531
H       -2.53557921       0.38206979      -0.06839937
H       -2.30952095      -1.28691319      -0.01964517
H        2.03083934      -0.46065824       0.68700384
H        2.31884763       0.97939725      -0.54779867
H       -0.14207891       1.93149930       0.22756024
11
Frame=7 idx=000912 GeodesicLength=0.25705338770118247 rxn_smarts="[N:1]([c:2]1[n:3][n:4]([H:9])[c:5]([H:10])[c:6]1[H:11])([H:7])[H:8]>>[N:1]([C:2]1=[C:6]([H:11])[C:5]([H:9])([H:10])[N:4]=[N:3]1)([H:7])[H:8]"
N       -1.96284826      -0.37798358       0.24062459
C       -0.60843436      -0.22816175       0.04593644
N        0.15348631      -1.33096310      -0.18684268
N        1.38858449      -0.94698280      -0.36032942
C        1.48170940       0.44082427      -0.11604427
C        0.17454136       0.90849893       0.12313969
H       -2.53739260       0.38093601      -0.08143988
H       -2.31019072      -1.28716260      -0.01764329
H        2.05498027      -0.47307919       0.68352067
H        2.30935422       0.98122351      -0.55778181
H       -0.14379010       1.93285030       0.22685997
11
Frame=8 idx=000912 GeodesicLength=0.2938292226497345 rxn_smarts="[N:1]([c:2]1[n:3][n:4]([H:9])[c:5]([H:10])[c:6]1[H:11])([H:7])[H:8]>>[N:1]([C:2]1=[C:6]([H:11])[C:5]([H:9])([H:10])[N:4]=[N:3]1)([H:7])[H:8]"
N       -1.96625528      -0.37583037       0.23804624
C       -0.61064494      -0.22572743       0.04948622
N        0.15201010      -1.32964067      -0.18449364
N        1.38507156      -0.94329368      -0.35594975
C        1.48265471       0.44137372      -0.10667861
C        0.17350591       0.90894361       0.13236928
H       -2.53907928       0.37980995      -0.09487969
H       -2.31094006      -1.28729370      -0.01587876
H        2.07976993      -0.48540417       0.67902119
H        2.29935275       0.98294720      -0.56772207
H       -0.14544541       1.93411555       0.22667959
11
Frame=9 idx=000912 GeodesicLength=0.33060141273911464 rxn_smarts="[N:1]([c:2]1[n:3][n:4]([H:9])[c:5]([H:10])[c:6]1[H:11])([H:7])[H:8]>>[N:1]([C:2]1=[C:6]([H:11])[C:5]([H:9])([H:10])[N:4]=[N:3]1)([H:7])[H:8]"
N       -1.96969008      -0.37364297       0.23534327
C       -0.61292570      -0.22324650       0.05280532
N        0.15055160      -1.32835800      -0.18167290
N        1.38159769      -0.93968049      -0.35098741
C        1.48358825       0.44192276      -0.09726619
C        0.17237143       0.90943249       0.14125307
H       -2.54071338       0.37867126      -0.10829329
H       -2.31176254      -1.28732894      -0.01427775
H        2.10502494      -0.49763562       0.67362864
H        2.28902248       0.98453722      -0.57732218
H       -0.14706470       1.93532880       0.22678941
11
Frame=10 idx=000912 GeodesicLength=0.36736318485817626 rxn_smarts="[N:1]([c:2]1[n:3][n:4]([H:9])[c:5]([H:10])[c:6]1[H:11])([H:7])[H:8]>>[N:1]([C:2]1=[C:6]([H:11])[C:5]([H:9])([H:10])[N:4]=[N:3]1)([H:7])[H:8]"
N       -1.97304730      -0.37152872       0.23275065
C       -0.61530362      -0.22065472       0.05522658
N        0.14911048      -1.32705605      -0.17896927
N        1.37826226      -0.93613539      -0.34542015
C        1.48455920       0.44247535      -0.08765972
C        0.17110612       0.91001949       0.14936963
H       -2.54247945       0.37750274      -0.12080768
H       -2.31263423      -1.28731678      -0.01272699
H        2.13042106      -0.50984383       0.66765504
H        2.27870226       0.98597277      -0.58601324
H       -0.14869678       1.93656513       0.22659514
11
Frame=11 idx=000912 GeodesicLength=0.4040655208404921 rxn_smarts="[N:1]([c:2]1[n:3][n:4]([H:9])[c:5]([H:10])[c:6]1[H:11])([H:7])[H:8]>>[N:1]([C:2]1=[C:6]([H:11])[C:5]([H:9])([H:10])[N:4]=[N:3]1)([H:7])[H:8]"
N       -1.97619428      -0.36961593       0.23057861
C       -0.61780246      -0.21784940       0.05591784
N        0.14769468      -1.32560944      -0.17721020
N        1.37519410      -0.93261684      -0.33926268
C        1.48562556       0.44302112      -0.07763935
C        0.16966738       0.91077601       0.15620126
H       -2.54464647       0.37625682      -0.13137289
H       -2.31349764      -1.28733941      -0.01098830
H        2.15551830      -0.52218444       0.66152777
H        2.26883741       0.98723740      -0.59306652
H       -0.15039657       1.93792411       0.22531447
11
Frame=12 idx=000912 GeodesicLength=0.440769130312815 rxn_smarts="[N:1]([c:2]1[n:3][n:4]([H:9])[c:5]([H:10])[c:6]1[H:11])([H:7])[H:8]>>[N:1]([C:2]1=[C:6]([H:11])[C:5]([H:9])([H:10])[N:4]=[N:3]1)([H:7])[H:8]"
N       -1.97930616      -0.36775171       0.22846996
C       -0.62039039      -0.21493642       0.05585388
N        0.14628665      -1.32414834      -0.17546574
N        1.37223057      -0.92917281      -0.33248855
C        1.48669609       0.44357000      -0.06741543
C        0.16810111       0.91162126       0.16243835
H       -2.54698860       0.37498522      -0.14128779
H       -2.31440025      -1.28733668      -0.00927571
H        2.18086816      -0.53450026       0.65467137
H        2.25901006       0.98834768      -0.59930247
H       -0.15210723       1.93932207       0.22380212
11
Frame=13 idx=000912 GeodesicLength=0.4774772909665042 rxn_smarts="[N:1]([c:2]1[n:3][n:4]([H:9])[c:5]([H:10])[c:6]1[H:11])([H:7])[H:8]>>[N:1]([C:2]1=[C:6]([H:11])[C:5]([H:9])([H:10])[N:4]=[N:3]1)([H:7])[H:8]"
N       -1.98248527      -0.36584007       0.22618619
C       -0.62304306      -0.21197750       0.05565259
N        0.14488858      -1.32274531      -0.17310421
N        1.36927971      -0.92583248      -0.32503114
C        1.48771318       0.44412220      -0.05710473
C        0.16643613       0.91249732       0.16854152
H       -2.54933598       0.37372275      -0.15135860
H       -2.31536734      -1.28725411      -0.00777076
H        2.20680231      -0.54668215       0.64665413
H        2.24891424       0.98928524      -0.60525333
H       -0.15380250       1.94070411       0.22258834
11
Frame=14 idx=000912 GeodesicLength=0.5141676116303094 rxn_smarts="[N:1]([c:2]1[n:3][n:4]([H:9])[c:5]([H:10])[c:6]1[H:11])([H:7])[H:8]>>[N:1]([C:2]1=[C:6]([H:11])[C:5]([H:9])([H:10])[N:4]=[N:3]1)([H:7])[H:8]"
N       -1.98562142      -0.36399254       0.22398433
C       -0.62577697      -0.20890763       0.05467195
N        0.14349531      -1.32131333      -0.17082146
N        1.36643868      -0.92256980      -0.31688538
C        1.48872228       0.44467938      -0.04652426
C        0.16464000       0.91346055       0.17409400
H       -2.55188951       0.37244313      -0.16070541
H       -2.31636058      -1.28715546      -0.00631412
H        2.23296217      -0.55883700       0.63781299
H        2.23891776       0.99004876      -0.61031970
H       -0.15552770       1.94214394       0.22100708
11
Frame=15 idx=000912 GeodesicLength=0.5508689167908288 rxn_smarts="[N:1]([c:2]1[n:3][n:4]([H:9])[c:5]([H:10])[c:6]1[H:11])([H:7])[H:8]>>[N:1]([C:2]1=[C:6]([H:11])[C:5]([H:9])([H:10])[N:4]=[N:3]1)([H:7])[H:8]"
N       -1.98882574      -0.36209810       0.22160841
C       -0.62856793      -0.20579583       0.05358927
N        0.14210310      -1.31993546      -0.16794613
N        1.36360919      -0.91941690      -0.30798213
C        1.48967197       0.44524328      -0.03579005
C        0.16274421       0.91445142       0.17958729
H       -2.55445026       0.37117794      -0.17022198
H       -2.31741592      -1.28698145      -0.00506554
H        2.25970109      -0.57085725       0.62765066
H        2.22869124       0.99062951      -0.61503464
H       -0.15726096       1.94358284       0.21960486
11
Frame=16 idx=000912 GeodesicLength=0.5875680699356881 rxn_smarts="[N:1]([c:2]1[n:3][n:4]([H:9])[c:5]([H:10])[c:6]1[H:11])([H:7])[H:8]>>[N:1]([C:2]1=[C:6]([H:11])[C:5]([H:9])([H:10])[N:4]=[N:3]1)([H:7])[H:8]"
N       -1.99217075      -0.36008066       0.21884555
C       -0.63139932      -0.20269308       0.05284621
N        0.14071195      -1.31868399      -0.16390502
N        1.36073049      -0.91641562      -0.29818322
C        1.49052947       0.44581984      -0.02501127
C        0.16077570       0.91542055       0.18537151
H       -2.55684751       0.36996091      -0.18053180
H       -2.31856457      -1.28667526      -0.00420998
H        2.28724859      -0.58260111       0.61576137
H        2.21796468       0.99098309      -0.61985013
H       -0.15897874       1.94496533       0.21886678
