17
Frame=0 idx=011433 GeodesicLength=0.0 rxn_smarts="[C:1]1([H:8])([H:9])[C:2]([H:10])([H:11])[C:3]1([C@@:4]1([H:13])[C:5]([H:14])([H:15])[C:6]([H:16])([H:17])[O:7]1)[H:12]>>[C:1]1([H:8])([H:9])[C:2]([H:10])([H:11])[C:3]1([C@@:4]1([H:13])[C:5]([H:14])=[C:6]([H:17])[O:7]1)[H:12].[H:15][H:16]"
C       -1.91332617      -0.15171626       1.20149702
C       -1.68017671       0.68799633      -0.02184145
C       -1.03714374      -0.65689702       0.09685684
C        0.43634863      -0.82028836       0.27433833
C        1.42480330      -0.36133706      -0.84377918
C        1.71842857       0.68326049       0.07889248
O        1.01595666       0.27601454       1.11297448
H       -1.43378539       0.16719033       2.11761563
H       -2.88065760      -0.61697877       1.33353701
H       -2.48417924       0.79897407      -0.73618942
H       -1.05795456       1.56649282       0.08909882
H       -1.44543549      -1.44579032      -0.52550980
H        0.69788205      -1.77407131       0.73169488
H        2.19426444      -1.09845377      -1.04636786
H        1.34525824       0.14918128      -1.86536093
H        2.90894060       0.94246722      -2.02039846
H        2.19077639       1.65395580       0.02294166
17
Frame=1 idx=011433 GeodesicLength=0.08521710291578814 rxn_smarts="[C:1]1([H:8])([H:9])[C:2]([H:10])([H:11])[C:3]1([C@@:4]1([H:13])[C:5]([H:14])([H:15])[C:6]([H:16])([H:17])[O:7]1)[H:12]>>[C:1]1([H:8])([H:9])[C:2]([H:10])([H:11])[C:3]1([C@@:4]1([H:13])[C:5]([H:14])=[C:6]([H:17])[O:7]1)[H:12].[H:15][H:16]"
C       -1.91013724      -0.14540800       1.19560825
C       -1.66668396       0.68967687      -0.02890564
C       -1.03169141      -0.65847759       0.09648023
C        0.44055385      -0.82616422       0.28404042
C        1.42947188      -0.37911587      -0.83437635
C        1.72746112       0.67482230       0.07732250
O        1.02306631       0.26811226       1.11798821
H       -1.43195298       0.17264733       2.11275362
H       -2.88056171      -0.60512817       1.32470299
H       -2.46583700       0.80321920      -0.74833153
H       -1.04069673       1.56520135       0.08421939
H       -1.44080918      -1.44649892      -0.52647707
H        0.69513510      -1.78004398       0.74570630
H        2.19651299      -1.11526324      -1.04856289
H        1.33776987       0.14291183      -1.87367349
H        2.83833738       0.98337198      -2.01551599
H        2.18006171       1.65613687       0.03702106
17
Frame=2 idx=011433 GeodesicLength=0.17058916980453104 rxn_smarts="[C:1]1([H:8])([H:9])[C:2]([H:10])([H:11])[C:3]1([C@@:4]1([H:13])[C:5]([H:14])([H:15])[C:6]([H:16])([H:17])[O:7]1)[H:12]>>[C:1]1([H:8])([H:9])[C:2]([H:10])([H:11])[C:3]1([C@@:4]1([H:13])[C:5]([H:14])=[C:6]([H:17])[O:7]1)[H:12].[H:15][H:16]"
C       -1.90682343      -0.13924861       1.18965249
C       -1.65330879       0.69119261      -0.03599731
C       -1.02610997      -0.66002705       0.09604031
C        0.44486701      -0.83162312       0.29359719
C        1.43419147      -0.39629685      -0.82500066
C        1.73614536       0.66711668       0.07546761
O        1.03010475       0.26069667       1.12287916
H       -1.43004375       0.17806836       2.10780792
H       -2.88019610      -0.59362733       1.31581360
H       -2.44762619       0.80707670      -0.76044832
H       -1.02380803       1.56389318       0.07932396
H       -1.43588411      -1.44726259      -0.52750762
H        0.69268819      -1.78547996       0.75957671
H        2.19854625      -1.13142579      -1.05125724
H        1.32927307       0.13777270      -1.88241533
H        2.76742559       1.02148610      -2.00904380
H        2.17055870       1.65768830       0.05151135
17
Frame=3 idx=011433 GeodesicLength=0.2560646528475221 rxn_smarts="[C:1]1([H:8])([H:9])[C:2]([H:10])([H:11])[C:3]1([C@@:4]1([H:13])[C:5]([H:14])([H:15])[C:6]([H:16])([H:17])[O:7]1)[H:12]>>[C:1]1([H:8])([H:9])[C:2]([H:10])([H:11])[C:3]1([C@@:4]1([H:13])[C:5]([H:14])=[C:6]([H:17])[O:7]1)[H:12].[H:15][H:16]"
C       -1.90339690      -0.13324177       1.18363372
C       -1.64004490       0.69255753      -0.04310033
C       -1.02040893      -0.66154342       0.09554069
C        0.44927843      -0.83668524       0.30302040
C        1.43897382      -0.41291245      -0.81563196
C        1.74450322       0.66009510       0.07335749
O        1.03706942       0.25374172       1.12766650
H       -1.42807051       0.18343210       2.10278814
H       -2.87958127      -0.58247429       1.30686400
H       -2.42954048       0.81058206      -0.77252231
H       -1.00727017       1.56257631       0.07444098
H       -1.43067621      -1.44806694      -0.52861011
H        0.69051493      -1.79040793       0.77331753
H        2.20034244      -1.14697081      -1.05443800
H        1.31977228       0.13377879      -1.89155205
H        2.69642628       1.05683652      -2.00103266
H        2.16210854       1.65870272       0.06625796
17
Frame=4 idx=011433 GeodesicLength=0.3416439580775136 rxn_smarts="[C:1]1([H:8])([H:9])[C:2]([H:10])([H:11])[C:3]1([C@@:4]1([H:13])[C:5]([H:14])([H:15])[C:6]([H:16])([H:17])[O:7]1)[H:12]>>[C:1]1([H:8])([H:9])[C:2]([H:10])([H:11])[C:3]1([C@@:4]1([H:13])[C:5]([H:14])=[C:6]([H:17])[O:7]1)[H:12].[H:15][H:16]"
C       -1.89986721      -0.12738776       1.17755876
C       -1.62688723       0.69378155      -0.05020211
C       -1.01459566      -0.66302724       0.09498579
C        0.45378063      -0.84137082       0.31232103
C        1.44382820      -0.42899834      -0.80625477
C        1.75255899       0.65370878       0.07101162
O        1.04396128       0.24722528       1.13236194
H       -1.42604083       0.18872673       2.09770399
H       -2.87873366      -0.57166367       1.29785686
H       -2.41157802       0.81376240      -0.78454004
H       -0.99106709       1.56125575       0.06958863
H       -1.42520036      -1.44890440      -0.52978575
H        0.68859319      -1.79485402       0.78694258
H        2.20187242      -1.16193234      -1.05810758
H        1.30925912       0.13096450      -1.90106034
H        2.62557040       1.08945045      -1.99149314
H        2.15454586       1.65926315       0.08111254
17
Frame=5 idx=011433 GeodesicLength=0.4272967550091005 rxn_smarts="[C:1]1([H:8])([H:9])[C:2]([H:10])([H:11])[C:3]1([C@@:4]1([H:13])[C:5]([H:14])([H:15])[C:6]([H:16])([H:17])[O:7]1)[H:12]>>[C:1]1([H:8])([H:9])[C:2]([H:10])([H:11])[C:3]1([C@@:4]1([H:13])[C:5]([H:14])=[C:6]([H:17])[O:7]1)[H:12].[H:15][H:16]"
C       -1.89623910      -0.12168718       1.17142942
C       -1.61382475       0.69487656      -0.05729044
C       -1.00867575      -0.66447674       0.09437972
C        0.45836703      -0.84569853       0.32150756
C        1.44876549      -0.44458294      -0.79685378
C        1.76034561       0.64790494       0.06845987
O        1.05078261       0.24112145       1.13698154
H       -1.42396081       0.19393825       2.09256141
H       -2.87766425      -0.56118942       1.28878594
H       -2.39372005       0.81664356      -0.79648584
H       -0.97517806       1.55993847       0.06478717
H       -1.41946726      -1.44976426      -0.53103779
H        0.68690061      -1.79884548       0.80045764
H        2.20310346      -1.17634323      -1.06227007
H        1.29772714       0.12935944      -1.91090139
H        2.55505245       1.11933434      -1.98043407
H        2.14768564       1.65947078       0.09592311
17
Frame=6 idx=011433 GeodesicLength=0.5130306029925219 rxn_smarts="[C:1]1([H:8])([H:9])[C:2]([H:10])([H:11])[C:3]1([C@@:4]1([H:13])[C:5]([H:14])([H:15])[C:6]([H:16])([H:17])[O:7]1)[H:12]>>[C:1]1([H:8])([H:9])[C:2]([H:10])([H:11])[C:3]1([C@@:4]1([H:13])[C:5]([H:14])=[C:6]([H:17])[O:7]1)[H:12].[H:15][H:16]"
C       -1.89252211      -0.11614075       1.16526010
C       -1.60086543       0.69584358      -0.06435546
C       -1.00265853      -0.66589850       0.09373247
C        0.46303080      -0.84968382       0.33058827
C        1.45378243      -0.45969268      -0.78742302
C        1.76787594       0.64264897       0.06570508
O        1.05753271       0.23541903       1.14152672
H       -1.42183631       0.19906500       2.08737347
H       -2.87638786      -0.55104920       1.27967131
H       -2.37598263       0.81923422      -0.80834847
H       -0.95960404       1.55862405       0.06004228
H       -1.41349163      -1.45065257      -0.53235488
H        0.68542527      -1.80239965       0.81387482
H        2.20398935      -1.19022502      -1.06694963
H        1.28513496       0.12901607      -1.92106623
H        2.48519989       1.14649976      -1.96785465
H        2.14137719       1.65939150       0.11057783
17
Frame=7 idx=011433 GeodesicLength=0.598871035954504 rxn_smarts="[C:1]1([H:8])([H:9])[C:2]([H:10])([H:11])[C:3]1([C@@:4]1([H:13])[C:5]([H:14])([H:15])[C:6]([H:16])([H:17])[O:7]1)[H:12]>>[C:1]1([H:8])([H:9])[C:2]([H:10])([H:11])[C:3]1([C@@:4]1([H:13])[C:5]([H:14])=[C:6]([H:17])[O:7]1)[H:12].[H:15][H:16]"
C       -1.88872470      -0.11074862       1.15905691
C       -1.58800525       0.69668228      -0.07139333
C       -0.99654825      -0.66729898       0.09305528
C        0.46776901      -0.85334408       0.33957775
C        1.45888721      -0.47435576      -0.77794563
C        1.77517166       0.63790062       0.06276526
O        1.06421311       0.23010180       1.14600958
H       -1.41967651       0.20410505       2.08214706
H       -2.87491868      -0.54123760       1.27051676
H       -2.35836098       0.82154074      -0.82012659
H       -0.94433522       1.55731059       0.05535650
H       -1.40728080      -1.45157422      -0.53372560
H        0.68415527      -1.80553666       0.82721166
H        2.20447663      -1.20359265      -1.07217666
H        1.27141738       0.12999945      -1.93152693
H        2.41628235       1.17094864      -1.95378160
H        2.13547778       1.65909941       0.12497958
17
Frame=8 idx=011433 GeodesicLength=0.6847862526057804 rxn_smarts="[C:1]1([H:8])([H:9])[C:2]([H:10])([H:11])[C:3]1([C@@:4]1([H:13])[C:5]([H:14])([H:15])[C:6]([H:16])([H:17])[O:7]1)[H:12]>>[C:1]1([H:8])([H:9])[C:2]([H:10])([H:11])[C:3]1([C@@:4]1([H:13])[C:5]([H:14])=[C:6]([H:17])[O:7]1)[H:12].[H:15][H:16]"
C       -1.88485942      -0.10551303       1.15282913
C       -1.57525022       0.69739155      -0.07839884
C       -0.99035216      -0.66868596       0.09235793
C        0.47257605      -0.85669254       0.34848702
C        1.46408086      -0.48859184      -0.76841016
C        1.78224282       0.63363028       0.05965085
O        1.07082064       0.22515808       1.15043827
H       -1.41749302       0.20905535       2.07689174
H       -2.87327445      -0.53175353       1.26133343
H       -2.34086086       0.82356633      -0.83181738
H       -0.92937283       1.55599587       0.05073208
H       -1.40084387      -1.45253670      -0.53513837
H        0.68308032      -1.80827215       0.84048127
H        2.20452215      -1.21646758      -1.07796167
H        1.25651910       0.13236279      -1.94225212
H        2.34858290       1.19270419      -1.93828802
H        2.12988201       1.65864890       0.13906484
17
Frame=9 idx=011433 GeodesicLength=0.7711003644834764 rxn_smarts="[C:1]1([H:8])([H:9])[C:2]([H:10])([H:11])[C:3]1([C@@:4]1([H:13])[C:5]([H:14])([H:15])[C:6]([H:16])([H:17])[O:7]1)[H:12]>>[C:1]1([H:8])([H:9])[C:2]([H:10])([H:11])[C:3]1([C@@:4]1([H:13])[C:5]([H:14])=[C:6]([H:17])[O:7]1)[H:12].[H:15][H:16]"
C       -1.88091453      -0.10037567       1.14652372
C       -1.56251336       0.69797666      -0.08544872
C       -0.98403517      -0.67007528       0.09163625
C        0.47747133      -0.85979363       0.35737904
C        1.46943958      -0.50255572      -0.75872490
C        1.78917143       0.62971519       0.05639561
O        1.07739173       0.22053787       1.15484648
H       -1.41529543       0.21399276       2.07155874
H       -2.87146665      -0.52249736       1.25204945
H       -2.32336890       0.82532178      -0.84353050
H       -0.91460494       1.55466884       0.04608191
H       -1.39415202      -1.45356607      -0.53658002
H        0.68216298      -1.81066236       0.85379164
H        2.20412711      -1.22901404      -1.08423442
H        1.24054120       0.13618664      -1.95315374
H        2.28133017       1.21222449      -1.92150440
H        2.12471545       1.65791589       0.15291388
17
Frame=10 idx=011433 GeodesicLength=0.8575465881933214 rxn_smarts="[C:1]1([H:8])([H:9])[C:2]([H:10])([H:11])[C:3]1([C@@:4]1([H:13])[C:5]([H:14])([H:15])[C:6]([H:16])([H:17])[O:7]1)[H:12]>>[C:1]1([H:8])([H:9])[C:2]([H:10])([H:11])[C:3]1([C@@:4]1([H:13])[C:5]([H:14])=[C:6]([H:17])[O:7]1)[H:12].[H:15][H:16]"
C       -1.87691508      -0.09538442       1.14019137
C       -1.54986262       0.69842053      -0.09248085
C       -0.97763414      -0.67147250       0.09091689
C        0.48243096      -0.86262171       0.36623298
C        1.47490929      -0.51616576      -0.74892916
C        1.79591642       0.62619336       0.05300225
O        1.08389046       0.21626213       1.15922954
H       -1.41309572       0.21886187       2.06619390
H       -2.86950898      -0.51354386       1.24272955
H       -2.30597006       0.82678508      -0.85518319
H       -0.90011136       1.55332452       0.04146720
H       -1.38723719      -1.45466417      -0.53803182
H        0.68141594      -1.81268704       0.86709422
H        2.20317979      -1.24111024      -1.09110626
H        1.22326850       0.14155027      -1.96423585
H        2.21562986       1.22916053      -1.90344130
H        2.11969393       1.65709141       0.16635054
17
Frame=11 idx=011433 GeodesicLength=0.944138085627891 rxn_smarts="[C:1]1([H:8])([H:9])[C:2]([H:10])([H:11])[C:3]1([C@@:4]1([H:13])[C:5]([H:14])([H:15])[C:6]([H:16])([H:17])[O:7]1)[H:12]>>[C:1]1([H:8])([H:9])[C:2]([H:10])([H:11])[C:3]1([C@@:4]1([H:13])[C:5]([H:14])=[C:6]([H:17])[O:7]1)[H:12].[H:15][H:16]"
C       -1.87287076      -0.09053543       1.13383496
C       -1.53729714       0.69870747      -0.09950340
C       -0.97115528      -0.67289533       0.09021655
C        0.48744786      -0.86519535       0.37507405
C        1.48049480      -0.52946445      -0.73899329
C        1.80248514       0.62302636       0.04948158
O        1.09031079       0.21232286       1.16360028
H       -1.41090595       0.22367971       2.06079676
H       -2.86741413      -0.50488466       1.23337823
H       -2.28865959       0.82793203      -0.86678878
H       -0.88588674       1.55194813       0.03686752
H       -1.38010629      -1.45585644      -0.53946720
H        0.68082565      -1.81436112       0.88042795
H        2.20160600      -1.25276677      -1.09860673
H        1.20462264       0.14855293      -1.97545209
H        2.15174128       1.24360278      -1.88420968
H        2.11476172       1.65618727       0.17934326
17
Frame=12 idx=011433 GeodesicLength=1.0308979690229965 rxn_smarts="[C:1]1([H:8])([H:9])[C:2]([H:10])([H:11])[C:3]1([C@@:4]1([H:13])[C:5]([H:14])([H:15])[C:6]([H:16])([H:17])[O:7]1)[H:12]>>[C:1]1([H:8])([H:9])[C:2]([H:10])([H:11])[C:3]1([C@@:4]1([H:13])[C:5]([H:14])=[C:6]([H:17])[O:7]1)[H:12].[H:15][H:16]"
C       -1.86879209      -0.08582529       1.12745298
C       -1.52481288       0.69882151      -0.10652868
C       -0.96460169      -0.67436019       0.08955130
C        0.49251808      -0.86753254       0.38392938
C        1.48620499      -0.54249036      -0.72888526
C        1.80888542       0.62017896       0.04584707
O        1.09664815       0.20871220       1.16797376
H       -1.40874204       0.22846307       2.05536345
H       -2.86519783      -0.49651121       1.22399418
H       -2.27142906       0.82873915      -0.87836799
H       -0.87192311       1.55052408       0.03225976
H       -1.37275984      -1.45716821      -0.54086053
H        0.68038102      -1.81569729       0.89383308
H        2.19934455      -1.26400256      -1.10675635
H        1.18451128       0.15729662      -1.98675548
H        2.08986580       1.25564432      -1.86393871
H        2.10989926       1.65520774       0.19188804
17
Frame=13 idx=011433 GeodesicLength=1.1178139613910525 rxn_smarts="[C:1]1([H:8])([H:9])[C:2]([H:10])([H:11])[C:3]1([C@@:4]1([H:13])[C:5]([H:14])([H:15])[C:6]([H:16])([H:17])[O:7]1)[H:12]>>[C:1]1([H:8])([H:9])[C:2]([H:10])([H:11])[C:3]1([C@@:4]1([H:13])[C:5]([H:14])=[C:6]([H:17])[O:7]1)[H:12].[H:15][H:16]"
C       -1.86468780      -0.08125019       1.12104287
C       -1.51240644       0.69874018      -0.11357419
C       -0.95797602      -0.67588909       0.08893934
C        0.49763843      -0.86965045       0.39282581
C        1.49205053      -0.55528353      -0.71857243
C        1.81512048       0.61761761       0.04210691
O        1.10289688       0.20542487       1.17236289
H       -1.40661755       0.23323482       2.04988678
H       -2.86287204      -0.48841455       1.21457570
H       -2.25426897       0.82916976      -0.88994710
H       -0.85821476       1.54903240       0.02760999
H       -1.36519771      -1.45863339      -0.54218007
H        0.68007405      -1.81670594       0.90735262
H        2.19630679      -1.27482350      -1.11558654
H        1.16282084       0.16789685      -1.99807258
H        2.03022790       1.26538632      -1.84275454
H        2.10510539       1.65414783       0.20398453
17
Frame=14 idx=011433 GeodesicLength=1.2049099864953503 rxn_smarts="[C:1]1([H:8])([H:9])[C:2]([H:10])([H:11])[C:3]1([C@@:4]1([H:13])[C:5]([H:14])([H:15])[C:6]([H:16])([H:17])[O:7]1)[H:12]>>[C:1]1([H:8])([H:9])[C:2]([H:10])([H:11])[C:3]1([C@@:4]1([H:13])[C:5]([H:14])=[C:6]([H:17])[O:7]1)[H:12].[H:15][H:16]"
C       -1.86056765      -0.07680498       1.11459969
C       -1.50007403       0.69843999      -0.12066237
C       -0.95127840      -0.67750486       0.08839752
C        0.50280811      -0.87156501       0.40179080
C        1.49804280      -0.56788056      -0.70802133
C        1.82119074       0.61531406       0.03826742
O        1.10905266       0.20245789       1.17678044
H       -1.40454764       0.23802131       2.04435756
H       -2.86045057      -0.48058496       1.20512139
H       -2.23716942       0.82918456      -0.90155936
H       -0.84475605       1.54745256       0.02287974
H       -1.35741539      -1.46028929      -0.54339356
H        0.67990004      -1.81739480       0.92103007
H        2.19241750      -1.28524407      -1.12512353
H        1.13942702       0.18047947      -2.00933960
H        1.97301038       1.27292625      -1.82077994
H        2.10040989       1.65299242       0.21565506
17
Frame=15 idx=011433 GeodesicLength=1.29220084812804 rxn_smarts="[C:1]1([H:8])([H:9])[C:2]([H:10])([H:11])[C:3]1([C@@:4]1([H:13])[C:5]([H:14])([H:15])[C:6]([H:16])([H:17])[O:7]1)[H:12]>>[C:1]1([H:8])([H:9])[C:2]([H:10])([H:11])[C:3]1([C@@:4]1([H:13])[C:5]([H:14])=[C:6]([H:17])[O:7]1)[H:12].[H:15][H:16]"
C       -1.85643822      -0.07248304       1.10811346
C       -1.48780438       0.69789166      -0.12782262
C       -0.94450514      -0.67923449       0.08794548
C        0.50802988      -0.87329448       0.41085589
C        1.50420164      -0.58032217      -0.69719121
C        1.82710170       0.61323479       0.03434139
O        1.11511197       0.19980622       1.18124468
H       -1.40254734       0.24285484       2.03876115
H       -2.85794515      -0.47300847       1.19562206
H       -2.22010889       0.82873399      -0.91324823
H       -0.83153444       1.54575921       0.01802064
H       -1.34940318      -1.46217956      -0.54446426
H        0.67985671      -1.81777289       0.93491458
H        2.18757108      -1.29525896      -1.13541072
H        1.11417402       0.19518754      -2.02046502
H        1.91839321       1.27836061      -1.79813830
H        2.09584653       1.65172521       0.22692103
17
Frame=16 idx=011433 GeodesicLength=1.3796948574984675 rxn_smarts="[C:1]1([H:8])([H:9])[C:2]([H:10])([H:11])[C:3]1([C@@:4]1([H:13])[C:5]([H:14])([H:15])[C:6]([H:16])([H:17])[O:7]1)[H:12]>>[C:1]1([H:8])([H:9])[C:2]([H:10])([H:11])[C:3]1([C@@:4]1([H:13])[C:5]([H:14])=[C:6]([H:17])[O:7]1)[H:12].[H:15][H:16]"
C       -1.85230567      -0.06827768       1.10157226
C       -1.47558597       0.69706482      -0.13508644
C       -0.93765199      -0.68110539       0.08760197
C        0.51330677      -0.87485557       0.42005126
C        1.51054625      -0.59264602      -0.68604255
C        1.83285592       0.61134913       0.03033902
O        1.12107163       0.19746595       1.18577279
H       -1.40063085       0.24776901       2.03308003
H       -2.85536619      -0.46567181       1.18606654
H       -2.20306501       0.82776573      -0.92506007
H       -0.81853756       1.54392630       0.01298179
H       -1.34115011      -1.46434947      -0.54535538
H        0.67994270      -1.81784717       0.94905361
H        2.18166777      -1.30486998      -1.14648263
H        1.08690664       0.21217443      -2.03134768
H        1.86652826       1.28178411      -1.77495933
H        2.09146742       1.65032360       0.23781481
