16
Frame=0 idx=006974 GeodesicLength=0.0 rxn_smarts="[C:1]([C:2]([C@@:3]([O:4][H:14])([C:5]([C:6]#[N:7])([H:15])[H:16])[H:13])([H:11])[H:12])([H:8])([H:9])[H:10]>>[C:1]([C:2]([C:3](=[O:4])[C:5]([C:6]#[N:7])([H:15])[H:16])([H:11])[H:13])([H:8])([H:9])[H:10].[H:12][H:14]"
C        2.08521010       0.11781569      -0.17966622
C        0.66783634       0.29719142       0.21676996
C       -0.41193370      -0.31872984      -0.55303294
O       -0.20355185      -1.52924146      -0.96751826
C       -1.84071596      -0.05972061      -0.02620281
C       -2.08163215       1.31424077       0.39454522
N       -2.20214150       2.40851829       0.71921644
H        2.41309933       0.98206134      -0.76565378
H        2.71584235       0.09325783       0.70990845
H        2.21297084      -0.79586811      -0.75658443
H        0.43363225       1.17468855       0.82165180
H        0.58621081      -1.31753645       1.18418754
H       -0.18356497       0.49763948      -1.34102451
H        0.35668979      -1.78990209       0.54051964
H       -2.00427340      -0.73762721       0.81443427
H       -2.54367834      -0.33678762      -0.81155041
16
Frame=1 idx=006974 GeodesicLength=0.0934839222364616 rxn_smarts="[C:1]([C:2]([C@@:3]([O:4][H:14])([C:5]([C:6]#[N:7])([H:15])[H:16])[H:13])([H:11])[H:12])([H:8])([H:9])[H:10]>>[C:1]([C:2]([C:3](=[O:4])[C:5]([C:6]#[N:7])([H:15])[H:16])([H:11])[H:13])([H:8])([H:9])[H:10].[H:12][H:14]"
C        2.08578277       0.12000906      -0.18684652
C        0.66780016       0.29407234       0.21753563
C       -0.41620749      -0.32254685      -0.55065280
O       -0.21075590      -1.53834271      -0.95213294
C       -1.84451185      -0.05973491      -0.02696329
C       -2.08665394       1.31623390       0.38645725
N       -2.21025149       2.41322607       0.70045614
H        2.41283756       0.99106713      -0.76267121
H        2.71941295       0.08027199       0.69995413
H        2.21755396      -0.78602605      -0.77513811
H        0.43334403       1.16155853       0.83589824
H        0.59431554      -1.31174655       1.18858850
H       -0.16365136       0.52186068      -1.32152468
H        0.35795861      -1.80729266       0.54138554
H       -2.01105234      -0.73168568       0.81795105
H       -2.54592122      -0.34092429      -0.81229693
16
Frame=2 idx=006974 GeodesicLength=0.18677816874467582 rxn_smarts="[C:1]([C:2]([C@@:3]([O:4][H:14])([C:5]([C:6]#[N:7])([H:15])[H:16])[H:13])([H:11])[H:12])([H:8])([H:9])[H:10]>>[C:1]([C:2]([C:3](=[O:4])[C:5]([C:6]#[N:7])([H:15])[H:16])([H:11])[H:13])([H:8])([H:9])[H:10].[H:12][H:14]"
C        2.08635025       0.12217724      -0.19397398
C        0.66779765       0.29099215       0.21829592
C       -0.42031866      -0.32616449      -0.54869631
O       -0.21793969      -1.54737444      -0.93651715
C       -1.84814865      -0.05978336      -0.02783889
C       -2.09159855       1.31810398       0.37838204
N       -2.21821080       2.41770391       0.68169776
H        2.41277697       0.99996156      -0.75938914
H        2.72292174       0.06707420       0.68980274
H        2.22194400      -0.77593115      -0.79376285
H        0.43316650       1.14844448       0.84976358
H        0.60222748      -1.30560368       1.19322828
H       -0.14432951       0.54613907      -1.30155072
H        0.35908788      -1.82480878       0.54230271
H       -2.01761346      -0.72579280       0.82127877
H       -2.54811315      -0.34513789      -0.81302276
16
Frame=3 idx=006974 GeodesicLength=0.27995484003257864 rxn_smarts="[C:1]([C:2]([C@@:3]([O:4][H:14])([C:5]([C:6]#[N:7])([H:15])[H:16])[H:13])([H:11])[H:12])([H:8])([H:9])[H:10]>>[C:1]([C:2]([C:3](=[O:4])[C:5]([C:6]#[N:7])([H:15])[H:16])([H:11])[H:13])([H:8])([H:9])[H:10].[H:12][H:14]"
C        2.08691085       0.12431936      -0.20105517
C        0.66783045       0.28794253       0.21906170
C       -0.42427020      -0.32960527      -0.54713051
O       -0.22510995      -1.55631994      -0.92068018
C       -1.85163135      -0.05986216      -0.02882508
C       -2.09646834       1.31986081       0.37030787
N       -2.22603808       2.42196258       0.66292517
H        2.41290619       1.00873847      -0.75581881
H        2.72637143       0.05366895       0.67943370
H        2.22614076      -0.76557991      -0.81245727
H        0.43309949       1.13535102       0.86326337
H        0.60995493      -1.29909223       1.19813935
H       -0.12557523       0.57048421      -1.28109276
H        0.36009935      -1.84250763       0.54323525
H       -2.02397072      -0.71993906       0.82442621
H       -2.55024959      -0.34942171      -0.81373284
16
Frame=4 idx=006974 GeodesicLength=0.37309695852092034 rxn_smarts="[C:1]([C:2]([C@@:3]([O:4][H:14])([C:5]([C:6]#[N:7])([H:15])[H:16])[H:13])([H:11])[H:12])([H:8])([H:9])[H:10]>>[C:1]([C:2]([C:3](=[O:4])[C:5]([C:6]#[N:7])([H:15])[H:16])([H:11])[H:13])([H:8])([H:9])[H:10].[H:12][H:14]"
C        2.08746143       0.12643598      -0.20809587
C        0.66789914       0.28491596       0.21984514
C       -0.42806648      -0.33289303      -0.54591759
O       -0.23227389      -1.56516288      -0.90463187
C       -1.85496572      -0.05996731      -0.02991406
C       -2.10126521       1.32151595       0.36222425
N       -2.23374927       2.42601692       0.64410497
H        2.41321401       1.01739631      -0.75196361
H        2.72976367       0.04005449       0.66882527
H        2.23014269      -0.75496127      -0.83122746
H        0.43314219       1.12228177       0.87641644
H        0.61750890      -1.29219765       1.20335785
H       -0.10736327       0.59490111      -1.26013741
H        0.36101774      -1.86045239       0.54413476
H       -2.03013870      -0.71411325       0.82740697
H       -2.55232722      -0.35377071      -0.81442777
16
Frame=5 idx=006974 GeodesicLength=0.4662523866038455 rxn_smarts="[C:1]([C:2]([C@@:3]([O:4][H:14])([C:5]([C:6]#[N:7])([H:15])[H:16])[H:13])([H:11])[H:12])([H:8])([H:9])[H:10]>>[C:1]([C:2]([C:3](=[O:4])[C:5]([C:6]#[N:7])([H:15])[H:16])([H:11])[H:13])([H:8])([H:9])[H:10].[H:12][H:14]"
C        2.08799802       0.12852816      -0.21509983
C        0.66800311       0.28190712       0.22065433
C       -0.43171261      -0.33604947      -0.54502389
O       -0.23943838      -1.57388736      -0.88838928
C       -1.85815780      -0.06009484      -0.03109959
C       -2.10598991       1.32308038       0.35411433
N       -2.24135261       2.42987921       0.62523015
H        2.41368906       1.02592926      -0.74783411
H        2.73309607       0.02624332       0.65796319
H        2.23394919      -0.74407197      -0.85006320
H        0.43329319       1.10924126       0.88923513
H        0.62489513      -1.28489105       1.20891016
H       -0.08966464       0.61937991      -1.23867652
H        0.36186706      -1.87871057       0.54495279
H       -2.03613033      -0.70830255       0.83023385
H       -2.55434453      -0.35818081      -0.81510750
16
Frame=6 idx=006974 GeodesicLength=0.5594957369210788 rxn_smarts="[C:1]([C:2]([C@@:3]([O:4][H:14])([C:5]([C:6]#[N:7])([H:15])[H:16])[H:13])([H:11])[H:12])([H:8])([H:9])[H:10]>>[C:1]([C:2]([C:3](=[O:4])[C:5]([C:6]#[N:7])([H:15])[H:16])([H:11])[H:13])([H:8])([H:9])[H:10].[H:12][H:14]"
C        2.08851673       0.13059797      -0.22207165
C        0.66814214       0.27891190       0.22150023
C       -0.43521478      -0.33909668      -0.54440815
O       -0.24661080      -1.58247728      -0.87196235
C       -1.86121422      -0.06023937      -0.03237018
C       -2.11064242       1.32456914       0.34596619
N       -2.24886707       2.43356300       0.60625696
H        2.41432377       1.03433720      -0.74342772
H        2.73636656       0.01222910       0.64682537
H        2.23755670      -0.73289589      -0.86897390
H        0.43355228       1.09623650       0.90173887
H        0.63212407      -1.27715437       1.21484108
H       -0.07244906       0.64391188      -1.21669133
H        0.36267604      -1.89735243       0.54561747
H       -2.04195937      -0.70249170       0.83292554
H       -2.55630056      -0.36264898      -0.81576642
16
Frame=7 idx=006974 GeodesicLength=0.6528150956598271 rxn_smarts="[C:1]([C:2]([C@@:3]([O:4][H:14])([C:5]([C:6]#[N:7])([H:15])[H:16])[H:13])([H:11])[H:12])([H:8])([H:9])[H:10]>>[C:1]([C:2]([C:3](=[O:4])[C:5]([C:6]#[N:7])([H:15])[H:16])([H:11])[H:13])([H:8])([H:9])[H:10].[H:12][H:14]"
C        2.08901263       0.13264931      -0.22901420
C        0.66831428       0.27592801       0.22238856
C       -0.43858064      -0.34205630      -0.54403341
O       -0.25379780      -1.59092123      -0.85536305
C       -1.86414267      -0.06039634      -0.03371718
C       -2.11522248       1.32599629       0.33775948
N       -2.25629910       2.43708304       0.58716873
H        2.41510906       1.04261807      -0.73874859
H        2.73956933      -0.00197872       0.63539730
H        2.24096204      -0.72142264      -0.88795312
H        0.43391742       1.08327328       0.91394257
H        0.63920541      -1.26896500       1.22117037
H       -0.05568142       0.66847624      -1.19416734
H        0.36346950      -1.91644577       0.54607059
H       -2.04763946      -0.69666395       0.83549917
H       -2.55819611      -0.36717428      -0.81639988
16
Frame=8 idx=006974 GeodesicLength=0.7462708861476841 rxn_smarts="[C:1]([C:2]([C@@:3]([O:4][H:14])([C:5]([C:6]#[N:7])([H:15])[H:16])[H:13])([H:11])[H:12])([H:8])([H:9])[H:10]>>[C:1]([C:2]([C:3](=[O:4])[C:5]([C:6]#[N:7])([H:15])[H:16])([H:11])[H:13])([H:8])([H:9])[H:10].[H:12][H:14]"
C        2.08948038       0.13468448      -0.23592933
C        0.66851744       0.27295600       0.22332687
C       -0.44181818      -0.34494911      -0.54385786
O       -0.26100611      -1.59920571      -0.83860588
C       -1.86695073      -0.06056061      -0.03512738
C       -2.11972905       1.32737682       0.32947699
N       -2.26366230       2.44045166       0.56793327
H        2.41604077       1.05076849      -0.73379387
H        2.74269593      -0.01638229       0.62366181
H        2.24416085      -0.70963729      -0.90700113
H        0.43438808       1.07036319       0.92585833
H        0.64614416      -1.26028709       1.22794554
H       -0.03932630       0.69305178      -1.17108926
H        0.36428048      -1.93607175       0.54622221
H       -2.05318237      -0.69080176       0.83797681
H       -2.56003306      -0.37175680      -0.81699712
16
Frame=9 idx=006974 GeodesicLength=0.8399418751695152 rxn_smarts="[C:1]([C:2]([C@@:3]([O:4][H:14])([C:5]([C:6]#[N:7])([H:15])[H:16])[H:13])([H:11])[H:12])([H:8])([H:9])[H:10]>>[C:1]([C:2]([C:3](=[O:4])[C:5]([C:6]#[N:7])([H:15])[H:16])([H:11])[H:13])([H:8])([H:9])[H:10].[H:12][H:14]"
C        2.08991721       0.13670531      -0.24281668
C        0.66874586       0.27001412       0.22429890
C       -0.44494222      -0.34778409      -0.54385255
O       -0.26823886      -1.60732332      -0.82170139
C       -1.86965079      -0.06073140      -0.03658278
C       -2.12416963       1.32872236       0.32110516
N       -2.27096770       2.44368398       0.54853870
H        2.41713119       1.05877817      -0.72855885
H        2.74572302      -0.03098322       0.61161724
H        2.24714752      -0.69753076      -0.92610815
H        0.43496326       1.05752481       0.93748672
H        0.65292373      -1.25105564       1.23521428
H       -0.02331897       0.71759097      -1.14744143
H        0.36514926      -1.95631417       0.54594785
H       -2.05859099      -0.68489046       0.84038885
H       -2.56182190      -0.37640667      -0.81753587
16
Frame=10 idx=006974 GeodesicLength=0.9337798492577738 rxn_smarts="[C:1]([C:2]([C@@:3]([O:4][H:14])([C:5]([C:6]#[N:7])([H:15])[H:16])[H:13])([H:11])[H:12])([H:8])([H:9])[H:10]>>[C:1]([C:2]([C:3](=[O:4])[C:5]([C:6]#[N:7])([H:15])[H:16])([H:11])[H:13])([H:8])([H:9])[H:10].[H:12][H:14]"
C        2.09031302       0.13871585      -0.24967702
C        0.66899859       0.26708692       0.22533532
C       -0.44795674      -0.35059491      -0.54396049
O       -0.27550456      -1.61526494      -0.80466142
C       -1.87224698      -0.06090104      -0.03807139
C       -2.12853355       1.33005028       0.31261492
N       -2.27822028       2.44679455       0.52892499
H        2.41835924       1.06665155      -0.72303801
H        2.74865176      -0.04578287       0.59923813
H        2.24991545      -0.68508128      -0.94527911
H        0.43564269       1.04476714       0.94885093
H        0.65957228      -1.24125774       1.24301075
H       -0.00765435       0.74210375      -1.12320891
H        0.36610669      -1.97726170       0.54517294
H       -2.06388394      -0.67890316       0.84275599
H       -2.56355934      -0.38112238      -0.81800762
16
Frame=11 idx=006974 GeodesicLength=1.0277186005591803 rxn_smarts="[C:1]([C:2]([C@@:3]([O:4][H:14])([C:5]([C:6]#[N:7])([H:15])[H:16])[H:13])([H:11])[H:12])([H:8])([H:9])[H:10]>>[C:1]([C:2]([C:3](=[O:4])[C:5]([C:6]#[N:7])([H:15])[H:16])([H:11])[H:13])([H:8])([H:9])[H:10].[H:12][H:14]"
C        2.09065953       0.14072115      -0.25650939
C        0.66927064       0.26417623       0.22644403
C       -0.45087194      -0.35340252      -0.54413972
O       -0.28280938      -1.62302688      -0.78749056
C       -1.87474787      -0.06106511      -0.03957812
C       -2.13281794       1.33137582       0.30398048
N       -2.28542098       2.44979991       0.50905430
H        2.41971802       1.07438835      -0.71722590
H        2.75146921      -0.06077707       0.58651338
H        2.25245635      -0.67227331      -0.96450777
H        0.43642453       1.03210234       0.95996545
H        0.66610021      -1.23086379       1.25136181
H        0.00770306       0.76657035      -1.09837907
H        0.36718820      -1.99899955       0.54380057
H       -2.06907130      -0.67281583       0.84510523
H       -2.56525034      -0.38591009      -0.81839472
16
Frame=12 idx=006974 GeodesicLength=1.121747658406326 rxn_smarts="[C:1]([C:2]([C@@:3]([O:4][H:14])([C:5]([C:6]#[N:7])([H:15])[H:16])[H:13])([H:11])[H:12])([H:8])([H:9])[H:10]>>[C:1]([C:2]([C:3](=[O:4])[C:5]([C:6]#[N:7])([H:15])[H:16])([H:11])[H:13])([H:8])([H:9])[H:10].[H:12][H:14]"
C        2.09094788       0.14272440      -0.26331334
C        0.66955680       0.26128617       0.22763233
C       -0.45369864      -0.35622905      -0.54434456
O       -0.29016022      -1.63060761      -0.77019305
C       -1.87716171      -0.06121974      -0.04108300
C       -2.13701847       1.33271358       0.29517793
N       -2.29257803       2.45271303       0.48886893
H        2.42120792       1.08198663      -0.71110508
H        2.75415718      -0.07598125       0.57342792
H        2.25475857      -0.65908196      -0.98379893
H        0.43730836       1.01954991       0.97084205
H        0.67251273      -1.21982342       1.26031681
H        0.02279186       0.79097695      -1.07293076
H        0.36843763      -2.02162579       0.54170487
H       -2.07416073      -0.66660288       0.84746968
H       -2.56690113      -0.39077895      -0.81867182
16
Frame=13 idx=006974 GeodesicLength=1.215766793995895 rxn_smarts="[C:1]([C:2]([C@@:3]([O:4][H:14])([C:5]([C:6]#[N:7])([H:15])[H:16])[H:13])([H:11])[H:12])([H:8])([H:9])[H:10]>>[C:1]([C:2]([C:3](=[O:4])[C:5]([C:6]#[N:7])([H:15])[H:16])([H:11])[H:13])([H:8])([H:9])[H:10].[H:12][H:14]"
C        2.09116822       0.14473020      -0.27008653
C        0.66984961       0.25842296       0.22890287
C       -0.45644840      -0.35909575      -0.54453625
O       -0.29756292      -1.63801268      -0.75276391
C       -1.87949755      -0.06136062      -0.04257251
C       -2.14113076       1.33407770       0.28617516
N       -2.29968658       2.45554667       0.46834362
H        2.42282445       1.08944024      -0.70467429
H        2.75669675      -0.09138341       0.55997417
H        2.25681249      -0.64549559      -1.00313705
H        0.43829154       1.00712367       0.98149007
H        0.67881582      -1.20809500       1.26989916
H        0.03765154       0.81530716      -1.04684817
H        0.36989613      -2.04523182       0.53877844
H       -2.07916191      -0.66023706       0.84987549
H       -2.56851844      -0.39573667      -0.81882026
16
Frame=14 idx=006974 GeodesicLength=1.3097604915092809 rxn_smarts="[C:1]([C:2]([C@@:3]([O:4][H:14])([C:5]([C:6]#[N:7])([H:15])[H:16])[H:13])([H:11])[H:12])([H:8])([H:9])[H:10]>>[C:1]([C:2]([C:3](=[O:4])[C:5]([C:6]#[N:7])([H:15])[H:16])([H:11])[H:13])([H:8])([H:9])[H:10].[H:12][H:14]"
C        2.09131145       0.14674027      -0.27682550
C        0.67014275       0.25559639       0.23026449
C       -0.45913232      -0.36202022      -0.54466913
O       -0.30502392      -1.64524404      -0.73519578
C       -1.88176330      -0.06148359      -0.04402209
C       -2.14515061       1.33548355       0.27694506
N       -2.30676212       2.45831216       0.44740920
H        2.42457677       1.09674342      -0.69790669
H        2.75906373      -0.10700999       0.54613549
H        2.25860278      -0.63148713      -1.02252588
H        0.43937436       0.99485613       0.99191780
H        0.68500949      -1.19561541       1.28017641
H        0.05232103       0.83954311      -1.02011245
H        0.37161783      -2.06992940       0.53484972
H       -2.08407693      -0.65368700       0.85236330
H       -2.57011099      -0.40079825      -0.81880396
16
Frame=15 idx=006974 GeodesicLength=1.4036234831798113 rxn_smarts="[C:1]([C:2]([C@@:3]([O:4][H:14])([C:5]([C:6]#[N:7])([H:15])[H:16])[H:13])([H:11])[H:12])([H:8])([H:9])[H:10]>>[C:1]([C:2]([C:3](=[O:4])[C:5]([C:6]#[N:7])([H:15])[H:16])([H:11])[H:13])([H:8])([H:9])[H:10].[H:12][H:14]"
C        2.09136736       0.14875801      -0.28352578
C        0.67042779       0.25281632       0.23172139
C       -0.46176193      -0.36502231      -0.54470385
O       -0.31254985      -1.65231132      -0.71746859
C       -1.88396732      -0.06158432      -0.04541406
C       -2.14907156       1.33694571       0.26745244
N       -2.31380651       2.46101972       0.42602153
H        2.42646774       1.10388759      -0.69079096
H        2.76123255      -0.12286358       0.53190095
H        2.26011497      -0.61703857      -1.04195379
H        0.44055506       0.98277068       1.00213491
H        0.69109727      -1.18233177       1.29118797
H        0.06683971       0.86366939      -0.99270372
H        0.37365362      -2.09581963       0.52977006
H       -2.08891151      -0.64691950       0.85496587
H       -2.57168740      -0.40597642      -0.81859438
16
Frame=16 idx=006974 GeodesicLength=1.4972974925918512 rxn_smarts="[C:1]([C:2]([C@@:3]([O:4][H:14])([C:5]([C:6]#[N:7])([H:15])[H:16])[H:13])([H:11])[H:12])([H:8])([H:9])[H:10]>>[C:1]([C:2]([C:3](=[O:4])[C:5]([C:6]#[N:7])([H:15])[H:16])([H:11])[H:13])([H:8])([H:9])[H:10].[H:12][H:14]"
C        2.09132493       0.15078440      -0.29018201
C        0.67069492       0.25009739       0.23327758
C       -0.46435006      -0.36812096      -0.54459830
O       -0.32014815      -1.65922590      -0.69955626
C       -1.88611798      -0.06165899      -0.04672420
C       -2.15288773       1.33847776       0.25766253
N       -2.32082879       2.46367893       0.40411266
H        2.42850914       1.11086117      -0.68330228
H        2.76317176      -0.13896523       0.51725723
H        2.26133007      -0.60212548      -1.06141462
H        0.44183232       0.97090135       1.01214875
H        0.69707856      -1.16817202       1.30298979
H        0.08125012       0.88767542      -0.96459516
H        0.37606609      -2.12302062       0.52335034
H       -2.09366639      -0.63989765       0.85772519
H       -2.57325882      -0.41128958      -0.81815122
