15
Frame=0 idx=001592 GeodesicLength=0.0 rxn_smarts="[C:1]([C:2]([C@@:3]([C:4]([H:13])([H:14])[H:15])([C:5]#[N:6])[H:12])([H:10])[H:11])([H:7])([H:8])[H:9]>>[C:1]([C:2]([C+:3]=[C:5]=[N-:6])([H:10])[H:11])([H:7])([H:8])[H:9].[C:4]([H:12])([H:13])([H:14])[H:15]"
C       -2.20651441       0.17167786       0.13616235
C       -0.82613401      -0.43197135      -0.17568106
C        0.14713561       0.32305365       0.67174734
C        2.15987917      -0.69212756      -0.08726274
C        0.51112413       1.60385597       0.19053879
N        0.77937949       2.69053321      -0.10115328
H       -2.43589646       0.09745546       1.19919605
H       -2.25660610       1.22166179      -0.15518119
H       -2.96824046      -0.37219341      -0.42277786
H       -0.82664972      -1.48433038       0.11229111
H       -0.64557520      -0.36159809      -1.25368001
H        1.39192480      -0.40916384       0.74789897
H        2.29947814      -1.76061078       0.06951466
H        1.83056950      -0.48098243      -1.09798189
H        3.04612548      -0.11526012       0.16636870
15
Frame=1 idx=001592 GeodesicLength=0.058996248929011695 rxn_smarts="[C:1]([C:2]([C@@:3]([C:4]([H:13])([H:14])[H:15])([C:5]#[N:6])[H:12])([H:10])[H:11])([H:7])([H:8])[H:9]>>[C:1]([C:2]([C+:3]=[C:5]=[N-:6])([H:10])[H:11])([H:7])([H:8])[H:9].[C:4]([H:12])([H:13])([H:14])[H:15]"
C       -2.20486875       0.16972488       0.13905168
C       -0.82581045      -0.43239629      -0.18143643
C        0.15410432       0.32261207       0.65702696
C        2.15425907      -0.68952754      -0.08328533
C        0.50513273       1.61030777       0.18459182
N        0.77236276       2.69561141      -0.11234367
H       -2.42728442       0.09630499       1.20368107
H       -2.25875379       1.21923297      -0.15329479
H       -2.96955763      -0.37582924      -0.41416195
H       -0.82406933      -1.48510347       0.10532180
H       -0.64852792      -0.35987606      -1.25972097
H        1.39703971      -0.40918852       0.78229204
H        2.27609036      -1.76287737       0.05520195
H        1.84767752      -0.46572739      -1.09894151
H        3.05220582      -0.13326821       0.17601734
15
Frame=2 idx=001592 GeodesicLength=0.11801729913944506 rxn_smarts="[C:1]([C:2]([C@@:3]([C:4]([H:13])([H:14])[H:15])([C:5]#[N:6])[H:12])([H:10])[H:11])([H:7])([H:8])[H:9]>>[C:1]([C:2]([C+:3]=[C:5]=[N-:6])([H:10])[H:11])([H:7])([H:8])[H:9].[C:4]([H:12])([H:13])([H:14])[H:15]"
C       -2.20304077       0.16778473       0.14223561
C       -0.82550254      -0.43268868      -0.18769353
C        0.16145789       0.32201058       0.64154344
C        2.14880528      -0.68697139      -0.07922580
C        0.49910469       1.61666227       0.17819119
N        0.76462954       2.70099164      -0.12307867
H       -2.41794262       0.09493827       1.20850701
H       -2.26089666       1.21687557      -0.15081365
H       -2.97089517      -0.37934451      -0.40499225
H       -0.82143468      -1.48582457       0.09754083
H       -0.65194069      -0.35779236      -1.26630683
H        1.40132667      -0.40890166       0.81547071
H        2.25266009      -1.76444653       0.04218904
H        1.86569685      -0.45154624      -1.09961130
H        3.05797211      -0.15174712       0.18604422
15
Frame=3 idx=001592 GeodesicLength=0.17706532214782258 rxn_smarts="[C:1]([C:2]([C@@:3]([C:4]([H:13])([H:14])[H:15])([C:5]#[N:6])[H:12])([H:10])[H:11])([H:7])([H:8])[H:9]>>[C:1]([C:2]([C+:3]=[C:5]=[N-:6])([H:10])[H:11])([H:7])([H:8])[H:9].[C:4]([H:12])([H:13])([H:14])[H:15]"
C       -2.20102836       0.16585930       0.14570048
C       -0.82521108      -0.43284729      -0.19440949
C        0.16915797       0.32128991       0.62533069
C        2.14355925      -0.68446204      -0.07511517
C        0.49305864       1.62291382       0.17134081
N        0.75620249       2.70665844      -0.13340765
H       -2.40789676       0.09338360       1.21364520
H       -2.26302350       1.21458378      -0.14777602
H       -2.97222766      -0.38275709      -0.39528542
H       -0.81874828      -1.48648308       0.08901786
H       -0.65580668      -0.35537773      -1.27338982
H        1.40471324      -0.40834028       0.84750763
H        2.22928288      -1.76538703       0.03028655
H        1.88456415      -0.43836265      -1.09995801
H        3.06340370      -0.17067166       0.19651235
15
Frame=4 idx=001592 GeodesicLength=0.2361617109135952 rxn_smarts="[C:1]([C:2]([C@@:3]([C:4]([H:13])([H:14])[H:15])([C:5]#[N:6])[H:12])([H:10])[H:11])([H:7])([H:8])[H:9]>>[C:1]([C:2]([C+:3]=[C:5]=[N-:6])([H:10])[H:11])([H:7])([H:8])[H:9].[C:4]([H:12])([H:13])([H:14])[H:15]"
C       -2.19884618       0.16394391       0.14943632
C       -0.82494712      -0.43287257      -0.20155128
C        0.17717874       0.32048695       0.60841810
C        2.13856656      -0.68200592      -0.07097498
C        0.48702869       1.62907200       0.16403525
N        0.74712642       2.71262336      -0.14338694
H       -2.39717890       0.09163995       1.21908090
H       -2.26514039       1.21235864      -0.14420721
H       -2.97356207      -0.38608796      -0.38506054
H       -0.81602530      -1.48708214       0.07981162
H       -0.66013906      -0.35264849      -1.28094231
H        1.40714889      -0.40753494       0.87848787
H        2.20604468      -1.76576852       0.01933751
H        1.90423748      -0.42610343      -1.09996275
H        3.06850754      -0.19002085       0.20747844
15
Frame=5 idx=001592 GeodesicLength=0.29527938088466743 rxn_smarts="[C:1]([C:2]([C@@:3]([C:4]([H:13])([H:14])[H:15])([C:5]#[N:6])[H:12])([H:10])[H:11])([H:7])([H:8])[H:9]>>[C:1]([C:2]([C+:3]=[C:5]=[N-:6])([H:10])[H:11])([H:7])([H:8])[H:9].[C:4]([H:12])([H:13])([H:14])[H:15]"
C       -2.19643654       0.16205094       0.15342345
C       -0.82466997      -0.43275709      -0.20908636
C        0.18548546       0.31964789       0.59079856
C        2.13380458      -0.67962676      -0.06683374
C        0.48099973       1.63510578       0.15621697
N        0.73730094       2.71890006      -0.15289042
H       -2.38576285       0.08976346       1.22476062
H       -2.26719343       1.21018444      -0.14013814
H       -2.97479051      -0.38933636      -0.37433041
H       -0.81321329      -1.48757964       0.06997957
H       -0.66488538      -0.34966091      -1.28890571
H        1.40856028      -0.40644711       0.90846984
H        2.18298393      -1.76563227       0.00923450
H        1.92462370      -0.41482222      -1.09959035
H        3.07319336      -0.20979021       0.21889161
15
Frame=6 idx=001592 GeodesicLength=0.35443039585991315 rxn_smarts="[C:1]([C:2]([C@@:3]([C:4]([H:13])([H:14])[H:15])([C:5]#[N:6])[H:12])([H:10])[H:11])([H:7])([H:8])[H:9]>>[C:1]([C:2]([C+:3]=[C:5]=[N-:6])([H:10])[H:11])([H:7])([H:8])[H:9].[C:4]([H:12])([H:13])([H:14])[H:15]"
C       -2.19377775       0.16018105       0.15767399
C       -0.82438051      -0.43249865      -0.21699197
C        0.19405609       0.31879571       0.57249504
C        2.12929207      -0.67733025      -0.06269867
C        0.47500832       1.64102237       0.14792891
N        0.72667689       2.72543684      -0.16213795
H       -2.37362160       0.08777420       1.23068298
H       -2.26915729       1.20805921      -0.13556767
H       -2.97588073      -0.39252567      -0.36306183
H       -0.81032031      -1.48797826       0.05953871
H       -0.67004995      -0.34641000      -1.29725069
H        1.40885195      -0.40513880       0.93751687
H        2.16011228      -1.76503750      -0.00026401
H        1.94576081      -0.40432747      -1.09880269
H        3.07742974      -0.23002278       0.23093897
15
Frame=7 idx=001592 GeodesicLength=0.4136620266430684 rxn_smarts="[C:1]([C:2]([C@@:3]([C:4]([H:13])([H:14])[H:15])([C:5]#[N:6])[H:12])([H:10])[H:11])([H:7])([H:8])[H:9]>>[C:1]([C:2]([C+:3]=[C:5]=[N-:6])([H:10])[H:11])([H:7])([H:8])[H:9].[C:4]([H:12])([H:13])([H:14])[H:15]"
C       -2.19089703       0.15833035       0.16216840
C       -0.82408989      -0.43210483      -0.22524547
C        0.20289952       0.31795510       0.55351522
C        2.12506951      -0.67514301      -0.05858439
C        0.46911388       1.64683478       0.13910348
N        0.71523005       2.73233616      -0.17101309
H       -2.36079183       0.08568122       1.23684013
H       -2.27104177       1.20598698      -0.13055588
H       -2.97687745      -0.39567543      -0.35127686
H       -0.80737336      -1.48829036       0.04855669
H       -0.67564793      -0.34292536      -1.30597234
H        1.40803328      -0.40358222       0.96571712
H        2.13749643      -1.76404878      -0.00921472
H        1.96761619      -0.39464446      -1.09760790
H        3.08126039      -0.25071015       0.24356962
15
Frame=8 idx=001592 GeodesicLength=0.47296723236573845 rxn_smarts="[C:1]([C:2]([C@@:3]([C:4]([H:13])([H:14])[H:15])([C:5]#[N:6])[H:12])([H:10])[H:11])([H:7])([H:8])[H:9]>>[C:1]([C:2]([C+:3]=[C:5]=[N-:6])([H:10])[H:11])([H:7])([H:8])[H:9].[C:4]([H:12])([H:13])([H:14])[H:15]"
C       -2.18774694       0.15651089       0.16689483
C       -0.82377167      -0.43157855      -0.23381972
C        0.21200117       0.31714699       0.53385738
C        2.12111513      -0.67308323      -0.05451019
C        0.46332200       1.65252754       0.12971548
N        0.70286097       2.73958762      -0.17946627
H       -2.34723936       0.08354105       1.24319744
H       -2.27279639       1.20396142      -0.12513650
H       -2.97770426      -0.39878994      -0.33896858
H       -0.80434816      -1.48850100       0.03708133
H       -0.68164488      -0.33925194      -1.31502652
H        1.40603646      -0.40175360       0.99311592
H        2.11515070      -1.76269881      -0.01774227
H        1.99015273      -0.38575459      -1.09597824
H        3.08461250      -0.27186386       0.25678592
15
Frame=9 idx=001592 GeodesicLength=0.5323123814517985 rxn_smarts="[C:1]([C:2]([C@@:3]([C:4]([H:13])([H:14])[H:15])([C:5]#[N:6])[H:12])([H:10])[H:11])([H:7])([H:8])[H:9]>>[C:1]([C:2]([C+:3]=[C:5]=[N-:6])([H:10])[H:11])([H:7])([H:8])[H:9].[C:4]([H:12])([H:13])([H:14])[H:15]"
C       -2.18432846       0.15471685       0.17183385
C       -0.82343099      -0.43093602      -0.24265344
C        0.22132568       0.31636416       0.51359221
C        2.11741112      -0.67111883      -0.05051446
C        0.45761273       1.65809194       0.11986781
N        0.68977248       2.74707248      -0.18757641
H       -2.33301730       0.08136483       1.24971316
H       -2.27440001       1.20197185      -0.11934085
H       -2.97832920      -0.40187590      -0.32619106
H       -0.80126637      -1.48861960       0.02519228
H       -0.68800932      -0.33542766      -1.32433963
H        1.40280323      -0.39966256       1.01975657
H        2.09315117      -1.76097749      -0.02597120
H        2.01329247      -0.37758363      -1.09391982
H        3.08741278      -0.29338044       0.27055100
15
Frame=10 idx=001592 GeodesicLength=0.5917120225207521 rxn_smarts="[C:1]([C:2]([C@@:3]([C:4]([H:13])([H:14])[H:15])([C:5]#[N:6])[H:12])([H:10])[H:11])([H:7])([H:8])[H:9]>>[C:1]([C:2]([C+:3]=[C:5]=[N-:6])([H:10])[H:11])([H:7])([H:8])[H:9].[C:4]([H:12])([H:13])([H:14])[H:15]"
C       -2.18062893       0.15295085       0.17697776
C       -0.82305909      -0.43018151      -0.25172232
C        0.23086629       0.31561653       0.49273215
C        2.11395260      -0.66925937      -0.04661012
C        0.45200123       1.66352544       0.10955315
N        0.67594548       2.75477242      -0.19533820
H       -2.31812449       0.07917490       1.25637087
H       -2.27583339       1.20001620      -0.11319387
H       -2.97872840      -0.40494110      -0.31294780
H       -0.79812626      -1.48864575       0.01293127
H       -0.69472457      -0.33147562      -1.33388317
H        1.39829074      -0.39728524       1.04568866
H        2.07152082      -1.75891390      -0.03400669
H        2.03701860      -0.37009368      -1.09141554
H        3.08962937      -0.31526017       0.28486386
15
Frame=11 idx=001592 GeodesicLength=0.6511697797005636 rxn_smarts="[C:1]([C:2]([C@@:3]([C:4]([H:13])([H:14])[H:15])([C:5]#[N:6])[H:12])([H:10])[H:11])([H:7])([H:8])[H:9]>>[C:1]([C:2]([C+:3]=[C:5]=[N-:6])([H:10])[H:11])([H:7])([H:8])[H:9].[C:4]([H:12])([H:13])([H:14])[H:15]"
C       -2.17662455       0.15121844       0.18231785
C       -0.82264460      -0.42932121      -0.26100432
C        0.24061985       0.31491104       0.47128223
C        2.11072833      -0.66751777      -0.04281222
C        0.44650725       1.66882067       0.09875727
N        0.66133005       2.76268113      -0.20271576
H       -2.30254585       0.07700096       1.26314964
H       -2.27706364       1.19809383      -0.10672039
H       -2.97886622      -0.40798951      -0.29923996
H       -0.79492624      -1.48857956       0.00033759
H       -0.70177359      -0.32742523      -1.34362805
H        1.39245361      -0.39458954       1.07094487
H        2.05027859      -1.75653775      -0.04193265
H        2.06131083      -0.36326787      -1.08845363
H        3.09121617      -0.33749763       0.29971753
15
Frame=12 idx=001592 GeodesicLength=0.7106915951223612 rxn_smarts="[C:1]([C:2]([C@@:3]([C:4]([H:13])([H:14])[H:15])([C:5]#[N:6])[H:12])([H:10])[H:11])([H:7])([H:8])[H:9]>>[C:1]([C:2]([C+:3]=[C:5]=[N-:6])([H:10])[H:11])([H:7])([H:8])[H:9].[C:4]([H:12])([H:13])([H:14])[H:15]"
C       -2.17229311       0.14952594       0.18784576
C       -0.82217657      -0.42836200      -0.27047805
C        0.25058516       0.31425116       0.44924743
C        2.10772713      -0.66590654      -0.03913541
C        0.44115063       1.67396987       0.08746435
N        0.64587660       2.77078619      -0.20966801
H       -2.28626743       0.07487216       1.27002983
H       -2.27805912       1.19620559      -0.09994476
H       -2.97870991      -0.41102291      -0.28506842
H       -0.79166583      -1.48842263      -0.01254989
H       -0.70913907      -0.32330569      -1.35354665
H        1.38524858      -0.39153693       1.09555131
H        2.02944262      -1.75387679      -0.04982807
H        2.08615259      -0.35709017      -1.08502164
H        3.09212773      -0.36008724       0.31510222
15
Frame=13 idx=001592 GeodesicLength=0.7702893305745653 rxn_smarts="[C:1]([C:2]([C@@:3]([C:4]([H:13])([H:14])[H:15])([C:5]#[N:6])[H:12])([H:10])[H:11])([H:7])([H:8])[H:9]>>[C:1]([C:2]([C+:3]=[C:5]=[N-:6])([H:10])[H:11])([H:7])([H:8])[H:9].[C:4]([H:12])([H:13])([H:14])[H:15]"
C       -2.16760735       0.14788654       0.19354803
C       -0.82164070      -0.42731445      -0.28012132
C        0.26076825       0.31363784       0.42662599
C        2.10493905      -0.66444528      -0.03559813
C        0.43595947       1.67896099       0.07563802
N        0.62947991       2.77909503      -0.21609259
H       -2.26926984       0.07283801       1.27698784
H       -2.27877973       1.19435640      -0.09290901
H       -2.97822372      -0.41403840      -0.27043240
H       -0.78834507      -1.48817801      -0.02568027
H       -0.71679949      -0.31916160      -1.36361170
H        1.37664115      -0.38807600       1.11952367
H        2.00902833      -1.75096466      -0.05775772
H        2.11152771      -0.35156720      -1.08111382
H        3.09232203      -0.38302922       0.33099341
15
Frame=14 idx=001592 GeodesicLength=0.8299668715285541 rxn_smarts="[C:1]([C:2]([C@@:3]([C:4]([H:13])([H:14])[H:15])([C:5]#[N:6])[H:12])([H:10])[H:11])([H:7])([H:8])[H:9]>>[C:1]([C:2]([C+:3]=[C:5]=[N-:6])([H:10])[H:11])([H:7])([H:8])[H:9].[C:4]([H:12])([H:13])([H:14])[H:15]"
C       -2.16254922       0.14630529       0.19941633
C       -0.82102726      -0.42618641      -0.28991019
C        0.27116560       0.31306701       0.40343296
C        2.10234875      -0.66313786      -0.03221597
C        0.43094574       1.68378575       0.06327775
N        0.61213067       2.78755655      -0.22196058
H       -2.25154645       0.07092303       1.28400368
H       -2.27919794       1.19254695      -0.08563503
H       -2.97737712      -0.41703674      -0.25533689
H       -0.78496507      -1.48784995      -0.03901600
H       -0.72473365      -0.31501816      -1.37379230
H        1.36658932      -0.38415810       1.14287628
H        1.98905292      -1.74781844      -0.06579851
H        2.13741568      -0.34667352      -1.07671495
H        3.09174804      -0.40630540       0.34737341
15
Frame=15 idx=001592 GeodesicLength=0.8897388549853569 rxn_smarts="[C:1]([C:2]([C@@:3]([C:4]([H:13])([H:14])[H:15])([C:5]#[N:6])[H:12])([H:10])[H:11])([H:7])([H:8])[H:9]>>[C:1]([C:2]([C+:3]=[C:5]=[N-:6])([H:10])[H:11])([H:7])([H:8])[H:9].[C:4]([H:12])([H:13])([H:14])[H:15]"
C       -2.15709168       0.14480029       0.20543225
C       -0.82032007      -0.42499199      -0.29981814
C        0.28178546       0.31253325       0.37967231
C        2.09994494      -0.66200226      -0.02901180
C        0.42613841       1.68842887       0.05034391
N        0.59371238       2.79615908      -0.22713341
H       -2.23308248       0.06918925       1.29104936
H       -2.27927087       1.19078595      -0.07817780
H       -2.97613372      -0.42000985      -0.23978578
H       -0.78152719      -1.48744458      -0.05249506
H       -0.73291209      -0.31092967      -1.38405757
H        1.35506792      -0.37971627       1.16561079
H        1.96953062      -1.74446912      -0.07400632
H        2.16379477      -0.34242307      -1.07182343
H        3.09036357      -0.42990987       0.36420070
15
Frame=16 idx=001592 GeodesicLength=0.9496144626941119 rxn_smarts="[C:1]([C:2]([C@@:3]([C:4]([H:13])([H:14])[H:15])([C:5]#[N:6])[H:12])([H:10])[H:11])([H:7])([H:8])[H:9]>>[C:1]([C:2]([C+:3]=[C:5]=[N-:6])([H:10])[H:11])([H:7])([H:8])[H:9].[C:4]([H:12])([H:13])([H:14])[H:15]"
C       -2.15121570       0.14338304       0.21158213
C       -0.81950646      -0.42374260      -0.30981749
C        0.29262783       0.31202721       0.35536306
C        2.09771241      -0.66104385      -0.02600599
C        0.42155403       1.69287769       0.03682506
N        0.57418470       2.80484301      -0.23153571
H       -2.21387403       0.06767733       1.29810054
H       -2.27896677       1.18907898      -0.07057438
H       -2.97446200      -0.42295228      -0.22378722
H       -0.77803317      -1.48696872      -0.06606741
H       -0.74130518      -0.30693326      -1.39437398
H        1.34204701      -0.37468610       1.18772768
H        1.95047628      -1.74093441      -0.08244906
H        2.19064131      -0.33880124      -1.06642878
H        3.08811973      -0.45382478       0.38144153
