12
Frame=0 idx=010554 GeodesicLength=0.0 rxn_smarts="[O:1]=[C:2]([C@@:3]1([H:9])[C:4]([H:10])([H:11])[N:5]=[C:6]([H:12])[O:7]1)[H:8]>>[N:5]#[C:6][H:12].[O:1]1[C@@:2]2([H:8])[C@@:3]([H:9])([C:4]1([H:10])[H:11])[O:7]2"
O       -1.80866178       0.83597543       0.81275280
C       -1.80128658       0.00739614      -0.10807247
C       -0.40165103      -0.13339340      -0.57810024
C        0.00163479       0.84045213       0.58662562
N        2.10979328       0.31103251       0.17106429
C        2.04690297      -0.81122446      -0.12080775
O        0.04734133      -1.37788339      -0.48727194
H       -2.69604185      -0.55637938      -0.38908230
H       -0.24313855       0.39450165      -1.54395258
H        0.19556712       1.89759993       0.45901383
H        0.22900966       0.41074906       1.55035457
H        2.32053061      -1.81882622      -0.35252380
12
Frame=1 idx=010554 GeodesicLength=0.07838457764990663 rxn_smarts="[O:1]=[C:2]([C@@:3]1([H:9])[C:4]([H:10])([H:11])[N:5]=[C:6]([H:12])[O:7]1)[H:8]>>[N:5]#[C:6][H:12].[O:1]1[C@@:2]2([H:8])[C@@:3]([H:9])([C:4]1([H:10])[H:11])[O:7]2"
O       -1.80948303       0.80929954       0.82423631
C       -1.79050112      -0.02051130      -0.09967758
C       -0.39796387      -0.09585017      -0.59995974
C        0.01056688       0.84946503       0.58137807
N        2.13278289       0.29802580       0.18017956
C        2.04136296      -0.81959787      -0.13103587
O        0.04312286      -1.34908858      -0.51021958
H       -2.67442348      -0.60009028      -0.38186593
H       -0.26339984       0.43650750      -1.56395611
H        0.19186568       1.90992000       0.45714429
H        0.24098483       0.43115016       1.54942644
H        2.27508524      -1.84922983      -0.30564987
12
Frame=2 idx=010554 GeodesicLength=0.15777200126424748 rxn_smarts="[O:1]=[C:2]([C@@:3]1([H:9])[C:4]([H:10])([H:11])[N:5]=[C:6]([H:12])[O:7]1)[H:8]>>[N:5]#[C:6][H:12].[O:1]1[C@@:2]2([H:8])[C@@:3]([H:9])([C:4]1([H:10])[H:11])[O:7]2"
O       -1.80890776       0.78037436       0.83688119
C       -1.77825215      -0.04857603      -0.09214057
C       -0.39534485      -0.05892185      -0.62069144
C        0.02019604       0.85828791       0.57604948
N        2.15585575       0.28438432       0.18783262
C        2.03581112      -0.82795001      -0.14229224
O        0.03935852      -1.32062384      -0.53349465
H       -2.65172100      -0.64244650      -0.37729491
H       -0.28533196       0.47769827      -1.58292755
H        0.18830970       1.92221551       0.45535314
H        0.25418543       0.45178261       1.54861659
H        2.22584115      -1.87622476      -0.25589166
12
Frame=3 idx=010554 GeodesicLength=0.23597811767767046 rxn_smarts="[O:1]=[C:2]([C@@:3]1([H:9])[C:4]([H:10])([H:11])[N:5]=[C:6]([H:12])[O:7]1)[H:8]>>[N:5]#[C:6][H:12].[O:1]1[C@@:2]2([H:8])[C@@:3]([H:9])([C:4]1([H:10])[H:11])[O:7]2"
O       -1.80710817       0.75072452       0.84939222
C       -1.76430774      -0.07573785      -0.08543127
C       -0.39361638      -0.02312210      -0.63929739
C        0.02971240       0.86681526       0.57027923
N        2.17777083       0.26832150       0.19528831
C        2.02941199      -0.83799279      -0.15145310
O        0.03631287      -1.29272073      -0.55509310
H       -2.62714277      -0.68211876      -0.37464569
H       -0.30824021       0.51639156      -1.59934711
H        0.18385736       1.93368935       0.45277591
H        0.26719666       0.47337219       1.54712097
H        2.17615317      -1.89762214      -0.20958899
12
Frame=4 idx=010554 GeodesicLength=0.31491838604192746 rxn_smarts="[O:1]=[C:2]([C@@:3]1([H:9])[C:4]([H:10])([H:11])[N:5]=[C:6]([H:12])[O:7]1)[H:8]>>[N:5]#[C:6][H:12].[O:1]1[C@@:2]2([H:8])[C@@:3]([H:9])([C:4]1([H:10])[H:11])[O:7]2"
O       -1.80434714       0.72023310       0.86200136
C       -1.74943048      -0.10254211      -0.07977194
C       -0.39275126       0.01153475      -0.65635770
C        0.03955735       0.87564212       0.56443519
N        2.19959665       0.25110689       0.20351980
C        2.02258632      -0.84884774      -0.15831874
O        0.03354254      -1.26572363      -0.57517806
H       -2.60197118      -0.72068547      -0.37376842
H       -0.33172543       0.55292674      -1.61461467
H        0.17958563       1.94542658       0.44947612
H        0.28019943       0.49640891       1.54616688
H        2.12515756      -1.91548014      -0.16758981
12
Frame=5 idx=010554 GeodesicLength=0.3942989797264991 rxn_smarts="[O:1]=[C:2]([C@@:3]1([H:9])[C:4]([H:10])([H:11])[N:5]=[C:6]([H:12])[O:7]1)[H:8]>>[N:5]#[C:6][H:12].[O:1]1[C@@:2]2([H:8])[C@@:3]([H:9])([C:4]1([H:10])[H:11])[O:7]2"
O       -1.80043782       0.68888195       0.87474710
C       -1.73352628      -0.12875486      -0.07511990
C       -0.39272417       0.04533346      -0.67206194
C        0.04957010       0.88474273       0.55835784
N        2.22099321       0.23263384       0.21236805
C        2.01519291      -0.86050735      -0.16329710
O        0.03130583      -1.23930021      -0.59437890
H       -2.57575459      -0.75824272      -0.37414016
H       -0.35602973       0.58778373      -1.62853819
H        0.17502103       1.95732782       0.44559828
H        0.29316132       0.52071767       1.54522694
H        2.07322819      -1.93061606      -0.12876202
12
Frame=6 idx=010554 GeodesicLength=0.47373308579355583 rxn_smarts="[O:1]=[C:2]([C@@:3]1([H:9])[C:4]([H:10])([H:11])[N:5]=[C:6]([H:12])[O:7]1)[H:8]>>[N:5]#[C:6][H:12].[O:1]1[C@@:2]2([H:8])[C@@:3]([H:9])([C:4]1([H:10])[H:11])[O:7]2"
O       -1.79536763       0.65694087       0.88747494
C       -1.71673309      -0.15417778      -0.07139152
C       -0.39356027       0.07825817      -0.68641555
C        0.05964208       0.89406854       0.55197314
N        2.24173793       0.21267321       0.22218846
C        2.00712308      -0.87291239      -0.16645252
O        0.02954356      -1.21342203      -0.61251868
H       -2.54858737      -0.79459643      -0.37547965
H       -0.38106380       0.62088932      -1.64107359
H        0.17008714       1.96924793       0.44103680
H        0.30585492       0.54618214       1.54410183
H        2.02132344      -1.94315155      -0.09344367
12
Frame=7 idx=010554 GeodesicLength=0.55357646814334 rxn_smarts="[O:1]=[C:2]([C@@:3]1([H:9])[C:4]([H:10])([H:11])[N:5]=[C:6]([H:12])[O:7]1)[H:8]>>[N:5]#[C:6][H:12].[O:1]1[C@@:2]2([H:8])[C@@:3]([H:9])([C:4]1([H:10])[H:11])[O:7]2"
O       -1.78897075       0.62408413       0.90043133
C       -1.69911781      -0.17898274      -0.06856145
C       -0.39524286       0.11052931      -0.69975903
C        0.06991555       0.90362438       0.54526043
N        2.26202629       0.19146118       0.23264756
C        1.99847602      -0.88587244      -0.16831880
O        0.02832696      -1.18787901      -0.63038824
H       -2.52053706      -0.83014824      -0.37764470
H       -0.40699092       0.65278271      -1.65244766
H        0.16487456       1.98125832       0.43604574
H        0.31853372       0.57258941       1.54270034
H        1.96870630      -1.95344701      -0.05996551
12
Frame=8 idx=010554 GeodesicLength=0.6339449112360153 rxn_smarts="[O:1]=[C:2]([C@@:3]1([H:9])[C:4]([H:10])([H:11])[N:5]=[C:6]([H:12])[O:7]1)[H:8]>>[N:5]#[C:6][H:12].[O:1]1[C@@:2]2([H:8])[C@@:3]([H:9])([C:4]1([H:10])[H:11])[O:7]2"
O       -1.78099364       0.59003504       0.91373445
C       -1.68062132      -0.20324950      -0.06661269
C       -0.39777852       0.14236154      -0.71229576
C        0.08045584       0.91338682       0.53813008
N        2.28184655       0.16898743       0.24346920
C        1.98921281      -0.89940278      -0.16912872
O        0.02774220      -1.16243200      -0.64859120
H       -2.49143331      -0.86513905      -0.38050142
H       -0.43402906       0.68392209      -1.66267225
H        0.15932643       1.99334033       0.43076802
H        0.33136937       0.59976669       1.54080510
H        1.91490266      -1.96157661      -0.02710480
12
Frame=9 idx=010554 GeodesicLength=0.7147355742311566 rxn_smarts="[O:1]=[C:2]([C@@:3]1([H:9])[C:4]([H:10])([H:11])[N:5]=[C:6]([H:12])[O:7]1)[H:8]>>[N:5]#[C:6][H:12].[O:1]1[C@@:2]2([H:8])[C@@:3]([H:9])([C:4]1([H:10])[H:11])[O:7]2"
O       -1.77126748       0.55487628       0.92728367
C       -1.66124134      -0.22689013      -0.06551466
C       -0.40119127       0.17381479      -0.72402871
C        0.09121494       0.92343622       0.53048765
N        2.30097419       0.14506699       0.25503697
C        1.97912608      -0.91354034      -0.16859715
O        0.02776195      -1.13698601      -0.66703464
H       -2.46109120      -0.89970398      -0.38380919
H       -0.46212657       0.71433583      -1.67173574
H        0.15335964       2.00552149       0.42506252
H        0.34424663       0.62779073       1.53828488
H        1.86023442      -1.96772185       0.00456440
12
Frame=10 idx=010554 GeodesicLength=0.7960582417202076 rxn_smarts="[O:1]=[C:2]([C@@:3]1([H:9])[C:4]([H:10])([H:11])[N:5]=[C:6]([H:12])[O:7]1)[H:8]>>[N:5]#[C:6][H:12].[O:1]1[C@@:2]2([H:8])[C@@:3]([H:9])([C:4]1([H:10])[H:11])[O:7]2"
O       -1.75967814       0.51869626       0.94095152
C       -1.64091052      -0.25005859      -0.06514039
C       -0.40545893       0.20484441      -0.73495148
C        0.10220787       0.93378523       0.52230949
N        2.31934644       0.11969015       0.26756483
C        1.96827047      -0.92817084      -0.16697526
O        0.02848095      -1.11154498      -0.68570337
H       -2.42954746      -0.93375832      -0.38761689
H       -0.49140315       0.74399626      -1.67954561
H        0.14699655       2.01780091       0.41893222
H        0.35712719       0.65662482       1.53507355
H        1.80456873      -1.97190533       0.03510140
12
Frame=11 idx=010554 GeodesicLength=0.8782040480254667 rxn_smarts="[O:1]=[C:2]([C@@:3]1([H:9])[C:4]([H:10])([H:11])[N:5]=[C:6]([H:12])[O:7]1)[H:8]>>[N:5]#[C:6][H:12].[O:1]1[C@@:2]2([H:8])[C@@:3]([H:9])([C:4]1([H:10])[H:11])[O:7]2"
O       -1.74610523       0.48120158       0.95499999
C       -1.61973259      -0.27289752      -0.06550236
C       -0.41062861       0.23560975      -0.74532037
C        0.11358440       0.94453774       0.51356736
N        2.33718588       0.09279194       0.28098224
C        1.95667616      -0.94341425      -0.16420552
O        0.02989733      -1.08590721      -0.70525547
H       -2.39689781      -0.96771554      -0.39189284
H       -0.52202995       0.77318150      -1.68634098
H        0.14036552       2.03029504       0.41252682
H        0.37021229       0.68637377       1.53122138
H        1.74747260      -1.97405682       0.06521975
12
Frame=12 idx=010554 GeodesicLength=0.9612607664281341 rxn_smarts="[O:1]=[C:2]([C@@:3]1([H:9])[C:4]([H:10])([H:11])[N:5]=[C:6]([H:12])[O:7]1)[H:8]>>[N:5]#[C:6][H:12].[O:1]1[C@@:2]2([H:8])[C@@:3]([H:9])([C:4]1([H:10])[H:11])[O:7]2"
O       -1.72985549       0.44216908       0.96922172
C       -1.59721721      -0.29537943      -0.06657787
C       -0.41671786       0.26628447      -0.75500062
C        0.12526004       0.95571675       0.50402805
N        2.35386862       0.06419801       0.29537609
C        1.94381318      -0.95932214      -0.16008482
O        0.03218817      -1.05978684      -0.72563177
H       -2.36225119      -1.00162659      -0.39646116
H       -0.55414627       0.80214789      -1.69173719
H        0.13310648       2.04296014       0.40566945
H        0.38348053       0.71690318       1.52624358
H        1.68847099      -1.97426451       0.09495453
12
Frame=13 idx=010554 GeodesicLength=1.0453707905986762 rxn_smarts="[O:1]=[C:2]([C@@:3]1([H:9])[C:4]([H:10])([H:11])[N:5]=[C:6]([H:12])[O:7]1)[H:8]>>[N:5]#[C:6][H:12].[O:1]1[C@@:2]2([H:8])[C@@:3]([H:9])([C:4]1([H:10])[H:11])[O:7]2"
O       -1.71122914       0.40197360       0.98362418
C       -1.57367120      -0.31765971      -0.06822329
C       -0.42375807       0.29667386      -0.76407779
C        0.13733170       0.96750263       0.49378037
N        2.36962653       0.03376958       0.31154665
C        1.92997412      -0.97578037      -0.15472098
O        0.03526754      -1.03333899      -0.74676423
H       -2.32624045      -1.03557008      -0.40135171
H       -0.58778466       0.83050472      -1.69599791
H        0.12557757       2.05596773       0.39833822
H        0.39682320       0.74855275       1.52047689
H        1.62808285      -1.97259572       0.12336960
12
Frame=14 idx=010554 GeodesicLength=1.1306428065460143 rxn_smarts="[O:1]=[C:2]([C@@:3]1([H:9])[C:4]([H:10])([H:11])[N:5]=[C:6]([H:12])[O:7]1)[H:8]>>[N:5]#[C:6][H:12].[O:1]1[C@@:2]2([H:8])[C@@:3]([H:9])([C:4]1([H:10])[H:11])[O:7]2"
O       -1.68965714       0.36052723       0.99800032
C       -1.54866038      -0.33971302      -0.07037496
C       -0.43180425       0.32687210      -0.77241506
C        0.14973036       0.97988439       0.48260523
N        2.38390021       0.00116256       0.32975532
C        1.91485461      -0.99282433      -0.14802121
O        0.03932182      -1.00627816      -0.76864302
H       -2.28818681      -1.06941654      -0.40646917
H       -0.62325077       0.85832428      -1.69872598
H        0.11748280       2.06918932       0.39036968
H        0.41020404       0.78125566       1.51348260
H        1.56606552      -1.96898349       0.15043625
12
Frame=15 idx=010554 GeodesicLength=1.217502840306083 rxn_smarts="[O:1]=[C:2]([C@@:3]1([H:9])[C:4]([H:10])([H:11])[N:5]=[C:6]([H:12])[O:7]1)[H:8]>>[N:5]#[C:6][H:12].[O:1]1[C@@:2]2([H:8])[C@@:3]([H:9])([C:4]1([H:10])[H:11])[O:7]2"
O       -1.66498894       0.31785541       1.01245902
C       -1.52221051      -0.36167881      -0.07296169
C       -0.44089379       0.35684407      -0.78008268
C        0.16256063       0.99308743       0.47049573
N        2.39656756      -0.03364688       0.35055681
C        1.89835629      -1.01036054      -0.14001428
O        0.04431914      -0.97859311      -0.79131892
H       -2.24819498      -1.10341615      -0.41180560
H       -0.66055179       0.88545701      -1.70010722
H        0.10900324       2.08287770       0.38173626
H        0.42365154       0.81523961       1.50540001
H        1.50238159      -1.96366574       0.17564257
12
Frame=16 idx=010554 GeodesicLength=1.3062963592707142 rxn_smarts="[O:1]=[C:2]([C@@:3]1([H:9])[C:4]([H:10])([H:11])[N:5]=[C:6]([H:12])[O:7]1)[H:8]>>[N:5]#[C:6][H:12].[O:1]1[C@@:2]2([H:8])[C@@:3]([H:9])([C:4]1([H:10])[H:11])[O:7]2"
O       -1.63683504       0.27401829       1.02691269
C       -1.49407443      -0.38356737      -0.07590632
C       -0.45108601       0.38659374      -0.78700275
C        0.17581166       1.00723560       0.45731718
N        2.40713995      -0.07090407       0.37445640
C        1.88025712      -1.02834878      -0.13068367
O        0.05035413      -0.95011921      -0.81476129
H       -2.20590864      -1.13758220      -0.41726217
H       -0.69983797       0.91179056      -1.69996448
H        0.10004819       2.09708666       0.37232187
H        0.43712235       0.85059746       1.49603129
H        1.43700869      -1.95680068       0.19854125
