11
Frame=0 idx=004113 GeodesicLength=0.0 rxn_smarts="[C:1]([c:2]1[c:3]([H:10])[n:4][n:5][n:6]1[H:11])([H:7])([H:8])[H:9]>>[C:1]([C@@:2]1([H:10])[C:3]#[N+:4][N-:5][N:6]1[H:11])([H:7])([H:8])[H:9]"
C       -1.45577656       0.10754229       0.11235869
C        0.02831284       0.20493114      -0.07334286
C        0.91276320       1.32538999       0.22437125
N        2.16672966       0.70075940       0.29592898
N        2.08447573      -0.58092520       0.18661544
N        0.84113695      -0.92959010      -0.02506977
H       -1.89455806       1.09298394      -0.03156603
H       -1.91588372      -0.59070738      -0.58826240
H       -1.67915846      -0.21683135       1.12869303
H        0.29487926       0.78651050      -1.06167796
H        0.61707914      -1.90006324      -0.16804834
11
Frame=1 idx=004113 GeodesicLength=0.057127454586498747 rxn_smarts="[C:1]([c:2]1[c:3]([H:10])[n:4][n:5][n:6]1[H:11])([H:7])([H:8])[H:9]>>[C:1]([C@@:2]1([H:10])[C:3]#[N+:4][N-:5][N:6]1[H:11])([H:7])([H:8])[H:9]"
C       -1.45482184       0.10533878       0.11252812
C        0.02806217       0.20367009      -0.08281255
C        0.91294283       1.31911437       0.22096066
N        2.16563926       0.69859293       0.30054652
N        2.08300780      -0.58446079       0.19091195
N        0.84100303      -0.93069863      -0.03136412
H       -1.89614872       1.08991400      -0.02945211
H       -1.91763603      -0.59323373      -0.58609699
H       -1.67330422      -0.21922185       1.12996577
H        0.29686808       0.81460373      -1.07115432
H        0.61438764      -1.90361891      -0.15403293
11
Frame=2 idx=004113 GeodesicLength=0.11425267501067357 rxn_smarts="[C:1]([c:2]1[c:3]([H:10])[n:4][n:5][n:6]1[H:11])([H:7])([H:8])[H:9]>>[C:1]([C@@:2]1([H:10])[C:3]#[N+:4][N-:5][N:6]1[H:11])([H:7])([H:8])[H:9]"
C       -1.45379833       0.10306044       0.11262103
C        0.02784391       0.20226151      -0.09240390
C        0.91309483       1.31270583       0.21748502
N        2.16451602       0.69635179       0.30482662
N        2.08148651      -0.58809177       0.19512947
N        0.84085287      -0.93200398      -0.03737339
H       -1.89764988       1.08675032      -0.02752986
H       -1.91932990      -0.59589629      -0.58392290
H       -1.66741839      -0.22153984       1.13117486
H        0.29877246       0.84333139      -1.08012246
H        0.61162990      -1.90692939      -0.13988450
11
Frame=3 idx=004113 GeodesicLength=0.17137431224485652 rxn_smarts="[C:1]([c:2]1[c:3]([H:10])[n:4][n:5][n:6]1[H:11])([H:7])([H:8])[H:9]>>[C:1]([C@@:2]1([H:10])[C:3]#[N+:4][N-:5][N:6]1[H:11])([H:7])([H:8])[H:9]"
C       -1.45271476       0.10071762       0.11265100
C        0.02765425       0.20069175      -0.10208214
C        0.91322273       1.30618193       0.21387438
N        2.16336612       0.69405661       0.30876975
N        2.07992326      -0.59180955       0.19930818
N        0.84066713      -0.93352457      -0.04292363
H       -1.89906258       1.08350560      -0.02583538
H       -1.92096931      -0.59871167      -0.58170795
H       -1.66153001      -0.22372824       1.13234826
H        0.30059154       0.87262317      -1.08855738
H        0.60885163      -1.91000264      -0.12584511
11
Frame=4 idx=004113 GeodesicLength=0.2284911753286388 rxn_smarts="[C:1]([c:2]1[c:3]([H:10])[n:4][n:5][n:6]1[H:11])([H:7])([H:8])[H:9]>>[C:1]([C@@:2]1([H:10])[C:3]#[N+:4][N-:5][N:6]1[H:11])([H:7])([H:8])[H:9]"
C       -1.45157136       0.09832058       0.11263148
C        0.02749602       0.19895884      -0.11181583
C        0.91332702       1.29953836       0.21007772
N        2.16218824       0.69170715       0.31235286
N        2.07832163      -0.59560053       0.20349589
N        0.84042451      -0.93524917      -0.04780362
H       -1.90037803       1.08017689      -0.02440245
H       -1.92254116      -0.60168792      -0.57941242
H       -1.65567113      -0.22573161       1.13350165
H        0.30230744       0.90241379      -1.09645581
H        0.60609682      -1.91284639      -0.11216946
11
Frame=5 idx=004113 GeodesicLength=0.28558714260181484 rxn_smarts="[C:1]([c:2]1[c:3]([H:10])[n:4][n:5][n:6]1[H:11])([H:7])([H:8])[H:9]>>[C:1]([C@@:2]1([H:10])[C:3]#[N+:4][N-:5][N:6]1[H:11])([H:7])([H:8])[H:9]"
C       -1.45037743       0.09587377       0.11255504
C        0.02736637       0.19705454      -0.12161050
C        0.91341826       1.29279893       0.20607388
N        2.16100634       0.68932791       0.31558320
N        2.07671020      -0.59946323       0.20767997
N        0.84012236      -0.93719440      -0.05200662
H       -1.90161046       1.07678507      -0.02323870
H       -1.92406540      -0.60482818      -0.57704976
H       -1.64984380      -0.22754486       1.13463680
H        0.30390082       0.93273174      -1.10378019
H        0.60337275      -1.91554128      -0.09884313
11
Frame=6 idx=004113 GeodesicLength=0.3427620316045116 rxn_smarts="[C:1]([c:2]1[c:3]([H:10])[n:4][n:5][n:6]1[H:11])([H:7])([H:8])[H:9]>>[C:1]([C@@:2]1([H:10])[C:3]#[N+:4][N-:5][N:6]1[H:11])([H:7])([H:8])[H:9]"
C       -1.44912387       0.09337269       0.11242364
C        0.02726089       0.19496056      -0.13146445
C        0.91348561       1.28594479       0.20180958
N        2.15978731       0.68691390       0.31847592
N        2.07506695      -0.60338093       0.21184720
N        0.83974651      -0.93934013      -0.05556524
H       -1.90274188       1.07331014      -0.02233626
H       -1.92552081      -0.60812294      -0.57461233
H       -1.64404695      -0.22916174       1.13575277
H        0.30541205       0.96361055      -1.11049985
H        0.60067419      -1.91810689      -0.08583097
11
Frame=7 idx=004113 GeodesicLength=0.39994471583066993 rxn_smarts="[C:1]([c:2]1[c:3]([H:10])[n:4][n:5][n:6]1[H:11])([H:7])([H:8])[H:9]>>[C:1]([C@@:2]1([H:10])[C:3]#[N+:4][N-:5][N:6]1[H:11])([H:7])([H:8])[H:9]"
C       -1.44782220       0.09082811       0.11223268
C        0.02718865       0.19267907      -0.14136600
C        0.91354488       1.27900202       0.19726166
N        2.15856464       0.68448641       0.32100688
N        2.07342853      -0.60735887       0.21602242
N        0.83930784      -0.94169869      -0.05840430
H       -1.90378939       1.06978044      -0.02171352
H       -1.92692771      -0.61157090      -0.57211099
H       -1.63830043      -0.23057072       1.13685233
H        0.30678322       0.99504251      -1.11658079
H        0.59802198      -1.92061938      -0.07320035
11
Frame=8 idx=004113 GeodesicLength=0.4567733889514785 rxn_smarts="[C:1]([c:2]1[c:3]([H:10])[n:4][n:5][n:6]1[H:11])([H:7])([H:8])[H:9]>>[C:1]([C@@:2]1([H:10])[C:3]#[N+:4][N-:5][N:6]1[H:11])([H:7])([H:8])[H:9]"
C       -1.44645277       0.08824548       0.11195337
C        0.02715832       0.19022415      -0.15137154
C        0.91359398       1.27194914       0.19254963
N        2.15737316       0.68204517       0.32302863
N        2.07179803      -0.61137938       0.22019431
N        0.83877216      -0.94424248      -0.06043478
H       -1.90473282       1.06619311      -0.02137628
H       -1.92826413      -0.61514960      -0.56958148
H       -1.63260001      -0.23177995       1.13788877
H        0.30793978       1.02699569      -1.12194145
H        0.59541429      -1.92310132      -0.06090918
11
Frame=9 idx=004113 GeodesicLength=0.5138332698307788 rxn_smarts="[C:1]([c:2]1[c:3]([H:10])[n:4][n:5][n:6]1[H:11])([H:7])([H:8])[H:9]>>[C:1]([C@@:2]1([H:10])[C:3]#[N+:4][N-:5][N:6]1[H:11])([H:7])([H:8])[H:9]"
C       -1.44502818       0.08560896       0.11160291
C        0.02716448       0.18756383      -0.16143557
C        0.91364192       1.26477989       0.18748663
N        2.15617781       0.67956502       0.32468558
N        2.07016884      -0.61545944       0.22438210
N        0.83817373      -0.94697518      -0.06184822
H       -1.90558413       1.06253181      -0.02131233
H       -1.92954535      -0.61887537      -0.56699734
H       -1.62694189      -0.23279599       1.13888896
H        0.30893647       1.05965074      -1.12661495
H        0.59283630      -1.92559427      -0.04883778
11
Frame=10 idx=004113 GeodesicLength=0.5708989497500454 rxn_smarts="[C:1]([c:2]1[c:3]([H:10])[n:4][n:5][n:6]1[H:11])([H:7])([H:8])[H:9]>>[C:1]([C@@:2]1([H:10])[C:3]#[N+:4][N-:5][N:6]1[H:11])([H:7])([H:8])[H:9]"
C       -1.44354144       0.08292253       0.11115593
C        0.02721146       0.18469720      -0.17160103
C        0.91369777       1.25750617       0.18211834
N        2.15501077       0.67706168       0.32591178
N        2.06855460      -0.61960377       0.22857428
N        0.83750540      -0.94990432      -0.06265341
H       -1.90634196       1.05881417      -0.02153337
H       -1.93077381      -0.62274538      -0.56439447
H       -1.62131125      -0.23362527       1.13983300
H        0.30970869       1.09301901      -1.13051162
H        0.59027978      -1.92814202      -0.03689942
11
Frame=11 idx=004113 GeodesicLength=0.627631982958376 rxn_smarts="[C:1]([c:2]1[c:3]([H:10])[n:4][n:5][n:6]1[H:11])([H:7])([H:8])[H:9]>>[C:1]([C@@:2]1([H:10])[C:3]#[N+:4][N-:5][N:6]1[H:11])([H:7])([H:8])[H:9]"
C       -1.44198524       0.08018699       0.11059363
C        0.02730354       0.18161867      -0.18190247
C        0.91374636       1.25011472       0.17646709
N        2.15386175       0.67455038       0.32662284
N        2.06693773      -0.62378439       0.23273998
N        0.83675719      -0.95300005      -0.06290308
H       -1.90699561       1.05502395      -0.02203338
H       -1.93193571      -0.62673098      -0.56178806
H       -1.61571310      -0.23427466       1.14068728
H        0.31030036       1.12700671      -1.13347622
H        0.58772273      -1.93071134      -0.02500762
11
Frame=12 idx=004113 GeodesicLength=0.6845282401137653 rxn_smarts="[C:1]([c:2]1[c:3]([H:10])[n:4][n:5][n:6]1[H:11])([H:7])([H:8])[H:9]>>[C:1]([C@@:2]1([H:10])[C:3]#[N+:4][N-:5][N:6]1[H:11])([H:7])([H:8])[H:9]"
C       -1.44036009       0.07739120       0.10991851
C        0.02744426       0.17831423      -0.19231961
C        0.91382032       1.24259872       0.17042510
N        2.15275180       0.67198881       0.32687089
N        2.06532567      -0.62804463       0.23694590
N        0.83594627      -0.95628180      -0.06262483
H       -1.90755120       1.05116145      -0.02283671
H       -1.93304388      -0.63086833      -0.55916926
H       -1.61012991      -0.23474037       1.14146839
H        0.31062464       1.16184056      -1.13555983
H        0.58517212      -1.93335984      -0.01311855
11
Frame=13 idx=004113 GeodesicLength=0.7414275716595312 rxn_smarts="[C:1]([c:2]1[c:3]([H:10])[n:4][n:5][n:6]1[H:11])([H:7])([H:8])[H:9]>>[C:1]([C@@:2]1([H:10])[C:3]#[N+:4][N-:5][N:6]1[H:11])([H:7])([H:8])[H:9]"
C       -1.43865876       0.07453093       0.10910617
C        0.02763837       0.17476894      -0.20289548
C        0.91392048       1.23494852       0.16399605
N        2.15168314       0.66937714       0.32662511
N        2.06371863      -0.63237777       0.24114322
N        0.83507246      -0.95974568      -0.06191501
H       -1.90800649       1.04721527      -0.02396644
H       -1.93409484      -0.63516131      -0.55654694
H       -1.60454784      -0.23501635       1.14215429
H        0.31067841       1.19753474      -1.13661886
H        0.58259646      -1.93607445      -0.00108213
11
Frame=14 idx=004113 GeodesicLength=0.7983453946290804 rxn_smarts="[C:1]([c:2]1[c:3]([H:10])[n:4][n:5][n:6]1[H:11])([H:7])([H:8])[H:9]>>[C:1]([C@@:2]1([H:10])[C:3]#[N+:4][N-:5][N:6]1[H:11])([H:7])([H:8])[H:9]"
C       -1.43687616       0.07160408       0.10814118
C        0.02788806       0.17097268      -0.21364771
C        0.91405736       1.22715455       0.15714617
N        2.15066919       0.66670227       0.32584052
N        2.06211097      -0.63679492       0.24536143
N        0.83413854      -0.96339202      -0.06079630
H       -1.90836225       1.04318067      -0.02545011
H       -1.93508493      -0.63962701      -0.55391838
H       -1.59895605      -0.23508561       1.14273436
H        0.31042481       1.23414705      -1.13656088
H        0.57999048      -1.93886173       0.01114971
11
Frame=15 idx=004113 GeodesicLength=0.855216713835223 rxn_smarts="[C:1]([c:2]1[c:3]([H:10])[n:4][n:5][n:6]1[H:11])([H:7])([H:8])[H:9]>>[C:1]([C@@:2]1([H:10])[C:3]#[N+:4][N-:5][N:6]1[H:11])([H:7])([H:8])[H:9]"
C       -1.43501064       0.06861235       0.10702636
C        0.02819511       0.16691103      -0.22458328
C        0.91423181       1.21922013       0.14980347
N        2.14970050       0.66397288       0.32449298
N        2.06047811      -0.64128235       0.24967314
N        0.83314042      -0.96720793      -0.05927526
H       -1.90860818       1.03905438      -0.02729346
H       -1.93601640      -0.64426483      -0.55126360
H       -1.59334835      -0.23493399       1.14321225
H        0.30988246       1.27162569      -1.13531121
H        0.57735516      -1.94170735       0.02351862
11
Frame=16 idx=004113 GeodesicLength=0.9120928984767948 rxn_smarts="[C:1]([c:2]1[c:3]([H:10])[n:4][n:5][n:6]1[H:11])([H:7])([H:8])[H:9]>>[C:1]([C@@:2]1([H:10])[C:3]#[N+:4][N-:5][N:6]1[H:11])([H:7])([H:8])[H:9]"
C       -1.43305919       0.06555330       0.10574388
C        0.02856099       0.16256680      -0.23572283
C        0.91446111       1.21113698       0.14191372
N        2.14879314       0.66117260       0.32256215
N        2.05882328      -0.64585250       0.25408805
N        0.83208710      -0.97120286      -0.05739302
H       -1.90874768       1.03483580      -0.02953062
H       -1.93689124      -0.64909293      -0.54858589
H       -1.58771108      -0.23454099       1.14357912
H        0.30899853       1.31005073      -1.13276330
H        0.57468504      -1.94462693       0.03610875
