14
Frame=0 idx=007392 GeodesicLength=0.0 rxn_smarts="[C:1]1([H:8])([H:9])[C@@:2]2([H:10])[C:3]([H:11])([H:12])[O:4][C:5]([H:13])=[N:6][C@@:7]12[H:14]>>[C:1]([C@@:7]1([H:14])[C:2]([H:9])([H:10])[C:3]([H:11])([H:12])[O:4][C:5]([H:13])=[N:6]1)[H:8]"
C       -1.55676722      -1.09417328       0.27917042
C       -0.79731720       0.44588599      -0.48366185
C        0.34531820       1.30911881       0.01327428
O        1.16801110       0.65690992       0.96896393
C        1.53197082      -0.60415006       0.63679436
N        0.91480086      -1.40308147      -0.11000277
C       -0.38768395      -1.03792275      -0.61270082
H       -1.15684444      -1.02468537       1.30601766
H       -1.69117437       0.45848852       0.23969481
H       -1.25597675       0.81720866      -1.39578354
H       -0.00831781       2.21925395       0.49354636
H        0.96343881       1.58646198      -0.84840199
H        2.46091414      -0.88811658       1.12353995
H       -0.53037213      -1.44119835      -1.61045074
14
Frame=1 idx=007392 GeodesicLength=0.06265364941247 rxn_smarts="[C:1]1([H:8])([H:9])[C@@:2]2([H:10])[C:3]([H:11])([H:12])[O:4][C:5]([H:13])=[N:6][C@@:7]12[H:14]>>[C:1]([C@@:7]1([H:14])[C:2]([H:9])([H:10])[C:3]([H:11])([H:12])[O:4][C:5]([H:13])=[N:6]1)[H:8]"
C       -1.55298523      -1.08498598       0.27942989
C       -0.79720111       0.44539223      -0.48150545
C        0.34663080       1.30870626       0.01210026
O        1.17317853       0.65763829       0.96567928
C        1.53575607      -0.60383874       0.63438521
N        0.91615419      -1.40413749      -0.10910656
C       -0.38474334      -1.03730528      -0.61323531
H       -1.15912822      -1.02853143       1.30860526
H       -1.71304601       0.45360373       0.23982925
H       -1.25303527       0.81781973      -1.39470610
H       -0.00600213       2.21884256       0.49330969
H        0.96279891       1.58690676      -0.85067289
H        2.46062854      -0.89077588       1.12708039
H       -0.52900573      -1.43933475      -1.61119290
14
Frame=2 idx=007392 GeodesicLength=0.12528474732489364 rxn_smarts="[C:1]1([H:8])([H:9])[C@@:2]2([H:10])[C:3]([H:11])([H:12])[O:4][C:5]([H:13])=[N:6][C@@:7]12[H:14]>>[C:1]([C@@:7]1([H:14])[C:2]([H:9])([H:10])[C:3]([H:11])([H:12])[O:4][C:5]([H:13])=[N:6]1)[H:8]"
C       -1.54909333      -1.07580395       0.27981137
C       -0.79699819       0.44495910      -0.47933115
C        0.34804485       1.30832857       0.01092126
O        1.17845521       0.65837446       0.96234260
C        1.53960816      -0.60353335       0.63192909
N        0.91752172      -1.40516895      -0.10822517
C       -0.38180516      -1.03664637      -0.61372917
H       -1.16147362      -1.03229191       1.31117522
H       -1.73531268       0.44836253       0.23967618
H       -1.25017435       0.81850430      -1.39350572
H       -0.00359663       2.21843980       0.49310671
H        0.96222983       1.58738390      -0.85296338
H        2.46028348      -0.89347155       1.13067328
H       -0.52768928      -1.43743658      -1.61188111
14
Frame=3 idx=007392 GeodesicLength=0.1879084211801578 rxn_smarts="[C:1]1([H:8])([H:9])[C@@:2]2([H:10])[C:3]([H:11])([H:12])[O:4][C:5]([H:13])=[N:6][C@@:7]12[H:14]>>[C:1]([C@@:7]1([H:14])[C:2]([H:9])([H:10])[C:3]([H:11])([H:12])[O:4][C:5]([H:13])=[N:6]1)[H:8]"
C       -1.54509673      -1.06661422       0.28031661
C       -0.79670380       0.44459065      -0.47713852
C        0.34956526       1.30798695       0.00973962
O        1.18384328       0.65911724       0.95895664
C        1.54352518      -0.60323680       0.62943157
N        0.91889929      -1.40617772      -0.10735156
C       -0.37887152      -1.03594468      -0.61417815
H       -1.16388601      -1.03596070       1.31372985
H       -1.75799211       0.44272991       0.23921747
H       -1.24739225       0.81926818      -1.39218113
H       -0.00109487       2.21804714       0.49293993
H        0.96173799       1.58789279      -0.85527028
H        2.45989124      -0.89619514       1.13429839
H       -0.52642496      -1.43550361      -1.61251043
14
Frame=4 idx=007392 GeodesicLength=0.2505307454531886 rxn_smarts="[C:1]1([H:8])([H:9])[C@@:2]2([H:10])[C:3]([H:11])([H:12])[O:4][C:5]([H:13])=[N:6][C@@:7]12[H:14]>>[C:1]([C@@:7]1([H:14])[C:2]([H:9])([H:10])[C:3]([H:11])([H:12])[O:4][C:5]([H:13])=[N:6]1)[H:8]"
C       -1.54099836      -1.05740525       0.28094748
C       -0.79631464       0.44429118      -0.47492545
C        0.35119670       1.30768315       0.00855663
O        1.18934640       0.65986632       0.95552187
C        1.54750655      -0.60295106       0.62689559
N        0.92028390      -1.40716453      -0.10648128
C       -0.37594437      -1.03519835      -0.61457859
H       -1.16636832      -1.03953237       1.31627194
H       -1.78110046       0.43667004       0.23843550
H       -1.24468943       0.82011755      -1.39072893
H        0.00151087       2.21766701       0.49281051
H        0.96132817       1.58843293      -0.85759292
H        2.45945838      -0.89894260       1.13794453
H       -0.52521538      -1.43353402      -1.61307688
14
Frame=5 idx=007392 GeodesicLength=0.3131491465959157 rxn_smarts="[C:1]1([H:8])([H:9])[C@@:2]2([H:10])[C:3]([H:11])([H:12])[O:4][C:5]([H:13])=[N:6][C@@:7]12[H:14]>>[C:1]([C@@:7]1([H:14])[C:2]([H:9])([H:10])[C:3]([H:11])([H:12])[O:4][C:5]([H:13])=[N:6]1)[H:8]"
C       -1.53680254      -1.04816568       0.28170597
C       -0.79582750       0.44406552      -0.47268896
C        0.35294450       1.30741854       0.00737445
O        1.19496689       0.66062070       0.95204124
C        1.55154936      -0.60267938       0.62432783
N        0.92167080      -1.40813073      -0.10560713
C       -0.37302652      -1.03440532      -0.61492558
H       -1.16892747      -1.04300064       1.31880389
H       -1.80465377       0.43014491       0.23730806
H       -1.24206517       0.82105880      -1.38914550
H        0.00422921       2.21730218       0.49271977
H        0.96100682       1.58900195      -0.85992912
H        2.45899803      -0.90170542       1.14159069
H       -0.52406263      -1.43152545      -1.61357562
14
Frame=6 idx=007392 GeodesicLength=0.37578039325776913 rxn_smarts="[C:1]1([H:8])([H:9])[C@@:2]2([H:10])[C:3]([H:11])([H:12])[O:4][C:5]([H:13])=[N:6][C@@:7]12[H:14]>>[C:1]([C@@:7]1([H:14])[C:2]([H:9])([H:10])[C:3]([H:11])([H:12])[O:4][C:5]([H:13])=[N:6]1)[H:8]"
C       -1.53251358      -1.03888027       0.28259605
C       -0.79523769       0.44391990      -0.47042723
C        0.35481524       1.30719590       0.00619410
O        1.20070957       0.66138039       0.94851502
C        1.55565297      -0.60242364       0.62173110
N        0.92305601      -1.40907673      -0.10472406
C       -0.37012050      -1.03356221      -0.61521476
H       -1.17156677      -1.04635890       1.32132857
H       -1.82867146       0.42310510       0.23581249
H       -1.23952087       0.82210040      -1.38742617
H        0.00706986       2.21695627       0.49266902
H        0.96078051       1.58960003      -0.86227853
H        2.45851818      -0.90448066       1.14522561
H       -0.52297148      -1.42947556      -1.61400120
14
Frame=7 idx=007392 GeodesicLength=0.43842866815020787 rxn_smarts="[C:1]1([H:8])([H:9])[C@@:2]2([H:10])[C:3]([H:11])([H:12])[O:4][C:5]([H:13])=[N:6][C@@:7]12[H:14]>>[C:1]([C@@:7]1([H:14])[C:2]([H:9])([H:10])[C:3]([H:11])([H:12])[O:4][C:5]([H:13])=[N:6]1)[H:8]"
C       -1.52813698      -1.02953461       0.28362005
C       -0.79454141       0.44386057      -0.46813754
C        0.35681506       1.30701734       0.00501731
O        1.20657760       0.66214464       0.94494556
C        1.55981437      -0.60218696       0.61911173
N        0.92443406      -1.41000365      -0.10382480
C       -0.36722961      -1.03266596      -0.61544089
H       -1.17429254      -1.04960017       1.32384879
H       -1.85317023       0.41550256       0.23392519
H       -1.23705617       0.82325062      -1.38556669
H        0.01004286       2.21663340       0.49265902
H        0.96065653       1.59022536      -0.86463961
H        2.45803212      -0.90726151       1.14882983
H       -0.52194567      -1.42738162      -1.61434795
14
Frame=8 idx=007392 GeodesicLength=0.5010963691873109 rxn_smarts="[C:1]1([H:8])([H:9])[C@@:2]2([H:10])[C:3]([H:11])([H:12])[O:4][C:5]([H:13])=[N:6][C@@:7]12[H:14]>>[C:1]([C@@:7]1([H:14])[C:2]([H:9])([H:10])[C:3]([H:11])([H:12])[O:4][C:5]([H:13])=[N:6]1)[H:8]"
C       -1.52367483      -1.02011397       0.28478324
C       -0.79373566       0.44389549      -0.46581495
C        0.35895140       1.30688694       0.00384360
O        1.21257831       0.66291482       0.94133036
C        1.56403385      -0.60197018       0.61646977
N        0.92580087      -1.41091050      -0.10290653
C       -0.36435728      -1.03171141      -0.61559956
H       -1.17710636      -1.05271759       1.32636838
H       -1.87816671       0.40727754       0.23161904
H       -1.23467643       0.82451982      -1.38355791
H        0.01316139       2.21633953       0.49268887
H        0.96064020       1.59087789      -0.86701541
H        2.45754228      -0.91005083       1.15240231
H       -0.52099104      -1.42523755      -1.61461121
14
Frame=9 idx=007392 GeodesicLength=0.56377347213299 rxn_smarts="[C:1]1([H:8])([H:9])[C@@:2]2([H:10])[C:3]([H:11])([H:12])[O:4][C:5]([H:13])=[N:6][C@@:7]12[H:14]>>[C:1]([C@@:7]1([H:14])[C:2]([H:9])([H:10])[C:3]([H:11])([H:12])[O:4][C:5]([H:13])=[N:6]1)[H:8]"
C       -1.51914187      -1.01059780       0.28608768
C       -0.79281679       0.44403428      -0.46345542
C        0.36123200       1.30680675       0.00267831
O        1.21871010       0.66368873       0.93767950
C        1.56830076      -0.60177938       0.61382233
N        0.92714364      -1.41179987      -0.10195186
C       -0.36151079      -1.03069344      -0.61568085
H       -1.18002418      -1.05570283       1.32889131
H       -1.90367247       0.39836123       0.22885477
H       -1.23237405       0.82591857      -1.38139793
H        0.01644045       2.21607975       0.49276038
H        0.96074444       1.59155145      -0.86939906
H        2.45708142      -0.91282752       1.15589143
H       -0.52011266      -1.42303992      -1.61478061
14
Frame=10 idx=007392 GeodesicLength=0.6264691855809711 rxn_smarts="[C:1]1([H:8])([H:9])[C@@:2]2([H:10])[C:3]([H:11])([H:12])[O:4][C:5]([H:13])=[N:6][C@@:7]12[H:14]>>[C:1]([C@@:7]1([H:14])[C:2]([H:9])([H:10])[C:3]([H:11])([H:12])[O:4][C:5]([H:13])=[N:6]1)[H:8]"
C       -1.51453731      -1.00097286       0.28753844
C       -0.79178093       0.44428441      -0.46105367
C        0.36366520       1.30678032       0.00151961
O        1.22498106       0.66446719       0.93398947
C        1.57261548      -0.60161630       0.61117024
N        0.92845945      -1.41267103      -0.10095883
C       -0.35869258      -1.02960750      -0.61568088
H       -1.18305014      -1.05854745       1.33141888
H       -1.92970660       0.38869628       0.22560785
H       -1.23015945       0.82745842      -1.37907325
H        0.01989372       2.21586116       0.49287109
H        0.96097535       1.59224476      -0.87179552
H        2.45665178      -0.91559558       1.15929903
H       -0.51931503      -1.42078184      -1.61485248
14
Frame=11 idx=007392 GeodesicLength=0.6891857801880701 rxn_smarts="[C:1]1([H:8])([H:9])[C@@:2]2([H:10])[C:3]([H:11])([H:12])[O:4][C:5]([H:13])=[N:6][C@@:7]12[H:14]>>[C:1]([C@@:7]1([H:14])[C:2]([H:9])([H:10])[C:3]([H:11])([H:12])[O:4][C:5]([H:13])=[N:6]1)[H:8]"
C       -1.50986659      -0.99122045       0.28914181
C       -0.79062449       0.44465590      -0.45860328
C        0.36626033       1.30681169       0.00036820
O        1.23139743       0.66525062       0.93026194
C        1.57697417      -0.60148372       0.60851996
N        0.92974080      -1.41352400      -0.09991959
C       -0.35590771      -1.02844714      -0.61559269
H       -1.18619419      -1.06124170       1.33395312
H       -1.95628639       0.37820854       0.22184108
H       -1.22803845       0.82915276      -1.37657171
H        0.02353738       2.21569234       0.49301843
H        0.96134217       1.59295467      -0.87420646
H        2.45627025      -0.91835375       1.16260891
H       -0.51860472      -1.41845576      -1.61481971
14
Frame=12 idx=007392 GeodesicLength=0.7519099559053544 rxn_smarts="[C:1]1([H:8])([H:9])[C@@:2]2([H:10])[C:3]([H:11])([H:12])[O:4][C:5]([H:13])=[N:6][C@@:7]12[H:14]>>[C:1]([C@@:7]1([H:14])[C:2]([H:9])([H:10])[C:3]([H:11])([H:12])[O:4][C:5]([H:13])=[N:6]1)[H:8]"
C       -1.50513963      -0.98132038       0.29090167
C       -0.78934521       0.44516021      -0.45609676
C        0.36902667       1.30690481      -0.00077457
O        1.23796329       0.66603894       0.92650050
C        1.58136972      -0.60138557       0.60588169
N        0.93097682      -1.41435933      -0.09882239
C       -0.35316307      -1.02720511      -0.61540777
H       -1.18946854      -1.06377608       1.33649739
H       -1.98342082       0.36681698       0.21751432
H       -1.22601399       0.83101613      -1.37388228
H        0.02738955       2.21558215       0.49319993
H        0.96185522       1.59367596      -0.87663259
H        2.45595853      -0.92109534       1.16579476
H       -0.51798855      -1.41605335      -1.61467391
14
Frame=13 idx=007392 GeodesicLength=0.8146467352765338 rxn_smarts="[C:1]1([H:8])([H:9])[C@@:2]2([H:10])[C:3]([H:11])([H:12])[O:4][C:5]([H:13])=[N:6][C@@:7]12[H:14]>>[C:1]([C@@:7]1([H:14])[C:2]([H:9])([H:10])[C:3]([H:11])([H:12])[O:4][C:5]([H:13])=[N:6]1)[H:8]"
C       -1.50036351      -0.97125084       0.29282405
C       -0.78793876       0.44580999      -0.45352750
C        0.37197527       1.30706480      -0.00190953
O        1.24468541       0.66683284       0.92270531
C        1.58579719      -0.60132496       0.60326202
N        0.93215754      -1.41517661      -0.09765821
C       -0.35046541      -1.02587307      -0.61511850
H       -1.19288372      -1.06613972       1.33905400
H       -2.01112121       0.35443023       0.21258982
H       -1.22409475       0.83306522      -1.37098993
H        0.03147067       2.21554117       0.49341154
H        0.96252540       1.59440472      -0.87907751
H        2.45572991      -0.92381937       1.16884206
H       -0.51747402      -1.41356440      -1.61440762
14
Frame=14 idx=007392 GeodesicLength=0.8773733786880422 rxn_smarts="[C:1]1([H:8])([H:9])[C@@:2]2([H:10])[C:3]([H:11])([H:12])[O:4][C:5]([H:13])=[N:6][C@@:7]12[H:14]>>[C:1]([C@@:7]1([H:14])[C:2]([H:9])([H:10])[C:3]([H:11])([H:12])[O:4][C:5]([H:13])=[N:6]1)[H:8]"
C       -1.49554886      -0.96098797       0.29491503
C       -0.78640372       0.44661959      -0.45088528
C        0.37511733       1.30729712      -0.00303700
O        1.25156983       0.66763327       0.91887771
C        1.59024919      -0.60130519       0.60066980
N        0.93327048      -1.41597508      -0.09641600
C       -0.34782316      -1.02444099      -0.61471563
H       -1.19645272      -1.06832286       1.34162566
H       -2.03938609       0.34094742       0.20702141
H       -1.22228894       0.83531830      -1.36787796
H        0.03580334       2.21558163       0.49364822
H        0.96336324       1.59513509      -0.88154536
H        2.45560090      -0.92652337       1.17173130
H       -0.51707080      -1.41097697      -1.61401189
14
Frame=15 idx=007392 GeodesicLength=0.9400809651345333 rxn_smarts="[C:1]1([H:8])([H:9])[C@@:2]2([H:10])[C:3]([H:11])([H:12])[O:4][C:5]([H:13])=[N:6][C@@:7]12[H:14]>>[C:1]([C@@:7]1([H:14])[C:2]([H:9])([H:10])[C:3]([H:11])([H:12])[O:4][C:5]([H:13])=[N:6]1)[H:8]"
C       -1.49070501      -0.95050502       0.29718284
C       -0.78473769       0.44760553      -0.44815950
C        0.37846558       1.30760879      -0.00415879
O        1.25862562       0.66844210       0.91501645
C        1.59471998      -0.60132870       0.59811051
N        0.93430288      -1.41675292      -0.09508639
C       -0.34524548      -1.02289702      -0.61418987
H       -1.20018714      -1.07031353       1.34421532
H       -2.06821440       0.32625202       0.20075946
H       -1.22060979       0.83779697      -1.36452524
H        0.04041341       2.21571749       0.49390319
H        0.96437973       1.59586221      -0.88404301
H        2.45558280      -0.92921126       1.17445264
H       -0.51679050      -1.40827665      -1.61347761
14
Frame=16 idx=007392 GeodesicLength=1.002759874913235 rxn_smarts="[C:1]1([H:8])([H:9])[C@@:2]2([H:10])[C:3]([H:11])([H:12])[O:4][C:5]([H:13])=[N:6][C@@:7]12[H:14]>>[C:1]([C@@:7]1([H:14])[C:2]([H:9])([H:10])[C:3]([H:11])([H:12])[O:4][C:5]([H:13])=[N:6]1)[H:8]"
C       -1.48584283      -0.93977285       0.29963485
C       -0.78293821       0.44878610      -0.44533966
C        0.38203364       1.30800737      -0.00527809
O        1.26586174       0.66926122       0.91111917
C        1.59920246      -0.60139816       0.59558982
N        0.93523999      -1.41750798      -0.09365945
C       -0.34274282      -1.02122790      -0.61353178
H       -1.20409914      -1.07209937       1.34682548
H       -2.09759541       0.31021608       0.19375743
H       -1.21907188       0.84052500      -1.36090953
H        0.04532845       2.21596459       0.49416815
H        0.96558668       1.59658069      -0.88657880
H        2.45568288      -0.93188747       1.17699806
H       -0.51664555      -1.40544732      -1.61279566
