14
Frame=0 idx=003796 GeodesicLength=0.0 rxn_smarts="[C:1]([C@@:2]1([H:10])[C@@:3]2([H:11])[C:4]([H:12])([H:13])[O:5][C@@:6]12[H:14])([H:7])([H:8])[H:9]>>[C:1](=[C:2]([H:9])[H:10])([H:7])[H:8].[C:3]1([H:11])=[C:6]([H:14])[O:5][C:4]1([H:12])[H:13]"
C        1.46416418      -0.28432010       0.68314206
C        0.88842511       0.31544681      -0.51129566
C       -0.60261690       0.09459676      -0.87381009
C       -1.25872542      -0.81166335       0.16758247
O       -1.20944414       0.29687308       1.11265269
C       -1.03637062       1.13239172       0.04031935
H        1.33484278      -1.33985793       0.87266082
H        2.08292070       0.28147455       1.36697167
H        1.78723692      -0.45935795      -0.72343480
H        1.27789639       1.27424506      -0.83399961
H       -0.83594165       0.03422075      -1.93093587
H       -0.73423286      -1.68855884       0.53639601
H       -2.29786141      -1.03572274      -0.07464101
H       -0.86029307       2.19023222       0.16839195
14
Frame=1 idx=003796 GeodesicLength=0.10593059266978415 rxn_smarts="[C:1]([C@@:2]1([H:10])[C@@:3]2([H:11])[C:4]([H:12])([H:13])[O:5][C@@:6]12[H:14])([H:7])([H:8])[H:9]>>[C:1](=[C:2]([H:9])[H:10])([H:7])[H:8].[C:3]1([H:11])=[C:6]([H:14])[O:5][C:4]1([H:12])[H:13]"
C        1.48551233      -0.28677307       0.67942153
C        0.90151291       0.31059132      -0.50785724
C       -0.61858016       0.09329329      -0.87999149
C       -1.27150894      -0.81129682       0.16372882
O       -1.20959604       0.29302225       1.11272077
C       -1.02434741       1.13123375       0.04257175
H        1.35303512      -1.33958936       0.88219228
H        2.07224690       0.29416186       1.37883936
H        1.81525945      -0.46589542      -0.72365974
H        1.27850473       1.27207800      -0.83681875
H       -0.85713169       0.04107381      -1.93613432
H       -0.74470753      -1.69041029       0.52496831
H       -2.31333387      -1.03350550      -0.06860120
H       -0.86686580       2.19201620       0.16861991
14
Frame=2 idx=003796 GeodesicLength=0.21183475177622352 rxn_smarts="[C:1]([C@@:2]1([H:10])[C@@:3]2([H:11])[C:4]([H:12])([H:13])[O:5][C@@:6]12[H:14])([H:7])([H:8])[H:9]>>[C:1](=[C:2]([H:9])[H:10])([H:7])[H:8].[C:3]1([H:11])=[C:6]([H:14])[O:5][C:4]1([H:12])[H:13]"
C        1.50738342      -0.28906738       0.67584817
C        0.91499878       0.30550430      -0.50435828
C       -0.63516247       0.09222880      -0.88628132
C       -1.28448847      -0.81075927       0.15991870
O       -1.20957674       0.28920602       1.11275232
C       -1.01195488       1.12988514       0.04476803
H        1.37194222      -1.33906958       0.89170504
H        2.06052552       0.30615569       1.39075518
H        1.84446536      -0.47215121      -0.72356051
H        1.27921684       1.26950134      -0.83982111
H       -0.87904106       0.04832445      -1.94132588
H       -0.75534304      -1.69212586       0.51325891
H       -2.32898917      -1.03109583      -0.06212792
H       -0.87397630       2.19346341       0.16846868
14
Frame=3 idx=003796 GeodesicLength=0.3177252996324784 rxn_smarts="[C:1]([C@@:2]1([H:10])[C@@:3]2([H:11])[C:4]([H:12])([H:13])[O:5][C@@:6]12[H:14])([H:7])([H:8])[H:9]>>[C:1](=[C:2]([H:9])[H:10])([H:7])[H:8].[C:3]1([H:11])=[C:6]([H:14])[O:5][C:4]1([H:12])[H:13]"
C        1.52975287      -0.29115041       0.67250029
C        0.92888685       0.30017836      -0.50076275
C       -0.65241412       0.09143755      -0.89268080
C       -1.29769200      -0.81003882       0.15613919
O       -1.20943529       0.28543654       1.11271919
C       -0.99921654       1.12833714       0.04686778
H        1.39158142      -1.33827146       0.90123489
H        2.04797160       0.31734142       1.40258727
H        1.87491521      -0.47807507      -0.72303157
H        1.28002843       1.26648231      -0.84300815
H       -0.90169931       0.05599729      -1.94651042
H       -0.76616693      -1.69368452       0.50125318
H       -2.34483895      -1.02849884      -0.05523577
H       -0.88167325       2.19450851       0.16792767
14
Frame=4 idx=003796 GeodesicLength=0.4236218111018065 rxn_smarts="[C:1]([C@@:2]1([H:10])[C@@:3]2([H:11])[C:4]([H:12])([H:13])[O:5][C@@:6]12[H:14])([H:7])([H:8])[H:9]>>[C:1](=[C:2]([H:9])[H:10])([H:7])[H:8].[C:3]1([H:11])=[C:6]([H:14])[O:5][C:4]1([H:12])[H:13]"
C        1.55259601      -0.29297569       0.66945239
C        0.94317961       0.29459931      -0.49703850
C       -0.67039435       0.09095541      -0.89919538
C       -1.31115083      -0.80912669       0.15237243
O       -1.20921814       0.28172044       1.11259137
C       -0.98615878       1.12657844       0.04882978
H        1.41197728      -1.33717168       0.91082267
H        2.03479043       0.32765046       1.41422435
H        1.90667246      -0.48361712      -0.72196542
H        1.28093349       1.26297479      -0.84639396
H       -0.92515285       0.06412419      -1.95169052
H       -0.77720985      -1.69507033       0.48892407
H       -2.36089904      -1.02572244      -0.04793875
H       -0.88996543       2.19508089       0.16700548
14
Frame=5 idx=003796 GeodesicLength=0.5295376805351037 rxn_smarts="[C:1]([C@@:2]1([H:10])[C@@:3]2([H:11])[C:4]([H:12])([H:13])[O:5][C@@:6]12[H:14])([H:7])([H:8])[H:9]>>[C:1](=[C:2]([H:9])[H:10])([H:7])[H:8].[C:3]1([H:11])=[C:6]([H:14])[O:5][C:4]1([H:12])[H:13]"
C        1.57588060      -0.29450214       0.66678154
C        0.95787342       0.28875232      -0.49314887
C       -0.68916864       0.09082248      -0.90583230
C       -1.32490314      -0.80801658       0.14859367
O       -1.20897917       0.27806111       1.11233508
C       -0.97281920       1.12459444       0.05061034
H        1.43314129      -1.33575418       0.92051795
H        2.02125569       0.33705292       1.42555921
H        1.93979237      -0.48873273      -0.72025096
H        1.28192237       1.25893210      -0.84999012
H       -0.94944742       0.07273665      -1.95687402
H       -0.78850712      -1.69627006       0.47623599
H       -2.37719332      -1.02277848      -0.04025943
H       -0.89884775       2.19510215       0.16572194
14
Frame=6 idx=003796 GeodesicLength=0.6354829341282133 rxn_smarts="[C:1]([C@@:2]1([H:10])[C@@:3]2([H:11])[C:4]([H:12])([H:13])[O:5][C@@:6]12[H:14])([H:7])([H:8])[H:9]>>[C:1](=[C:2]([H:9])[H:10])([H:7])[H:8].[C:3]1([H:11])=[C:6]([H:14])[O:5][C:4]1([H:12])[H:13]"
C        1.59958184      -0.29569314       0.66455256
C        0.97296657       0.28260521      -0.48907369
C       -0.70881365       0.09107683      -0.91260482
C       -1.33898495      -0.80670815       0.14477461
O       -1.20875573       0.27445187       1.11191414
C       -0.95923023       1.12236575       0.05216408
H        1.45510175      -1.33399937       0.93037879
H        2.00754726       0.34557441       1.43652202
H        1.97433631      -0.49336590      -0.71777980
H        1.28298326       1.25427721      -0.85383820
H       -0.97466027       0.08188242      -1.96206858
H       -0.80009003      -1.69727829       0.46313631
H       -2.39374344      -1.01968316      -0.03221048
H       -0.90823869       2.19449433       0.16413306
14
Frame=7 idx=003796 GeodesicLength=0.7414696777330468 rxn_smarts="[C:1]([C@@:2]1([H:10])[C@@:3]2([H:11])[C:4]([H:12])([H:13])[O:5][C@@:6]12[H:14])([H:7])([H:8])[H:9]>>[C:1](=[C:2]([H:9])[H:10])([H:7])[H:8].[C:3]1([H:11])=[C:6]([H:14])[O:5][C:4]1([H:12])[H:13]"
C        1.62367101      -0.29651298       0.66282718
C        0.98844791       0.27612761      -0.48479055
C       -0.72941562       0.09176465      -0.91952413
C       -1.35343642      -0.80520503       0.14088233
O       -1.20859097       0.27087861       1.11129296
C       -0.94543859       1.11986629       0.05344494
H        1.47787590      -1.33188692       0.94047152
H        1.99388389       0.35326504       1.44704904
H        2.01035957      -0.49747115      -0.71444560
H        1.28409807       1.24893745      -0.85798024
H       -1.00085964       0.09160249      -1.96728645
H       -0.81198882      -1.69809222       0.44956425
H       -2.41057768      -1.01646238      -0.02381017
H       -0.91802860       2.19318856       0.16230491
14
Frame=8 idx=003796 GeodesicLength=0.8475082566572674 rxn_smarts="[C:1]([C@@:2]1([H:10])[C@@:3]2([H:11])[C:4]([H:12])([H:13])[O:5][C@@:6]12[H:14])([H:7])([H:8])[H:9]>>[C:1](=[C:2]([H:9])[H:10])([H:7])[H:8].[C:3]1([H:11])=[C:6]([H:14])[O:5][C:4]1([H:12])[H:13]"
C        1.64812596      -0.29692469       0.66166154
C        1.00431229       0.26927087      -0.48028786
C       -0.75107199       0.09292756      -0.92661000
C       -1.36829394      -0.80351811       0.13687888
O       -1.20851204       0.26731966       1.11042906
C       -0.93148405       1.11706319       0.05439880
H        1.50149329      -1.32939048       0.95087037
H        1.98040080       0.36021426       1.45710507
H        2.04792420      -0.50098011      -0.71013346
H        1.28524695       1.24280328      -0.86248530
H       -1.02816223       0.10196230      -1.97253524
H       -0.82422788      -1.69871606       0.43544226
H       -2.42771643      -1.01314869      -0.01506620
H       -0.92803494       2.19111701       0.16033207
14
Frame=9 idx=003796 GeodesicLength=0.9536254249119451 rxn_smarts="[C:1]([C@@:2]1([H:10])[C@@:3]2([H:11])[C:4]([H:12])([H:13])[O:5][C@@:6]12[H:14])([H:7])([H:8])[H:9]>>[C:1](=[C:2]([H:9])[H:10])([H:7])[H:8].[C:3]1([H:11])=[C:6]([H:14])[O:5][C:4]1([H:12])[H:13]"
C        1.67293975      -0.29688219       0.66111422
C        1.02056977       0.26181947      -0.47559884
C       -0.77397982       0.09462940      -0.93387887
C       -1.38361545      -0.80167764       0.13268767
O       -1.20850440       0.26368591       1.10926530
C       -0.91734662       1.11389267       0.05498793
H        1.52607991      -1.32645943       0.96170372
H        1.96704982       0.36672997       1.46674411
H        2.08714636      -0.50367848      -0.70465993
H        1.28636673       1.23554327      -0.86755585
H       -1.05680045       0.11315606      -1.97780813
H       -0.83685800      -1.69918010       0.42058081
H       -2.44519810      -1.00977485      -0.00597289
H       -0.93784948       2.18819594       0.15839073
14
Frame=10 idx=003796 GeodesicLength=1.0597551409296446 rxn_smarts="[C:1]([C@@:2]1([H:10])[C@@:3]2([H:11])[C:4]([H:12])([H:13])[O:5][C@@:6]12[H:14])([H:7])([H:8])[H:9]>>[C:1](=[C:2]([H:9])[H:10])([H:7])[H:8].[C:3]1([H:11])=[C:6]([H:14])[O:5][C:4]1([H:12])[H:13]"
C        1.69808907      -0.29634318       0.66120865
C        1.03719041       0.25385234      -0.47068724
C       -0.79815686       0.09691243      -0.94133389
C       -1.39941323      -0.79968427       0.12830445
O       -1.20861299       0.25999538       1.10777985
C       -0.90312961       1.11032812       0.05513900
H        1.55159813      -1.32305545       0.97301383
H        1.95399055       0.37274182       1.47589252
H        2.12800380      -0.50561397      -0.69800449
H        1.28746409       1.22720818      -0.87317130
H       -1.08677835       0.12513270      -1.98310890
H       -0.84987280      -1.69946629       0.40497352
H       -2.46301716      -1.00639462       0.00345806
H       -0.94735504       2.18438680       0.15653594
14
Frame=11 idx=003796 GeodesicLength=1.1659075675867785 rxn_smarts="[C:1]([C@@:2]1([H:10])[C@@:3]2([H:11])[C:4]([H:12])([H:13])[O:5][C@@:6]12[H:14])([H:7])([H:8])[H:9]>>[C:1](=[C:2]([H:9])[H:10])([H:7])[H:8].[C:3]1([H:11])=[C:6]([H:14])[O:5][C:4]1([H:12])[H:13]"
C        1.72356406      -0.29526563       0.66197899
C        1.05416470       0.24529848      -0.46555754
C       -0.82372524       0.09983077      -0.94898391
C       -1.41572091      -0.79756040       0.12368416
O       -1.20884604       0.25620104       1.10593181
C       -0.88887599       1.10631422       0.05479539
H        1.57808885      -1.31912756       0.98489435
H        1.94123537       0.37839397       1.48455769
H        2.17055594      -0.50670698      -0.69006697
H        1.28850008       1.21764624      -0.87943871
H       -1.11823108       0.13796694      -1.98843568
H       -0.86328860      -1.69958714       0.38850677
H       -2.48118776      -1.00306394       0.01323112
H       -0.95623339       2.17966000       0.15490252
14
Frame=12 idx=003796 GeodesicLength=1.2720716216078813 rxn_smarts="[C:1]([C@@:2]1([H:10])[C@@:3]2([H:11])[C:4]([H:12])([H:13])[O:5][C@@:6]12[H:14])([H:7])([H:8])[H:9]>>[C:1](=[C:2]([H:9])[H:10])([H:7])[H:8].[C:3]1([H:11])=[C:6]([H:14])[O:5][C:4]1([H:12])[H:13]"
C        1.74936053      -0.29360240       0.66345668
C        1.07148717       0.23606459      -0.46021561
C       -0.85081026       0.10343952      -0.95683628
C       -1.43257264      -0.79533379       0.11878020
O       -1.20920307       0.25224460       1.10367855
C       -0.87461921       1.10178442       0.05389656
H        1.60560938      -1.31461284       0.99745028
H        1.92875291       0.38383797       1.49274778
H        2.21485886      -0.50684404      -0.68073835
H        1.28943622       1.20666626      -0.88647737
H       -1.15131945       0.15175704      -1.99377316
H       -0.87712777      -1.69955947       0.37105035
H       -2.49971924      -0.99984288       0.02335495
H       -0.96413342       2.17400102       0.15362542
14
Frame=13 idx=003796 GeodesicLength=1.3782333202001993 rxn_smarts="[C:1]([C@@:2]1([H:10])[C@@:3]2([H:11])[C:4]([H:12])([H:13])[O:5][C@@:6]12[H:14])([H:7])([H:8])[H:9]>>[C:1](=[C:2]([H:9])[H:10])([H:7])[H:8].[C:3]1([H:11])=[C:6]([H:14])[O:5][C:4]1([H:12])[H:13]"
C        1.77547187      -0.29130324       0.66567714
C        1.08914586       0.22606419      -0.45465525
C       -0.87953619       0.10780121      -0.96488991
C       -1.45000382      -0.79303446       0.11354358
O       -1.20969160       0.24806056       1.10098003
C       -0.86039823       1.09666689       0.05238833
H        1.63420999      -1.30943864       1.01079933
H        1.91658214       0.38921602       1.50045781
H        2.26094786      -0.50594000      -0.66991644
H        1.29022941       1.19408433      -0.89439345
H       -1.18618907       0.16660314      -1.99910191
H       -0.89141186      -1.69939999       0.35246777
H       -2.51862240      -0.99679961       0.03382274
H       -0.97073398       2.16741959       0.15282024
14
Frame=14 idx=003796 GeodesicLength=1.4843736627535746 rxn_smarts="[C:1]([C@@:2]1([H:10])[C@@:3]2([H:11])[C:4]([H:12])([H:13])[O:5][C@@:6]12[H:14])([H:7])([H:8])[H:9]>>[C:1](=[C:2]([H:9])[H:10])([H:7])[H:8].[C:3]1([H:11])=[C:6]([H:14])[O:5][C:4]1([H:12])[H:13]"
C        1.80190353      -0.28831098       0.66867491
C        1.10714450       0.21516885      -0.44887715
C       -0.91004547       0.11299176      -0.97313388
C       -1.46804750      -0.79069380       0.10792037
O       -1.21030027       0.24357595       1.09778903
C       -0.84622645       1.09087489       0.05020231
H        1.66396829      -1.30351534       1.02507264
H        1.90466118       0.39467516       1.50768619
H        2.30886737      -0.50384289      -0.65747793
H        1.29084044       1.17963422      -0.90332428
H       -1.22303290       0.18265385      -2.00437440
H       -0.90616503      -1.69912359       0.33259468
H       -2.53789468      -0.99400716       0.04464399
H       -0.97567302       2.15991907       0.15260351
14
Frame=15 idx=003796 GeodesicLength=1.5904877014844496 rxn_smarts="[C:1]([C@@:2]1([H:10])[C@@:3]2([H:11])[C:4]([H:12])([H:13])[O:5][C@@:6]12[H:14])([H:7])([H:8])[H:9]>>[C:1](=[C:2]([H:9])[H:10])([H:7])[H:8].[C:3]1([H:11])=[C:6]([H:14])[O:5][C:4]1([H:12])[H:13]"
C        1.82866249      -0.28456366       0.67248724
C        1.12548653       0.20325123      -0.44287009
C       -0.94248870       0.11910617      -0.98154201
C       -1.48673779      -0.78834375       0.10185178
O       -1.21102055       0.23870937       1.09405899
C       -0.83211536       1.08431459       0.04727300
H        1.69495703      -1.29673929       1.04041951
H        1.89298441       0.40035905       1.51441807
H        2.35864689      -0.50041903      -0.64330193
H        1.29122706       1.16303297      -0.91340309
H       -1.26203163       0.20006709      -2.00953530
H       -0.92141272      -1.69874352       0.31124760
H       -2.55753479      -0.99154335       0.05582005
H       -0.97862287       2.15151211       0.15307617
14
Frame=16 idx=003796 GeodesicLength=1.6965499033110638 rxn_smarts="[C:1]([C@@:2]1([H:10])[C@@:3]2([H:11])[C:4]([H:12])([H:13])[O:5][C@@:6]12[H:14])([H:7])([H:8])[H:9]>>[C:1](=[C:2]([H:9])[H:10])([H:7])[H:8].[C:3]1([H:11])=[C:6]([H:14])[O:5][C:4]1([H:12])[H:13]"
C        1.85576124      -0.27999108       0.67715279
C        1.14418187       0.19015534      -0.43661674
C       -0.97701648       0.12625312      -0.99007150
C       -1.50611143      -0.78601631       0.09527245
O       -1.21183985       0.23336986       1.08973840
C       -0.81806349       1.07687733       0.04352818
H        1.72726529      -1.28898214       1.05700965
H        1.88154217       0.40641471       1.52062959
H        2.41029869      -0.49550663      -0.62726692
H        1.29134778       1.14394103      -0.92476669
H       -1.30338318       0.21904293      -2.01449595
H       -0.93719180      -1.69826927       0.28822190
H       -2.57753325      -0.98948973       0.06734449
H       -0.97925757       2.14220083       0.15432035
