14
Frame=0 idx=005325 GeodesicLength=0.0 rxn_smarts="[O:1]([C:2]([C:3]([C@@:4]1([H:12])[C:5]([H:13])([H:14])[O:6]1)([H:10])[H:11])([H:8])[H:9])[H:7]>>[O:1]([C:2]([C:3]([C:4]([O+:6]=[C-:5][H:14])([H:12])[H:13])([H:10])[H:11])([H:8])[H:9])[H:7]"
O        1.87997618       1.04440457       0.54843970
C        1.63993588      -0.20770149      -0.04553216
C        0.30386726      -0.81949490       0.36799077
C       -0.86685378      -0.18514087      -0.34988963
C       -2.18470987       1.00513821       0.31648043
O       -0.89996060       1.23240272      -0.15986916
H        1.09242293       1.58476477       0.43516813
H        1.69596942      -0.14408288      -1.14255341
H        2.44955420      -0.86329539       0.28003665
H        0.29832211      -1.88947256       0.14221978
H        0.17571631      -0.70176343       1.44635784
H       -0.95710562      -0.41687598      -1.41152862
H       -1.80872754      -0.57772580       0.18026073
H       -2.81840692       0.93884305      -0.60758099
14
Frame=1 idx=005325 GeodesicLength=0.057904781703483454 rxn_smarts="[O:1]([C:2]([C:3]([C@@:4]1([H:12])[C:5]([H:13])([H:14])[O:6]1)([H:10])[H:11])([H:8])[H:9])[H:7]>>[O:1]([C:2]([C:3]([C:4]([O+:6]=[C-:5][H:14])([H:12])[H:13])([H:10])[H:11])([H:8])[H:9])[H:7]"
O        1.88087510       1.04355767       0.55075897
C        1.64138251      -0.20813141      -0.04491678
C        0.30418654      -0.81930222       0.36562742
C       -0.86665770      -0.18428872      -0.35108560
C       -2.18085270       1.00530801       0.31029014
O       -0.89933330       1.23453449      -0.16443521
H        1.09483541       1.58546632       0.43461266
H        1.69917656      -0.14322066      -1.14184384
H        2.45029442      -0.86407553       0.28170920
H        0.29889208      -1.88898966       0.13758341
H        0.17469682      -0.70413937       1.44427929
H       -0.94999512      -0.41563753      -1.41362534
H       -1.82087457      -0.57386386       0.19417875
H       -2.82662604       0.93278248      -0.60313306
14
Frame=2 idx=005325 GeodesicLength=0.11580858150990472 rxn_smarts="[O:1]([C:2]([C:3]([C@@:4]1([H:12])[C:5]([H:13])([H:14])[O:6]1)([H:10])[H:11])([H:8])[H:9])[H:7]>>[O:1]([C:2]([C:3]([C:4]([O+:6]=[C-:5][H:14])([H:12])[H:13])([H:10])[H:11])([H:8])[H:9])[H:7]"
O        1.88174216       1.04269813       0.55310554
C        1.64284015      -0.20857128      -0.04429147
C        0.30449712      -0.81911858       0.36318845
C       -0.86642627      -0.18343423      -0.35242390
C       -2.17707248       1.00542799       0.30390553
O       -0.89871610       1.23664208      -0.16902071
H        1.09723603       1.58615346       0.43405269
H        1.70246586      -0.14236549      -1.14111596
H        2.45102348      -0.86486775       0.28343684
H        0.29945638      -1.88850571       0.13284788
H        0.17363012      -0.70656102       1.44211666
H       -0.94277827      -0.41431079      -1.41584463
H       -1.83305419      -0.56980241       0.20865153
H       -2.83484399       0.92661559      -0.59860847
14
Frame=3 idx=005325 GeodesicLength=0.1737107291230638 rxn_smarts="[O:1]([C:2]([C:3]([C@@:4]1([H:12])[C:5]([H:13])([H:14])[O:6]1)([H:10])[H:11])([H:8])[H:9])[H:7]>>[O:1]([C:2]([C:3]([C:4]([O+:6]=[C-:5][H:14])([H:12])[H:13])([H:10])[H:11])([H:8])[H:9])[H:7]"
O        1.88257753       1.04182576       0.55547448
C        1.64430844      -0.20902281      -0.04365657
C        0.30479795      -0.81894360       0.36067290
C       -0.86615557      -0.18257627      -0.35391256
C       -2.17337837       1.00547876       0.29732478
O       -0.89811470       1.23872492      -0.17361062
H        1.09962467       1.58682518       0.43348506
H        1.70583920      -0.14152317      -1.14036973
H        2.45174008      -0.86567335       0.28522134
H        0.30001243      -1.88802078       0.12801683
H        0.17251394      -0.70902484       1.43986794
H       -0.93544574      -0.41288418      -1.41819539
H       -1.84526326      -0.56552670       0.22369327
H       -2.84305659       0.92034108      -0.59401173
14
Frame=4 idx=005325 GeodesicLength=0.23161238394449576 rxn_smarts="[O:1]([C:2]([C:3]([C@@:4]1([H:12])[C:5]([H:13])([H:14])[O:6]1)([H:10])[H:11])([H:8])[H:9])[H:7]>>[O:1]([C:2]([C:3]([C:4]([O+:6]=[C-:5][H:14])([H:12])[H:13])([H:10])[H:11])([H:8])[H:9])[H:7]"
O        1.88338154       1.04094435       0.55786200
C        1.64578752      -0.20948696      -0.04301256
C        0.30508835      -0.81877994       0.35808058
C       -0.86584035      -0.18171729      -0.35556121
C       -2.16977800       1.00543975       0.29054926
O       -0.89753436       1.24078427      -0.17819177
H        1.10200119       1.58748432       0.43290800
H        1.70929963      -0.14069846      -1.13960750
H        2.45244335      -0.86649281       0.28706499
H        0.30055841      -1.88754083       0.12309429
H        0.17134501      -0.71152955       1.43753456
H       -0.92798924      -0.41135258      -1.42069082
H       -1.85750262      -0.56101436       0.23931382
H       -2.85126043       0.91396009      -0.58934365
14
Frame=5 idx=005325 GeodesicLength=0.2894623239264433 rxn_smarts="[O:1]([C:2]([C:3]([C@@:4]1([H:12])[C:5]([H:13])([H:14])[O:6]1)([H:10])[H:11])([H:8])[H:9])[H:7]>>[O:1]([C:2]([C:3]([C:4]([O+:6]=[C-:5][H:14])([H:12])[H:13])([H:10])[H:11])([H:8])[H:9])[H:7]"
O        1.88414683       1.04004190       0.56026230
C        1.64727020      -0.20996995      -0.04235987
C        0.30536022      -0.81862115       0.35540450
C       -0.86548695      -0.18084925      -0.35737826
C       -2.16627777       1.00530147       0.28357030
O       -0.89698409       1.24281336      -0.18275597
H        1.10435857       1.58811949       0.43231791
H        1.71284360      -0.13989982      -1.13882342
H        2.45312290      -0.86733502       0.28896842
H        0.30108431      -1.88705391       0.11807787
H        0.17011816      -0.71406867       1.43510263
H       -0.92037249      -0.40966803      -1.42333960
H       -1.86973066      -0.55624478       0.25557317
H       -2.85945282       0.90743438      -0.58462000
14
Frame=6 idx=005325 GeodesicLength=0.3473227071696366 rxn_smarts="[O:1]([C:2]([C:3]([C@@:4]1([H:12])[C:5]([H:13])([H:14])[O:6]1)([H:10])[H:11])([H:8])[H:9])[H:7]>>[O:1]([C:2]([C:3]([C:4]([O+:6]=[C-:5][H:14])([H:12])[H:13])([H:10])[H:11])([H:8])[H:9])[H:7]"
O        1.88487572       1.03912586       0.56268885
C        1.64876166      -0.21046661      -0.04169715
C        0.30561818      -0.81847557       0.35264222
C       -0.86508508      -0.17998016      -0.35937552
C       -2.16287254       1.00505735       0.27638062
O       -0.89645758       1.24481853      -0.18731885
H        1.10669779       1.58873680       0.43173175
H        1.71647907      -0.13911304      -1.13802098
H        2.45378552      -0.86819495       0.29092959
H        0.30159778      -1.88657331       0.11296117
H        0.16882802      -0.71665171       1.43257472
H       -0.91262041      -0.40787403      -1.42614971
H       -1.88197300      -0.55118505       0.27248239
H       -2.86763512       0.90077588      -0.57982911
14
Frame=7 idx=005325 GeodesicLength=0.40516750752843056 rxn_smarts="[O:1]([C:2]([C:3]([C@@:4]1([H:12])[C:5]([H:13])([H:14])[O:6]1)([H:10])[H:11])([H:8])[H:9])[H:7]>>[O:1]([C:2]([C:3]([C:4]([O+:6]=[C-:5][H:14])([H:12])[H:13])([H:10])[H:11])([H:8])[H:9])[H:7]"
O        1.88556069       1.03819151       0.56514442
C        1.65025911      -0.21097959      -0.04102286
C        0.30585846      -0.81834382       0.34978647
C       -0.86463586      -0.17911100      -0.36156471
C       -2.15956169       1.00470018       0.26897415
O       -0.89595887       1.24679691      -0.19188978
H        1.10901126       1.58933090       0.43115079
H        1.72020953      -0.13834042      -1.13719598
H        2.45442618      -0.86907522       0.29295453
H        0.30209726      -1.88609735       0.10773526
H        0.16746735      -0.71928091       1.42994110
H       -0.90471457      -0.40595608      -1.42913268
H       -1.89420785      -0.54579516       0.29008423
H       -2.87581099       0.89396006      -0.57496496
14
Frame=8 idx=005325 GeodesicLength=0.46299464263593354 rxn_smarts="[O:1]([C:2]([C:3]([C@@:4]1([H:12])[C:5]([H:13])([H:14])[O:6]1)([H:10])[H:11])([H:8])[H:9])[H:7]>>[O:1]([C:2]([C:3]([C:4]([O+:6]=[C-:5][H:14])([H:12])[H:13])([H:10])[H:11])([H:8])[H:9])[H:7]"
O        1.88619354       1.03723801       0.56763245
C        1.65175973      -0.21150975      -0.04033471
C        0.30607814      -0.81822890       0.34682975
C       -0.86413629      -0.17824602      -0.36396011
C       -2.15633942       1.00421771       0.26134675
O       -0.89549010       1.24874616      -0.19648071
H        1.11129195       1.58989915       0.43057660
H        1.72403961      -0.13758242      -1.13634337
H        2.45503887      -0.86997521       0.29505128
H        0.30258241      -1.88562864       0.10239124
H        0.16602796      -0.72196030       1.42719218
H       -0.89664118      -0.40390972      -1.43230106
H       -1.90642367      -0.54002694       0.30841133
H       -2.88398155       0.88696687      -0.57001161
14
Frame=9 idx=005325 GeodesicLength=0.5208229888173299 rxn_smarts="[O:1]([C:2]([C:3]([C@@:4]1([H:12])[C:5]([H:13])([H:14])[O:6]1)([H:10])[H:11])([H:8])[H:9])[H:7]>>[O:1]([C:2]([C:3]([C:4]([O+:6]=[C-:5][H:14])([H:12])[H:13])([H:10])[H:11])([H:8])[H:9])[H:7]"
O        1.88676951       1.03626245       0.57016157
C        1.65326625      -0.21205954      -0.03962729
C        0.30627504      -0.81813153       0.34376243
C       -0.86358429      -0.17737950      -0.36657515
C       -2.15321201       1.00360195       0.25349065
O       -0.89505595       1.25066952      -0.20109208
H        1.11354135       1.59044344       0.42999377
H        1.72798503      -0.13684352      -1.13545814
H        2.45562295      -0.87089826       0.29723562
H        0.30305025      -1.88516508       0.09690993
H        0.16450105      -0.72469835       1.42431841
H       -0.88839668      -0.40172402      -1.43566715
H       -1.91860793      -0.53385129       0.32751238
H       -2.89215458       0.87977374      -0.56496498
14
Frame=10 idx=005325 GeodesicLength=0.5786424098488678 rxn_smarts="[O:1]([C:2]([C:3]([C@@:4]1([H:12])[C:5]([H:13])([H:14])[O:6]1)([H:10])[H:11])([H:8])[H:9])[H:7]>>[O:1]([C:2]([C:3]([C:4]([O+:6]=[C-:5][H:14])([H:12])[H:13])([H:10])[H:11])([H:8])[H:9])[H:7]"
O        1.88727983       1.03526410       0.57273580
C        1.65477621      -0.21263060      -0.03889744
C        0.30644578      -0.81805550       0.34057637
C       -0.86297747      -0.17651557      -0.36942646
C       -2.15017830       1.00283625       0.24540258
O       -0.89466181       1.25256447      -0.20573111
H        1.11575264       1.59096231       0.42940034
H        1.73205215      -0.13612548      -1.13453526
H        2.45617294      -0.87184503       0.29951721
H        0.30349943      -1.88471045       0.09128187
H        0.16287756      -0.72750063       1.42131032
H       -0.87996564      -0.39939052      -1.43924746
H       -1.93074214      -0.52721142       0.34742459
H       -2.90033117       0.87235808      -0.55981134
14
Frame=11 idx=005325 GeodesicLength=0.6364518326719749 rxn_smarts="[O:1]([C:2]([C:3]([C@@:4]1([H:12])[C:5]([H:13])([H:14])[O:6]1)([H:10])[H:11])([H:8])[H:9])[H:7]>>[O:1]([C:2]([C:3]([C:4]([O+:6]=[C-:5][H:14])([H:12])[H:13])([H:10])[H:11])([H:8])[H:9])[H:7]"
O        1.88771669       1.03424118       0.57535947
C        1.65628799      -0.21322484      -0.03814204
C        0.30658715      -0.81800336       0.33726322
C       -0.86231215      -0.17565529      -0.37253103
C       -2.14723938       1.00190403       0.23707792
O       -0.89431330       1.25442938      -0.21040273
H        1.11791984       1.59145370       0.42879450
H        1.73624894      -0.13543077      -1.13357007
H        2.45668428      -0.87281699       0.30190546
H        0.30392846      -1.88426639       0.08549682
H        0.16114717      -0.73037138       1.41815799
H       -0.87133509      -0.39690055      -1.44305719
H       -1.94280811      -0.52005572       0.36818678
H       -2.90851250       0.86469698      -0.55453911
14
Frame=12 idx=005325 GeodesicLength=0.694250993018688 rxn_smarts="[O:1]([C:2]([C:3]([C@@:4]1([H:12])[C:5]([H:13])([H:14])[O:6]1)([H:10])[H:11])([H:8])[H:9])[H:7]>>[O:1]([C:2]([C:3]([C:4]([O+:6]=[C-:5][H:14])([H:12])[H:13])([H:10])[H:11])([H:8])[H:9])[H:7]"
O        1.88807130       1.03319209       0.57803751
C        1.65779994      -0.21384412      -0.03735754
C        0.30669584      -0.81797837       0.33381403
C       -0.86158450      -0.17480035      -0.37590741
C       -2.14439593       1.00078687       0.22851265
O       -0.89401684       1.25626212      -0.21511313
H        1.12003598       1.59191557       0.42817449
H        1.74058407      -0.13476160      -1.13255741
H        2.45715240      -0.87381539       0.30441094
H        0.30433627      -1.88383539       0.07954381
H        0.15929874      -0.73331582       1.41485084
H       -0.86249176      -0.39424569      -1.44711297
H       -1.95478631      -0.51232612       0.38983854
H       -2.91669920       0.85676620      -0.54913433
14
Frame=13 idx=005325 GeodesicLength=0.7520399399423375 rxn_smarts="[O:1]([C:2]([C:3]([C@@:4]1([H:12])[C:5]([H:13])([H:14])[O:6]1)([H:10])[H:11])([H:8])[H:9])[H:7]>>[O:1]([C:2]([C:3]([C:4]([O+:6]=[C-:5][H:14])([H:12])[H:13])([H:10])[H:11])([H:8])[H:9])[H:7]"
O        1.88833308       1.03211531       0.58077596
C        1.65930956      -0.21449032      -0.03653983
C        0.30676835      -0.81798416       0.33021851
C       -0.86078937      -0.17395317      -0.37957592
C       -2.14164681       0.99946587       0.21970275
O       -0.89377850       1.25806010      -0.21987156
H        1.12209266       1.59234551       0.42753979
H        1.74506631      -0.13412016      -1.13149083
H        2.45757102      -0.87484117       0.30704511
H        0.30472201      -1.88342016       0.07340990
H        0.15731979      -0.73633959       1.41137640
H       -0.85342101      -0.39141872      -1.45143231
H       -1.96665450      -0.50395736       0.41242065
H       -2.92489259       0.84853802      -0.54357863
14
Frame=14 idx=005325 GeodesicLength=0.8098217564696158 rxn_smarts="[O:1]([C:2]([C:3]([C@@:4]1([H:12])[C:5]([H:13])([H:14])[O:6]1)([H:10])[H:11])([H:8])[H:9])[H:7]>>[O:1]([C:2]([C:3]([C:4]([O+:6]=[C-:5][H:14])([H:12])[H:13])([H:10])[H:11])([H:8])[H:9])[H:7]"
O        1.88849285       1.03101146       0.58359125
C        1.66081418      -0.21516338      -0.03568533
C        0.30680091      -0.81802948       0.32646689
C       -0.85992505      -0.17311972      -0.38355865
C       -2.13898958       0.99792813       0.21063618
O       -0.89360200       1.25982277      -0.22469737
H        1.12408145       1.59274511       0.42690353
H        1.74969840      -0.13349639      -1.13036874
H        2.45793805      -0.87589629       0.30981129
H        0.30508585      -1.88303197       0.06708170
H        0.15520010      -0.73945639       1.40772718
H       -0.84411810      -0.38842381      -1.45603635
H       -1.97838572      -0.49487425       0.43599172
H       -2.93309133       0.83998421      -0.53786330
14
Frame=15 idx=005325 GeodesicLength=0.8675784176136909 rxn_smarts="[O:1]([C:2]([C:3]([C@@:4]1([H:12])[C:5]([H:13])([H:14])[O:6]1)([H:10])[H:11])([H:8])[H:9])[H:7]>>[O:1]([C:2]([C:3]([C:4]([O+:6]=[C-:5][H:14])([H:12])[H:13])([H:10])[H:11])([H:8])[H:9])[H:7]"
O        1.88852462       1.02986383       0.58648878
C        1.66230846      -0.21586459      -0.03478901
C        0.30679115      -0.81811336       0.32254456
C       -0.85898404      -0.17230795      -0.38787391
C       -2.13642142       0.99614165       0.20131006
O       -0.89349572       1.26152857      -0.22960602
H        1.12597729       1.59309077       0.42626732
H        1.75448960      -0.13288737      -1.12917129
H        2.45824730      -0.87697486       0.31271119
H        0.30543829      -1.88265835       0.06054618
H        0.15292099      -0.74266772       1.40387453
H       -0.83456194      -0.38526208      -1.46092873
H       -1.98994893      -0.48496798       0.46058485
H       -2.94128563       0.83107943      -0.53195852
14
Frame=16 idx=005325 GeodesicLength=0.9253369930594744 rxn_smarts="[O:1]([C:2]([C:3]([C@@:4]1([H:12])[C:5]([H:13])([H:14])[O:6]1)([H:10])[H:11])([H:8])[H:9])[H:7]>>[O:1]([C:2]([C:3]([C:4]([O+:6]=[C-:5][H:14])([H:12])[H:13])([H:10])[H:11])([H:8])[H:9])[H:7]"
O        1.88841825       1.02868309       0.58949188
C        1.66379053      -0.21659465      -0.03384274
C        0.30673252      -0.81825046       0.31843371
C       -0.85796540      -0.17152167      -0.39255753
C       -2.13393256       0.99410235       0.19171040
O       -0.89346236       1.26318794      -0.23463651
H        1.12777317       1.59339645       0.42564106
H        1.75945438      -0.13228844      -1.12789828
H        2.45848936      -0.87808249       0.31577456
H        0.30577245      -1.88232066       0.05376921
H        0.15046574      -0.74599932       1.39980909
H       -0.82474588      -0.38193210      -1.46615056
H       -2.00130212      -0.47414968       0.48628735
H       -2.94948806       0.82176963      -0.52583163
