14
Frame=0 idx=008892 GeodesicLength=0.0 rxn_smarts="[O:1]=[C:2]1[C:3]([H:8])([H:9])[N:4]2[C:5]([H:10])([H:11])[C:6]1([H:12])[C:7]2([H:13])[H:14]>>[O:1]=[C:2]1[C:3]([H:8])([H:9])[N+:4]2([H:14])[C:5]([H:10])([H:11])[C@:6]1([H:12])[C-:7]2[H:13]"
O       -1.62194429       1.39133968       1.38057041
C       -0.91303105       0.71591666       0.69555017
C       -1.29453218      -0.09743691      -0.55007415
N       -0.02527171      -0.73149780      -0.94916707
C        0.95594375       0.37398380      -0.66526549
C        0.56822253       0.43204054       0.80732835
C        0.59817792      -1.10776683       0.92734748
H       -1.62850244       0.56191285      -1.35445067
H       -2.07285027      -0.83095966      -0.34572516
H        0.74521007       1.24356368      -1.30086680
H        1.97641187       0.03868145      -0.83525746
H        1.11133629       1.01166328       1.54821567
H        1.62931688      -1.42143113       0.70670181
H       -0.02848742      -1.58000966      -0.06490713
14
Frame=1 idx=008892 GeodesicLength=0.07846417869292119 rxn_smarts="[O:1]=[C:2]1[C:3]([H:8])([H:9])[N:4]2[C:5]([H:10])([H:11])[C:6]1([H:12])[C:7]2([H:13])[H:14]>>[O:1]=[C:2]1[C:3]([H:8])([H:9])[N+:4]2([H:14])[C:5]([H:10])([H:11])[C@:6]1([H:12])[C-:7]2[H:13]"
O       -1.62164900       1.39842220       1.37748489
C       -0.91229903       0.71910751       0.69661602
C       -1.29250989      -0.09750230      -0.54738314
N       -0.01908636      -0.73125491      -0.93348669
C        0.95787805       0.37975891      -0.66463110
C        0.56891599       0.43705020       0.80858021
C        0.59351272      -1.10434222       0.91201746
H       -1.62587150       0.55717177      -1.35569598
H       -2.07048444      -0.83061593      -0.34068101
H        0.74363913       1.24678905      -1.30223444
H        1.97917131       0.04673074      -0.83432119
H        1.11209730       1.01340734       1.55180486
H        1.62541264      -1.42247624       0.70329294
H       -0.03872692      -1.61224612      -0.07136282
14
Frame=2 idx=008892 GeodesicLength=0.15698822514636313 rxn_smarts="[O:1]=[C:2]1[C:3]([H:8])([H:9])[N:4]2[C:5]([H:10])([H:11])[C:6]1([H:12])[C:7]2([H:13])[H:14]>>[O:1]=[C:2]1[C:3]([H:8])([H:9])[N+:4]2([H:14])[C:5]([H:10])([H:11])[C@:6]1([H:12])[C-:7]2[H:13]"
O       -1.62128359       1.40555692       1.37437247
C       -0.91151452       0.72240350       0.69763309
C       -1.29051862      -0.09758754      -0.54465165
N       -0.01307677      -0.73102310      -0.91792211
C        0.95968515       0.38546404      -0.66404373
C        0.56963883       0.44194391       0.80988110
C        0.58857807      -1.10102378       0.89676447
H       -1.62336270       0.55233428      -1.35687780
H       -2.06803970      -0.83036584      -0.33546202
H        0.74199545       1.24991831      -1.30366027
H        1.98176467       0.05457935      -0.83339173
H        1.11293175       1.01496477       1.55543679
H        1.62119946      -1.42354670       0.70035191
H       -0.04799749      -1.64361812      -0.07843053
14
Frame=3 idx=008892 GeodesicLength=0.23556389502306202 rxn_smarts="[O:1]=[C:2]1[C:3]([H:8])([H:9])[N:4]2[C:5]([H:10])([H:11])[C:6]1([H:12])[C:7]2([H:13])[H:14]>>[O:1]=[C:2]1[C:3]([H:8])([H:9])[N+:4]2([H:14])[C:5]([H:10])([H:11])[C@:6]1([H:12])[C-:7]2[H:13]"
O       -1.62085847       1.41271909       1.37124595
C       -0.91068941       0.72578043       0.69861027
C       -1.28857012      -0.09768115      -0.54188804
N       -0.00726141      -0.73077774      -0.90252749
C        0.96136767       0.39106479      -0.66349765
C        0.57037888       0.44671618       0.81122232
C        0.58342949      -1.09778803       0.88166529
H       -1.62098896       0.54743567      -1.35798475
H       -2.06552210      -0.83020578      -0.33008838
H        0.74031402       1.25294178      -1.30511969
H        1.98419358       0.06218955      -0.83246576
H        1.11382346       1.01638138       1.55906877
H        1.61669268      -1.42464626       0.69785542
H       -0.05630930      -1.67412991      -0.08609626
14
Frame=4 idx=008892 GeodesicLength=0.3141653181155428 rxn_smarts="[O:1]=[C:2]1[C:3]([H:8])([H:9])[N:4]2[C:5]([H:10])([H:11])[C:6]1([H:12])[C:7]2([H:13])[H:14]>>[O:1]=[C:2]1[C:3]([H:8])([H:9])[N+:4]2([H:14])[C:5]([H:10])([H:11])[C@:6]1([H:12])[C-:7]2[H:13]"
O       -1.62038203       1.41988915       1.36811558
C       -0.90983350       0.72921837       0.69955484
C       -1.28667333      -0.09777398      -0.53909862
N       -0.00165170      -0.73050102      -0.88734404
C        0.96293005       0.39653525      -0.66298758
C        0.57112638       0.45136437       0.81259625
C        0.57811280      -1.09461581       0.86678126
H       -1.61875911       0.54250349      -1.35900872
H       -2.06293641      -0.83013307      -0.32457772
H        0.73862248       1.25585247      -1.30659360
H        1.98646271       0.06953529      -0.83153981
H        1.11475913       1.01769660       1.56266680
H        1.61190448      -1.42578081       0.69577539
H       -0.06368193      -1.70379032      -0.09434006
14
Frame=5 idx=008892 GeodesicLength=0.3927747649912853 rxn_smarts="[O:1]=[C:2]1[C:3]([H:8])([H:9])[N:4]2[C:5]([H:10])([H:11])[C:6]1([H:12])[C:7]2([H:13])[H:14]>>[O:1]=[C:2]1[C:3]([H:8])([H:9])[N+:4]2([H:14])[C:5]([H:10])([H:11])[C@:6]1([H:12])[C-:7]2[H:13]"
O       -1.61986151       1.42705379       1.36498849
C       -0.90895491       0.73270100       0.70047401
C       -1.28483519      -0.09785920      -0.53628743
N        0.00374608      -0.73018200      -0.87239818
C        0.96437840       0.40185655      -0.66250839
C        0.57187374       0.45588961       0.81399634
C        0.57266638      -1.09149191       0.85215822
H       -1.61667774       0.53755884      -1.35994411
H       -2.06028966      -0.83014257      -0.31894495
H        0.73694224       1.25864618      -1.30806725
H        1.98857936       0.07660030      -0.83061054
H        1.11572800       1.01894520       1.56620493
H        1.60684716      -1.42695450       0.69408297
H       -0.07014235      -1.73262128      -0.10314411
14
Frame=6 idx=008892 GeodesicLength=0.47137373092375295 rxn_smarts="[O:1]=[C:2]1[C:3]([H:8])([H:9])[N:4]2[C:5]([H:10])([H:11])[C:6]1([H:12])[C:7]2([H:13])[H:14]>>[O:1]=[C:2]1[C:3]([H:8])([H:9])[N+:4]2([H:14])[C:5]([H:10])([H:11])[C@:6]1([H:12])[C-:7]2[H:13]"
O       -1.61930303       1.43420308       1.36186868
C       -0.90806067       0.73621349       0.70137441
C       -1.28306038      -0.09793167      -0.53345714
N        0.00892774      -0.72980758      -0.85771693
C        0.96571872       0.40701368      -0.66205484
C        0.57261458       0.46029500       0.81541726
C        0.56712434      -1.08839861       0.83784057
H       -1.61474891       0.53262049      -1.36078427
H       -2.05758573      -0.83023140      -0.31320162
H        0.73529394       1.26132063      -1.30952657
H        1.99054956       0.08337005      -0.82967311
H        1.11672026       1.02015998       1.56965992
H        1.60153178      -1.42817070       0.69274741
H       -0.07572220      -1.76065644      -0.11249378
14
Frame=7 idx=008892 GeodesicLength=0.549962691019065 rxn_smarts="[O:1]=[C:2]1[C:3]([H:8])([H:9])[N:4]2[C:5]([H:10])([H:11])[C:6]1([H:12])[C:7]2([H:13])[H:14]>>[O:1]=[C:2]1[C:3]([H:8])([H:9])[N+:4]2([H:14])[C:5]([H:10])([H:11])[C@:6]1([H:12])[C-:7]2[H:13]"
O       -1.61871151       1.44133129       1.35875952
C       -0.90715652       0.73974493       0.70226250
C       -1.28135219      -0.09798736      -0.53060866
N        0.01389252      -0.72936983      -0.84331404
C        0.96695801       0.41199663      -0.66162184
C        0.57334429       0.46458691       0.81685472
C        0.56151436      -1.08532137       0.82386150
H       -1.61297435       0.52770228      -1.36152497
H       -2.05482993      -0.83039423      -0.30735710
H        0.73369287       1.26387517      -1.31096128
H        1.99238128       0.08983631      -0.82872351
H        1.11772873       1.02137195       1.57301466
H        1.59596913      -1.42943062       0.69174155
H       -0.08045668      -1.78794207      -0.12238305
14
Frame=8 idx=008892 GeodesicLength=0.6285329335344405 rxn_smarts="[O:1]=[C:2]1[C:3]([H:8])([H:9])[N:4]2[C:5]([H:10])([H:11])[C:6]1([H:12])[C:7]2([H:13])[H:14]>>[O:1]=[C:2]1[C:3]([H:8])([H:9])[N+:4]2([H:14])[C:5]([H:10])([H:11])[C@:6]1([H:12])[C-:7]2[H:13]"
O       -1.61809092       1.44843588       1.35566218
C       -0.90624681       0.74328823       0.70314252
C       -1.27971284      -0.09802343      -0.52774176
N        0.01864451      -0.72886616      -0.82919584
C        0.96810339       0.41680063      -0.66120499
C        0.57405919       0.46877199       0.81830522
C        0.55585711      -1.08224956       0.81024157
H       -1.61135194       0.52281224      -1.36216440
H       -2.05202655      -0.83062636      -0.30141846
H        0.73214884       1.26631038      -1.31236533
H        1.99408316       0.09599954      -0.82775743
H        1.11874759       1.02260341       1.57625842
H        1.59016868      -1.43073793       0.69103516
H       -0.08438341      -1.81451886      -0.13279686
14
Frame=9 idx=008892 GeodesicLength=0.7070983142922077 rxn_smarts="[O:1]=[C:2]1[C:3]([H:8])([H:9])[N:4]2[C:5]([H:10])([H:11])[C:6]1([H:12])[C:7]2([H:13])[H:14]>>[O:1]=[C:2]1[C:3]([H:8])([H:9])[N+:4]2([H:14])[C:5]([H:10])([H:11])[C@:6]1([H:12])[C-:7]2[H:13]"
O       -1.61744477       1.45551729       1.35257834
C       -0.90533389       0.74684249       0.70401702
C       -1.27814221      -0.09803913      -0.52485554
N        0.02319525      -0.72830713      -0.81534405
C        0.96916440       0.42143070      -0.66080069
C        0.57475816       0.47285909       0.81976619
C        0.55016272      -1.07918206       0.79697404
H       -1.60987323       0.51794969      -1.36270841
H       -2.04918335      -0.83092022      -0.29539340
H        0.73066026       1.26862781      -1.31374062
H        1.99566907       0.10187506      -0.82677423
H        1.11977473       1.02386701       1.57939249
H        1.58413479      -1.43210004       0.69059478
H       -0.08754193      -1.84042054      -0.14370591
14
Frame=10 idx=008892 GeodesicLength=0.7856429060110337 rxn_smarts="[O:1]=[C:2]1[C:3]([H:8])([H:9])[N:4]2[C:5]([H:10])([H:11])[C:6]1([H:12])[C:7]2([H:13])[H:14]>>[O:1]=[C:2]1[C:3]([H:8])([H:9])[N+:4]2([H:14])[C:5]([H:10])([H:11])[C@:6]1([H:12])[C-:7]2[H:13]"
O       -1.61677511       1.46257615       1.34950583
C       -0.90442145       0.75039954       0.70489099
C       -1.27664160      -0.09803304      -0.52194846
N        0.02754342      -0.72768080      -0.80177510
C        0.97014497       0.42587910      -0.66040475
C        0.57543836       0.47685456       0.82123574
C        0.54445001      -1.07610288       0.78409162
H       -1.60854142       0.51312445      -1.36314931
H       -2.04630140      -0.83127380      -0.28928367
H        0.72924123       1.27082756      -1.31507824
H        1.99714193       0.10745356      -0.82576719
H        1.12080504       1.02518789       1.58240315
H        1.57787928      -1.43351323       0.69040299
H       -0.08996326      -1.86569907      -0.15512360
14
Frame=11 idx=008892 GeodesicLength=0.8641568384047116 rxn_smarts="[O:1]=[C:2]1[C:3]([H:8])([H:9])[N:4]2[C:5]([H:10])([H:11])[C:6]1([H:12])[C:7]2([H:13])[H:14]>>[O:1]=[C:2]1[C:3]([H:8])([H:9])[N+:4]2([H:14])[C:5]([H:10])([H:11])[C@:6]1([H:12])[C-:7]2[H:13]"
O       -1.61608427       1.46961461       1.34644270
C       -0.90351153       0.75395707       0.70576671
C       -1.27521070      -0.09800596      -0.51901857
N        0.03169557      -0.72698707      -0.78848385
C        0.97105242       0.43014808      -0.66001384
C        0.57609903       0.48076709       0.82271186
C        0.53872834      -1.07300715       0.77160066
H       -1.60735313       0.50833655      -1.36348689
H       -2.04338437      -0.83168383      -0.28309181
H        0.72789567       1.27291198      -1.31637609
H        1.99851097       0.11274087      -0.82473307
H        1.12183594       1.02658075       1.58528771
H        1.57140739      -1.43498139       0.69043417
H       -0.09168134      -1.89039160      -0.16703968
14
Frame=12 idx=008892 GeodesicLength=0.9426622156930532 rxn_smarts="[O:1]=[C:2]1[C:3]([H:8])([H:9])[N:4]2[C:5]([H:10])([H:11])[C:6]1([H:12])[C:7]2([H:13])[H:14]>>[O:1]=[C:2]1[C:3]([H:8])([H:9])[N+:4]2([H:14])[C:5]([H:10])([H:11])[C@:6]1([H:12])[C-:7]2[H:13]"
O       -1.61537340       1.47663877       1.34338625
C       -0.90260566       0.75751540       0.70664710
C       -1.27384915      -0.09795755      -0.51606233
N        0.03565937      -0.72622826      -0.77546011
C        0.97189255       0.43424022      -0.65962436
C        0.57673979       0.48460621       0.82419410
C        0.53300468      -1.06988828       0.75950487
H       -1.60630404       0.50358542      -1.36372120
H       -2.04043577      -0.83214531      -0.27681747
H        0.72662456       1.27488209      -1.31763436
H        1.99978356       0.11774420      -0.82366830
H        1.12286600       1.02805979       1.58804594
H        1.56472573      -1.43650465       0.69066980
H       -0.09272823      -1.91454806      -0.17945992
14
Frame=13 idx=008892 GeodesicLength=1.0211575622375506 rxn_smarts="[O:1]=[C:2]1[C:3]([H:8])([H:9])[N:4]2[C:5]([H:10])([H:11])[C:6]1([H:12])[C:7]2([H:13])[H:14]>>[O:1]=[C:2]1[C:3]([H:8])([H:9])[N+:4]2([H:14])[C:5]([H:10])([H:11])[C@:6]1([H:12])[C-:7]2[H:13]"
O       -1.61464396       1.48365229       1.34033476
C       -0.90170493       0.76107510       0.70753358
C       -1.27255603      -0.09788897      -0.51307706
N        0.03944162      -0.72540708      -0.76269293
C        0.97267123       0.43815883      -0.65923362
C        0.57736043       0.48838023       0.82568167
C        0.52728361      -1.06674288       0.74780497
H       -1.60538998       0.49886886      -1.36385283
H       -2.03745922      -0.83265415      -0.27046117
H        0.72542873       1.27673872      -1.31885401
H        2.00096748       0.12247108      -0.82256983
H        1.12389453       1.02963646       1.59067816
H        1.55783926      -1.43808505       0.69109100
H       -0.09313276      -1.93820344      -0.19238268
14
Frame=14 idx=008892 GeodesicLength=1.0996679464970316 rxn_smarts="[O:1]=[C:2]1[C:3]([H:8])([H:9])[N:4]2[C:5]([H:10])([H:11])[C:6]1([H:12])[C:7]2([H:13])[H:14]>>[O:1]=[C:2]1[C:3]([H:8])([H:9])[N+:4]2([H:14])[C:5]([H:10])([H:11])[C@:6]1([H:12])[C-:7]2[H:13]"
O       -1.61389691       1.49066157       1.33728532
C       -0.90081015       0.76463840       0.70842786
C       -1.27133046      -0.09780052      -0.51005896
N        0.04305082      -0.72452794      -0.75016779
C        0.97339360       0.44190841      -0.65883858
C        0.57796112       0.49209850       0.82717478
C        0.52156823      -1.06356660       0.73649844
H       -1.60460525       0.49418368      -1.36388287
H       -2.03445825      -0.83320530      -0.26402148
H        0.72430675       1.27848238      -1.32003717
H        2.00206931       0.12693047      -0.82143441
H        1.12492112       1.03132094       1.59318670
H        1.55075382      -1.43972314       0.69168126
H       -0.09292375      -1.96140086      -0.20581310
14
Frame=15 idx=008892 GeodesicLength=1.1782085390814148 rxn_smarts="[O:1]=[C:2]1[C:3]([H:8])([H:9])[N:4]2[C:5]([H:10])([H:11])[C:6]1([H:12])[C:7]2([H:13])[H:14]>>[O:1]=[C:2]1[C:3]([H:8])([H:9])[N+:4]2([H:14])[C:5]([H:10])([H:11])[C@:6]1([H:12])[C-:7]2[H:13]"
O       -1.61313308       1.49767202       1.33423518
C       -0.89992176       0.76820788       0.70933082
C       -1.27017118      -0.09769329      -0.50700476
N        0.04649499      -0.72359575      -0.73786944
C        0.97406446       0.44549399      -0.65843674
C        0.57854228       0.49576922       0.82867363
C        0.51586029      -1.06035651       0.72558043
H       -1.60394430       0.48952563      -1.36381282
H       -2.03143610      -0.83379438      -0.25749750
H        0.72325657       1.28011358      -1.32118663
H        2.00309553       0.13113168      -0.82025962
H        1.12594566       1.03312036       1.59557465
H        1.54347410      -1.44142032       0.69242491
H       -0.09212746      -1.98417412      -0.21975212
14
Frame=16 idx=008892 GeodesicLength=1.2567992331256277 rxn_smarts="[O:1]=[C:2]1[C:3]([H:8])([H:9])[N:4]2[C:5]([H:10])([H:11])[C:6]1([H:12])[C:7]2([H:13])[H:14]>>[O:1]=[C:2]1[C:3]([H:8])([H:9])[N+:4]2([H:14])[C:5]([H:10])([H:11])[C@:6]1([H:12])[C-:7]2[H:13]"
O       -1.61235325       1.50468904       1.33118212
C       -0.89904007       0.77178654       0.71024349
C       -1.26907702      -0.09756825      -0.50391086
N        0.04978159      -0.72261532      -0.72578189
C        0.97468792       0.44891959      -0.65802583
C        0.57910450       0.49940086       0.83017873
C        0.51016067      -1.05710962       0.71504689
H       -1.60340186       0.48489053      -1.36364370
H       -2.02839597      -0.83441711      -0.25088746
H        0.72227594       1.28163190      -1.32230545
H        2.00405164       0.13508234      -0.81904294
H        1.12696876       1.03504320       1.59784464
H        1.53600452      -1.44317715       0.69331028
H       -0.09076737      -2.00655655      -0.23420803
