11
Frame=0 idx=001477 GeodesicLength=0.0 rxn_smarts="[C:1]([C:2]#[C:3][C:4](=[O:5])[N:6]([H:10])[H:11])([H:7])([H:8])[H:9]>>[C:1]([C:2]#[C:3][H:11])([H:7])([H:8])[H:9].[C:4](=[O:5])=[N:6][H:10]"
C       -2.33368027       0.14429183       0.25668255
C       -0.89371930       0.23025416       0.14002479
C        0.31883430       0.27537693       0.03690266
C        1.77716449      -0.64191964      -0.32746089
O        1.70959251      -1.78650803      -0.60437352
N        2.60929089       0.35587217      -0.15867591
H       -2.63788227      -0.88526757       0.04915410
H       -2.82893268       0.79586528      -0.46384500
H       -2.66253606       0.39782444       1.26502496
H        3.58944322       0.13128082      -0.30721738
H        1.35242518       0.98292963       0.11378361
11
Frame=1 idx=001477 GeodesicLength=0.0676046325387845 rxn_smarts="[C:1]([C:2]#[C:3][C:4](=[O:5])[N:6]([H:10])[H:11])([H:7])([H:8])[H:9]>>[C:1]([C:2]#[C:3][H:11])([H:7])([H:8])[H:9].[C:4](=[O:5])=[N:6][H:10]"
C       -2.33364982       0.13797381       0.25498800
C       -0.89431140       0.25852236       0.15556864
C        0.31783680       0.30353521       0.06288218
C        1.77486470      -0.65035148      -0.30140185
O        1.68439742      -1.78635202      -0.60630129
N        2.61611421       0.34351611      -0.16799657
H       -2.61507590      -0.89401554       0.02890568
H       -2.83476240       0.79100949      -0.46020298
H       -2.67803521       0.36972444       1.26341560
H        3.59393879       0.11090460      -0.31423697
H        1.36868282       1.01553301       0.08437958
11
Frame=2 idx=001477 GeodesicLength=0.13511116140747628 rxn_smarts="[C:1]([C:2]#[C:3][C:4](=[O:5])[N:6]([H:10])[H:11])([H:7])([H:8])[H:9]>>[C:1]([C:2]#[C:3][H:11])([H:7])([H:8])[H:9].[C:4](=[O:5])=[N:6][H:10]"
C       -2.33270690       0.13183402       0.25270001
C       -0.89486083       0.28614408       0.17161607
C        0.31673837       0.33216374       0.08852298
C        1.77187190      -0.65763513      -0.27953391
O        1.65975860      -1.78832231      -0.59729057
N        2.62121483       0.33172351      -0.18015763
H       -2.59179954      -0.90036483       0.00294477
H       -2.83952118       0.79007480      -0.45364510
H       -2.69186733       0.33649442       1.26185314
H        3.59681443       0.09219762      -0.32460506
H        1.38435765       1.04569007       0.05759531
11
Frame=3 idx=001477 GeodesicLength=0.2027207890186929 rxn_smarts="[C:1]([C:2]#[C:3][C:4](=[O:5])[N:6]([H:10])[H:11])([H:7])([H:8])[H:9]>>[C:1]([C:2]#[C:3][H:11])([H:7])([H:8])[H:9].[C:4](=[O:5])=[N:6][H:10]"
C       -2.33104433       0.12575907       0.25080194
C       -0.89557160       0.31259878       0.18696259
C        0.31526986       0.36107520       0.11140560
C        1.76854647      -0.66445259      -0.26069021
O        1.63505000      -1.78899800      -0.59240495
N        2.62527115       0.31944258      -0.18962101
H       -2.56805748      -0.90680768      -0.01811334
H       -2.84414961       0.78632579      -0.44887815
H       -2.70364031       0.30713837       1.25960396
H        3.59898408       0.07393988      -0.33127453
H        1.39934177       1.07397860       0.03220810
11
Frame=4 idx=001477 GeodesicLength=0.2702300739863907 rxn_smarts="[C:1]([C:2]#[C:3][C:4](=[O:5])[N:6]([H:10])[H:11])([H:7])([H:8])[H:9]>>[C:1]([C:2]#[C:3][H:11])([H:7])([H:8])[H:9].[C:4](=[O:5])=[N:6][H:10]"
C       -2.32897934       0.11995157       0.24883899
C       -0.89655925       0.33743718       0.20093765
C        0.31329499       0.39001100       0.13070041
C        1.76539655      -0.67118424      -0.24270663
O        1.61189567      -1.79114260      -0.58186010
N        2.62807468       0.30762956      -0.20028034
H       -2.54543855      -0.91093931      -0.04240378
H       -2.84907797       0.78566718      -0.44078176
H       -2.71246301       0.27455114       1.25803823
H        3.60034494       0.05719142      -0.33764562
H        1.41351130       1.10082709       0.00716294
11
Frame=5 idx=001477 GeodesicLength=0.33774696442432206 rxn_smarts="[C:1]([C:2]#[C:3][C:4](=[O:5])[N:6]([H:10])[H:11])([H:7])([H:8])[H:9]>>[C:1]([C:2]#[C:3][H:11])([H:7])([H:8])[H:9].[C:4](=[O:5])=[N:6][H:10]"
C       -2.32648875       0.11445631       0.24625364
C       -0.89762454       0.36077729       0.21530247
C        0.31108051       0.41882870       0.14893041
C        1.76262072      -0.67810285      -0.22296800
O        1.59022489      -1.79558588      -0.56187416
N        2.62950509       0.29634881      -0.21352299
H       -2.52358691      -0.91152547      -0.07382282
H       -2.85366410       0.79002358      -0.42817696
H       -2.71938038       0.23574126       1.25636127
H        3.60043109       0.04242353      -0.34828466
H        1.42688237       1.12661473      -0.01819820
11
Frame=6 idx=001477 GeodesicLength=0.40515489897059226 rxn_smarts="[C:1]([C:2]#[C:3][C:4](=[O:5])[N:6]([H:10])[H:11])([H:7])([H:8])[H:9]>>[C:1]([C:2]#[C:3][H:11])([H:7])([H:8])[H:9].[C:4](=[O:5])=[N:6][H:10]"
C       -2.32363008       0.10909310       0.24382068
C       -0.89880043       0.38264696       0.22963787
C        0.30867355       0.44684566       0.16681130
C        1.75972152      -0.68478212      -0.20639650
O        1.56869817      -1.79876532      -0.54741146
N        2.63001459       0.28493972      -0.22603135
H       -2.50170406      -0.91299019      -0.09864353
H       -2.85747483       0.79026727      -0.41968858
H       -2.72576069       0.20332905       1.25321677
H        3.59999157       0.02843060      -0.35696278
H        1.44027069       1.15098528      -0.03835244
11
Frame=7 idx=001477 GeodesicLength=0.4725844088574334 rxn_smarts="[C:1]([C:2]#[C:3][C:4](=[O:5])[N:6]([H:10])[H:11])([H:7])([H:8])[H:9]>>[C:1]([C:2]#[C:3][H:11])([H:7])([H:8])[H:9].[C:4](=[O:5])=[N:6][H:10]"
C       -2.32044935       0.10395775       0.24113618
C       -0.90003392       0.40311758       0.24428311
C        0.30607876       0.47443960       0.18410924
C        1.75711166      -0.69164933      -0.18956832
O        1.54808148      -1.80277675      -0.52999535
N        2.62941061       0.27367097      -0.23969495
H       -2.48032823      -0.91266039      -0.12518145
H       -2.86088102       0.79188860      -0.40994491
H       -2.73092898       0.16959763       1.24943737
H        3.59872329       0.01576991      -0.36682071
H        1.45321571       1.17464443      -0.05776023
11
Frame=8 idx=001477 GeodesicLength=0.5400592271199451 rxn_smarts="[C:1]([C:2]#[C:3][C:4](=[O:5])[N:6]([H:10])[H:11])([H:7])([H:8])[H:9]>>[C:1]([C:2]#[C:3][H:11])([H:7])([H:8])[H:9].[C:4](=[O:5])=[N:6][H:10]"
C       -2.31685673       0.09895207       0.23821643
C       -0.90129727       0.42264501       0.25946753
C        0.30337195       0.50164918       0.20171679
C        1.75454566      -0.69868361      -0.17313265
O        1.52765085      -1.80673575      -0.51284872
N        2.62784489       0.26224573      -0.25290745
H       -2.45869523      -0.91189320      -0.15038919
H       -2.86355715       0.79259785      -0.40150023
H       -2.73563024       0.13743044       1.24453318
H        3.59649661       0.00409056      -0.37850891
H        1.46612666       1.19770174      -0.07464678
11
Frame=9 idx=001477 GeodesicLength=0.607459888766143 rxn_smarts="[C:1]([C:2]#[C:3][C:4](=[O:5])[N:6]([H:10])[H:11])([H:7])([H:8])[H:9]>>[C:1]([C:2]#[C:3][H:11])([H:7])([H:8])[H:9].[C:4](=[O:5])=[N:6][H:10]"
C       -2.31298072       0.09422148       0.23480971
C       -0.90261156       0.44097978       0.27497213
C        0.30043935       0.52869685       0.21859006
C        1.75251601      -0.70594600      -0.15488267
O        1.50846142      -1.81205058      -0.48963658
N        2.62512223       0.25085218      -0.26726537
H       -2.43762562      -0.90811403      -0.18038796
H       -2.86638507       0.79642775      -0.38964479
H       -2.73863683       0.10100757       1.23896516
H        3.59320671      -0.00639816      -0.39304159
H        1.47849407       1.22032314      -0.09247810
11
Frame=10 idx=001477 GeodesicLength=0.6748323158238969 rxn_smarts="[C:1]([C:2]#[C:3][C:4](=[O:5])[N:6]([H:10])[H:11])([H:7])([H:8])[H:9]>>[C:1]([C:2]#[C:3][H:11])([H:7])([H:8])[H:9].[C:4](=[O:5])=[N:6][H:10]"
C       -2.30888527       0.08967174       0.23126145
C       -0.90396581       0.45794762       0.29066871
C        0.29734410       0.55503116       0.23549337
C        1.75081986      -0.71342549      -0.13723402
O        1.48996334      -1.81742197      -0.46690210
N        2.62141642       0.23941381      -0.28171337
H       -2.41688881      -0.90380550      -0.20874991
H       -2.86864871       0.79940607      -0.37888242
H       -2.74113912       0.06651291       1.23237090
H        3.58912602      -0.01584979      -0.40841368
H        1.49085799       1.24251945      -0.10789893
11
Frame=11 idx=001477 GeodesicLength=0.7421285412510638 rxn_smarts="[C:1]([C:2]#[C:3][C:4](=[O:5])[N:6]([H:10])[H:11])([H:7])([H:8])[H:9]>>[C:1]([C:2]#[C:3][H:11])([H:7])([H:8])[H:9].[C:4](=[O:5])=[N:6][H:10]"
C       -2.30469993       0.08526911       0.22777745
C       -0.90540818       0.47356834       0.30590808
C        0.29402392       0.58059675       0.25185251
C        1.74944651      -0.72119977      -0.12076233
O        1.47214005      -1.82262634      -0.44625381
N        2.61692996       0.22791827      -0.29565776
H       -2.39677507      -0.89962700      -0.23421339
H       -2.87053419       0.80096706      -0.36969609
H       -2.74310887       0.03503257       1.22523006
H        3.58452847      -0.02433521      -0.42330508
H        1.50345733       1.26443622      -0.12087964
11
Frame=12 idx=001477 GeodesicLength=0.8093746746987269 rxn_smarts="[C:1]([C:2]#[C:3][C:4](=[O:5])[N:6]([H:10])[H:11])([H:7])([H:8])[H:9]>>[C:1]([C:2]#[C:3][H:11])([H:7])([H:8])[H:9].[C:4](=[O:5])=[N:6][H:10]"
C       -2.30036650       0.08106240       0.22404226
C       -0.90689622       0.48807416       0.32106192
C        0.29048344       0.60576595       0.26775375
C        1.74857793      -0.72927320      -0.10374532
O        1.45523315      -1.82835625      -0.42374336
N        2.61151566       0.21633288      -0.30958399
H       -2.37717904      -0.89404912      -0.26059103
H       -2.87241308       0.80320831      -0.35963999
H       -2.74409167       0.00296859       1.21736965
H        3.57904883      -0.03191895      -0.43971626
H        1.51608750       1.28618523      -0.13320762
11
Frame=13 idx=001477 GeodesicLength=0.8765594271566194 rxn_smarts="[C:1]([C:2]#[C:3][C:4](=[O:5])[N:6]([H:10])[H:11])([H:7])([H:8])[H:9]>>[C:1]([C:2]#[C:3][H:11])([H:7])([H:8])[H:9].[C:4](=[O:5])=[N:6][H:10]"
C       -2.29601194       0.07680649       0.22088338
C       -0.90850621       0.50167432       0.33512693
C        0.28672690       0.63011219       0.28308625
C        1.74758900      -0.73783123      -0.08992703
O        1.43807263      -1.83291060      -0.40909775
N        2.60581806       0.20473009      -0.32128251
H       -2.35792998      -0.89140402      -0.27914665
H       -2.87348846       0.80129406      -0.35454103
H       -2.74546327      -0.02161899       1.20984960
H        3.57355600      -0.03880083      -0.45313919
H        1.52963726       1.30794853      -0.14181201
11
Frame=14 idx=001477 GeodesicLength=0.9437205308812352 rxn_smarts="[C:1]([C:2]#[C:3][C:4](=[O:5])[N:6]([H:10])[H:11])([H:7])([H:8])[H:9]>>[C:1]([C:2]#[C:3][H:11])([H:7])([H:8])[H:9].[C:4](=[O:5])=[N:6][H:10]"
C       -2.29157929       0.07249800       0.21813496
C       -0.91019903       0.51456230       0.34847059
C        0.28279068       0.65382463       0.29820372
C        1.74647747      -0.74695060      -0.07847382
O        1.42062033      -1.83669401      -0.40032618
N        2.59981461       0.19321506      -0.33099308
H       -2.33884200      -0.89119940      -0.29175281
H       -2.87364115       0.79632819      -0.35349705
H       -2.74733846      -0.04045621       1.20266143
H        3.56784455      -0.04495849      -0.46493397
H        1.54405229       1.32983054      -0.14749381
11
Frame=15 idx=001477 GeodesicLength=1.0108828661295446 rxn_smarts="[C:1]([C:2]#[C:3][C:4](=[O:5])[N:6]([H:10])[H:11])([H:7])([H:8])[H:9]>>[C:1]([C:2]#[C:3][H:11])([H:7])([H:8])[H:9].[C:4](=[O:5])=[N:6][H:10]"
C       -2.28702585       0.06816645       0.21559706
C       -0.91195894       0.52691226       0.36131046
C        0.27865918       0.67721472       0.31302928
C        1.74533912      -0.75662161      -0.06820540
O        1.40303348      -1.84014524      -0.39463826
N        2.59344158       0.18178771      -0.33907734
H       -2.31986984      -0.89227438      -0.30121306
H       -2.87317401       0.78986000      -0.35461027
H       -2.74930367      -0.05625584       1.19572299
H        3.56170493      -0.05049850      -0.47622012
H        1.55915403       1.35185443      -0.15169534
11
Frame=16 idx=001477 GeodesicLength=1.0780512628042997 rxn_smarts="[C:1]([C:2]#[C:3][C:4](=[O:5])[N:6]([H:10])[H:11])([H:7])([H:8])[H:9]>>[C:1]([C:2]#[C:3][H:11])([H:7])([H:8])[H:9].[C:4](=[O:5])=[N:6][H:10]"
C       -2.28230140       0.06389782       0.21303518
C       -0.91376985       0.53891229       0.37377581
C        0.27427378       0.70078428       0.32697116
C        1.74434813      -0.76675554      -0.05751662
O        1.38563999      -1.84387126      -0.38819461
N        2.58658095       0.17031145      -0.34605178
H       -2.30109654      -0.89242630      -0.31170767
H       -2.87295492       0.78405960      -0.35447520
H       -2.75022850      -0.07321752       1.18879088
H        3.55497757      -0.05563097      -0.48753706
H        1.57453079       1.37393614      -0.15709008
