12
Frame=0 idx=001937 GeodesicLength=0.0 rxn_smarts="[O:1]([C:2]([C:3]([O:4][C:5](=[O:6])[H:12])([H:10])[H:11])([H:8])[H:9])[H:7]>>[O:1]([C:2]([C:3]([H:10])([H:11])[H:12])([H:8])[H:9])[H:7].[O:4]=[C:5]=[O:6]"
O       -1.10506081       0.99416261       1.32489636
C       -1.08787807      -0.22551018       0.64447265
C        0.26022983      -0.77093585       0.39056090
O        0.44484955      -0.40969628      -1.79918427
C        1.23848111       0.44636289      -1.34684445
O        2.22418652       0.99664287      -1.74517676
H       -1.04080276       1.71187880       0.69052711
H       -1.66934872      -0.22245010      -0.28006366
H       -1.54885748      -0.97514121       1.30946263
H        0.31800289      -1.74449988      -0.07480464
H        1.03551677      -0.55206686       1.11752311
H        0.93068112       0.75125323      -0.23136896
12
Frame=1 idx=001937 GeodesicLength=0.1451947165272003 rxn_smarts="[O:1]([C:2]([C:3]([O:4][C:5](=[O:6])[H:12])([H:10])[H:11])([H:8])[H:9])[H:7]>>[O:1]([C:2]([C:3]([H:10])([H:11])[H:12])([H:8])[H:9])[H:7].[O:4]=[C:5]=[O:6]"
O       -1.09136548       0.99796230       1.34078117
C       -1.09283701      -0.22293984       0.66090026
C        0.24659518      -0.77014677       0.36151413
O        0.54785459      -0.47084833      -1.82014864
C        1.26551131       0.45173355      -1.37657385
O        2.24888696       1.04352151      -1.71071013
H       -1.02463362       1.71622058       0.70731160
H       -1.69674665      -0.21858157      -0.24968901
H       -1.54101322      -0.96621912       1.34052046
H        0.27481071      -1.76747597      -0.05605128
H        1.03171049      -0.58351858       1.08752275
H        0.83122675       0.79029224      -0.28537746
12
Frame=2 idx=001937 GeodesicLength=0.28950190836240475 rxn_smarts="[O:1]([C:2]([C:3]([O:4][C:5](=[O:6])[H:12])([H:10])[H:11])([H:8])[H:9])[H:7]>>[O:1]([C:2]([C:3]([H:10])([H:11])[H:12])([H:8])[H:9])[H:7].[O:4]=[C:5]=[O:6]"
O       -1.07251524       1.00353660       1.35614204
C       -1.09743724      -0.21967020       0.67952592
C        0.22996000      -0.76984775       0.32883972
O        0.66675248      -0.53192628      -1.83302947
C        1.29490084       0.45885793      -1.40574195
O        2.27090474       1.09461379      -1.66660652
H       -1.00818177       1.72106667       0.72168861
H       -1.72950418      -0.21569395      -0.21227333
H       -1.52892958      -0.95522156       1.37702438
H        0.22755332      -1.78708991      -0.04195313
H        1.02518014      -0.61877232       1.05300951
H        0.72131650       0.82014700      -0.35662579
12
Frame=3 idx=001937 GeodesicLength=0.4328499118760589 rxn_smarts="[O:1]([C:2]([C:3]([O:4][C:5](=[O:6])[H:12])([H:10])[H:11])([H:8])[H:9])[H:7]>>[O:1]([C:2]([C:3]([H:10])([H:11])[H:12])([H:8])[H:9])[H:7].[O:4]=[C:5]=[O:6]"
O       -1.04505324       1.01282981       1.36850148
C       -1.10073009      -0.21519168       0.70107859
C        0.20929006      -0.77163815       0.29205442
O        0.80608848      -0.59173688      -1.83373418
C        1.32699194       0.46786981      -1.43250406
O        2.28495970       1.15518259      -1.60841087
H       -0.98911042       1.72703180       0.72958121
H       -1.76808330      -0.21436610      -0.16517843
H       -1.51042591      -0.93977729       1.42182599
H        0.17352810      -1.80402860      -0.03655372
H        1.01475986      -0.66172902       1.01360326
H        0.59778482       0.83555372      -0.45026370
12
Frame=4 idx=001937 GeodesicLength=0.5739401884122827 rxn_smarts="[O:1]([C:2]([C:3]([O:4][C:5](=[O:6])[H:12])([H:10])[H:11])([H:8])[H:9])[H:7]>>[O:1]([C:2]([C:3]([H:10])([H:11])[H:12])([H:8])[H:9])[H:7].[O:4]=[C:5]=[O:6]"
O       -1.00478027       1.02783605       1.37372506
C       -1.10107541      -0.20858087       0.72538735
C        0.18389057      -0.77819169       0.25204725
O        0.97042601      -0.64666558      -1.81360726
C        1.36192271       0.47921533      -1.45159920
O        2.27898535       1.23386176      -1.53729066
H       -0.96258431       1.73446277       0.72547725
H       -1.81097928      -0.21355823      -0.10686238
H       -1.48383247      -0.91670208       1.47572715
H        0.10882515      -1.81947481      -0.04483940
H        0.99802104      -0.71954067       0.97156600
H        0.46118091       0.82733802      -0.56973114
12
Frame=5 idx=001937 GeodesicLength=0.7109200895690684 rxn_smarts="[O:1]([C:2]([C:3]([O:4][C:5](=[O:6])[H:12])([H:10])[H:11])([H:8])[H:9])[H:7]>>[O:1]([C:2]([C:3]([H:10])([H:11])[H:12])([H:8])[H:9])[H:7].[O:4]=[C:5]=[O:6]"
O       -0.95091272       1.04929005       1.36612597
C       -1.09597043      -0.19980717       0.75097000
C        0.15562439      -0.79070671       0.21147104
O        1.14808264      -0.68425733      -1.76599738
C        1.39342127       0.49717732      -1.46028079
O        2.24810245       1.32417504      -1.45324982
H       -0.92749843       1.74211852       0.70238829
H       -1.85406929      -0.21430295      -0.03802093
H       -1.44630791      -0.88453338       1.53698761
H        0.03380841      -1.83294007      -0.07078288
H        0.97445762      -0.79543037       0.93000663
H        0.32126200       0.78921706      -0.70961775
12
Frame=6 idx=001937 GeodesicLength=0.8473059396828975 rxn_smarts="[O:1]([C:2]([C:3]([O:4][C:5](=[O:6])[H:12])([H:10])[H:11])([H:8])[H:9])[H:7]>>[O:1]([C:2]([C:3]([H:10])([H:11])[H:12])([H:8])[H:9])[H:7].[O:4]=[C:5]=[O:6]"
O       -0.88754237       1.07432022       1.34497337
C       -1.08494188      -0.18922993       0.77444522
C        0.12700484      -0.81084795       0.17512211
O        1.32353022      -0.69711392      -1.68868088
C        1.42016896       0.52091391      -1.45491732
O        2.18742397       1.42482182      -1.37841228
H       -0.88514961       1.74827643       0.66164997
H       -1.89087053      -0.21230857       0.03405813
H       -1.40246446      -0.84472991       1.59762062
H       -0.04903145      -1.84510777      -0.11191886
H        0.94255505      -0.89140521       0.89491293
H        0.19931727       0.72241087      -0.84885301
12
Frame=7 idx=001937 GeodesicLength=0.9859323534473575 rxn_smarts="[O:1]([C:2]([C:3]([O:4][C:5](=[O:6])[H:12])([H:10])[H:11])([H:8])[H:9])[H:7]>>[O:1]([C:2]([C:3]([H:10])([H:11])[H:12])([H:8])[H:9])[H:7].[O:4]=[C:5]=[O:6]"
O       -0.82153469       1.09878361       1.31352723
C       -1.06879827      -0.17826402       0.79392486
C        0.10020785      -0.83556763       0.14373499
O        1.47823250      -0.68441291      -1.59173603
C        1.43951751       0.54929410      -1.44215739
O        2.11146572       1.51948479      -1.31430578
H       -0.84350203       1.75107936       0.60989420
H       -1.91902322      -0.20730071       0.10452179
H       -1.35351547      -0.80151330       1.65247627
H       -0.13265448      -1.85450000      -0.16004592
H        0.90522373      -0.99611415       0.86377553
H        0.10438084       0.63903086      -0.97360975
12
Frame=8 idx=001937 GeodesicLength=1.12738849652888 rxn_smarts="[O:1]([C:2]([C:3]([O:4][C:5](=[O:6])[H:12])([H:10])[H:11])([H:8])[H:9])[H:7]>>[O:1]([C:2]([C:3]([H:10])([H:11])[H:12])([H:8])[H:9])[H:7].[O:4]=[C:5]=[O:6]"
O       -0.75753932       1.11939518       1.27783228
C       -1.04984705      -0.16818201       0.80915588
C        0.07557315      -0.86195038       0.11625995
O        1.60711242      -0.65225861      -1.48262282
C        1.45397634       0.57972348      -1.42697198
O        2.03113239       1.60301644      -1.26384218
H       -0.80437103       1.75042092       0.55628531
H       -1.93849896      -0.19923350       0.16958203
H       -1.30286470      -0.75973773       1.69861839
H       -0.21339285      -1.86115830      -0.20658022
H        0.86418676      -1.10038441       0.83439253
H        0.03453284       0.55034891      -1.08210917
12
Frame=9 idx=001937 GeodesicLength=1.271481506442335 rxn_smarts="[O:1]([C:2]([C:3]([O:4][C:5](=[O:6])[H:12])([H:10])[H:11])([H:8])[H:9])[H:7]>>[O:1]([C:2]([C:3]([H:10])([H:11])[H:12])([H:8])[H:9])[H:7].[O:4]=[C:5]=[O:6]"
O       -0.69617064       1.13569602       1.24063317
C       -1.02922222      -0.15931197       0.82104050
C        0.05182028      -0.88927617       0.09070883
O        1.71364999      -0.60566696      -1.36391077
C        1.46667716       0.61081228      -1.41046602
O        1.95062176       1.67702821      -1.22642670
H       -0.76823062       1.74696464       0.50423461
H       -1.95151281      -0.18822915       0.23023355
H       -1.25073282      -0.72085780       1.73723577
H       -0.29210161      -1.86584600      -0.24926951
H        0.82033828      -1.20127593       0.80378919
H       -0.01513674       0.45996283      -1.17780262
12
Frame=10 idx=001937 GeodesicLength=1.4173341761720706 rxn_smarts="[O:1]([C:2]([C:3]([O:4][C:5](=[O:6])[H:12])([H:10])[H:11])([H:8])[H:9])[H:7]>>[O:1]([C:2]([C:3]([H:10])([H:11])[H:12])([H:8])[H:9])[H:7].[O:4]=[C:5]=[O:6]"
O       -0.63821964       1.14854966       1.20200527
C       -1.00717102      -0.15170669       0.83012204
C        0.02790682      -0.91668341       0.06522596
O        1.79783808      -0.54882185      -1.24047982
C        1.47965668       0.64170466      -1.39265236
O        1.87349447       1.74122537      -1.19502944
H       -0.73651011       1.74124013       0.45353509
H       -1.95975393      -0.17601082       0.28855991
H       -1.19504248      -0.68488930       1.76974527
H       -0.36965304      -1.86937976      -0.28595263
H        0.77593275      -1.29516801       0.76898210
H       -0.04847858       0.36994002      -1.26406140
12
Frame=11 idx=001937 GeodesicLength=1.5656743730506095 rxn_smarts="[O:1]([C:2]([C:3]([O:4][C:5](=[O:6])[H:12])([H:10])[H:11])([H:8])[H:9])[H:7]>>[O:1]([C:2]([C:3]([H:10])([H:11])[H:12])([H:8])[H:9])[H:7].[O:4]=[C:5]=[O:6]"
O       -0.58324702       1.15786032       1.16316557
C       -0.98432732      -0.14563374       0.83722188
C        0.00267919      -0.94365211       0.03862916
O        1.86254225      -0.48324051      -1.10894674
C        1.49451255       0.67225137      -1.37367468
O        1.80007958       1.79812547      -1.17211628
H       -0.70747910       1.73336676       0.40515104
H       -1.96437452      -0.16304825       0.34600057
H       -1.13537794      -0.65290910       1.79693139
H       -0.44763727      -1.87158633      -0.31740218
H        0.73065971      -1.38221204       0.72944604
H       -0.06803010       0.28067815      -1.34440578
12
Frame=12 idx=001937 GeodesicLength=1.7162925448060826 rxn_smarts="[O:1]([C:2]([C:3]([O:4][C:5](=[O:6])[H:12])([H:10])[H:11])([H:8])[H:9])[H:7]>>[O:1]([C:2]([C:3]([H:10])([H:11])[H:12])([H:8])[H:9])[H:7].[O:4]=[C:5]=[O:6]"
O       -0.53281722       1.16493071       1.12364344
C       -0.96096992      -0.14085471       0.84264890
C       -0.02415380      -0.96924743       0.01048692
O        1.90648513      -0.41285686      -0.97578408
C        1.51243390       0.70207476      -1.35198663
O        1.73236130       1.84736242      -1.15161718
H       -0.68238579       1.72381837       0.35776971
H       -1.96616592      -0.15061579       0.40403228
H       -1.07058072      -0.62452150       1.81936214
H       -0.52588730      -1.87269800      -0.34223210
H        0.68718843      -1.45984442       0.68433261
H       -0.07550810       0.19245244      -1.42065600
12
Frame=13 idx=001937 GeodesicLength=1.8700328043033916 rxn_smarts="[O:1]([C:2]([C:3]([O:4][C:5](=[O:6])[H:12])([H:10])[H:11])([H:8])[H:9])[H:7]>>[O:1]([C:2]([C:3]([H:10])([H:11])[H:12])([H:8])[H:9])[H:7].[O:4]=[C:5]=[O:6]"
O       -0.48737433       1.17033746       1.08377930
C       -0.93755513      -0.13729324       0.84706987
C       -0.05310461      -0.99263408      -0.01937940
O        1.93059605      -0.33957882      -0.84154930
C        1.53419601       0.73120007      -1.32700850
O        1.67055974       1.89006370      -1.13351395
H       -0.66076936       1.71262353       0.31096820
H       -1.96567639      -0.13937082       0.46410539
H       -1.00023536      -0.59992616       1.83738183
H       -0.60455753      -1.87202603      -0.36123804
H        0.64581680      -1.52813554       0.63375625
H       -0.07189590       0.10473993      -1.49437165
12
Frame=14 idx=001937 GeodesicLength=2.027231743368489 rxn_smarts="[O:1]([C:2]([C:3]([O:4][C:5](=[O:6])[H:12])([H:10])[H:11])([H:8])[H:9])[H:7]>>[O:1]([C:2]([C:3]([H:10])([H:11])[H:12])([H:8])[H:9])[H:7].[O:4]=[C:5]=[O:6]"
O       -0.44761352       1.17473381       1.04411612
C       -0.91462262      -0.13466875       0.85091301
C       -0.08420514      -1.01290032      -0.05053304
O        1.93566092      -0.26609677      -0.71012167
C        1.55976948       0.75973611      -1.29792295
O        1.61493055       1.92672173      -1.11618274
H       -0.64233217       1.69995084       0.26457572
H       -1.96306674      -0.12952370       0.52656477
H       -0.92510509      -0.57900269       1.85083840
H       -0.68269832      -1.86918700      -0.37446660
H        0.60750276      -1.58631550       0.57833408
H       -0.05822009       0.01655225      -1.56611509
12
Frame=15 idx=001937 GeodesicLength=2.187061039949423 rxn_smarts="[O:1]([C:2]([C:3]([O:4][C:5](=[O:6])[H:12])([H:10])[H:11])([H:8])[H:9])[H:7]>>[O:1]([C:2]([C:3]([H:10])([H:11])[H:12])([H:8])[H:9])[H:7].[O:4]=[C:5]=[O:6]"
O       -0.41516867       1.17947647       1.00470667
C       -0.89265119      -0.13235737       0.85444251
C       -0.11718658      -1.02910456      -0.08234093
O        1.92436922      -0.19706591      -0.58850695
C        1.58861614       0.78814032      -1.26363240
O        1.56599080       1.95779082      -1.09544494
H       -0.62819415       1.68625709       0.21773958
H       -1.95857955      -0.12172767       0.59203929
H       -0.84547939      -0.56062328       1.85965758
H       -0.75900230      -1.86387144      -0.38193208
H        0.57287172      -1.63377651       0.51907160
H       -0.03558605      -0.07313796      -1.63579994
12
Frame=16 idx=001937 GeodesicLength=2.3488057772316533 rxn_smarts="[O:1]([C:2]([C:3]([O:4][C:5](=[O:6])[H:12])([H:10])[H:11])([H:8])[H:9])[H:7]>>[O:1]([C:2]([C:3]([H:10])([H:11])[H:12])([H:8])[H:9])[H:7].[O:4]=[C:5]=[O:6]"
O       -0.38953840       1.18479107       0.96672282
C       -0.87196955      -0.12993953       0.85776462
C       -0.15178884      -1.04096422      -0.11417136
O        1.90050870      -0.13439190      -0.47941978
C        1.61938041       0.81712432      -1.22434568
O        1.52237107       1.98455380      -1.07103956
H       -0.61735475       1.67210694       0.17160721
H       -1.95188672      -0.11510134       0.65933256
H       -0.76366399      -0.54450125       1.86333208
H       -0.83239985      -1.85622378      -0.38407044
H        0.54153210      -1.67104783       0.45721210
H       -0.00519018      -0.16640629      -1.70292456
