14
Frame=0 idx=008373 GeodesicLength=0.0 rxn_smarts="[O:1]([C@@:2]1([H:9])[C:3]([H:10])([H:11])[N:4]([H:12])[C@:5]1([C:6](=[O:7])[H:14])[H:13])[H:8]>>[C:2]1([H:9])=[C:5]([H:13])[N:4]([H:12])[C:3]1([H:10])[H:11].[O:1]([C:6](=[O:7])[H:14])[H:8]"
O       -0.10432526      -1.40105518       1.04643605
C       -0.76858647      -0.49532239      -0.60673905
C       -1.16043354       0.90054376      -0.23956266
N        0.14615452       1.37314543      -0.76631308
C        0.51964379      -0.02497955      -0.93833932
C        1.16864315      -0.63814588       0.60439772
O        1.49381040       0.26306979       1.37312634
H       -0.33763887      -0.96271360       1.87431048
H       -1.36125638      -1.35314075      -0.88582223
H       -1.32716289       1.07975492       0.82512415
H       -2.02136818       1.26405162      -0.80752755
H        0.71396372       1.77591177      -0.01979575
H        1.17458165      -0.35499845      -1.73692781
H        1.86397434      -1.42612144       0.27763265
14
Frame=1 idx=008373 GeodesicLength=0.12354262418738077 rxn_smarts="[O:1]([C@@:2]1([H:9])[C:3]([H:10])([H:11])[N:4]([H:12])[C@:5]1([C:6](=[O:7])[H:14])[H:13])[H:8]>>[C:2]1([H:9])=[C:5]([H:13])[N:4]([H:12])[C:3]1([H:10])[H:11].[O:1]([C:6](=[O:7])[H:14])[H:8]"
O       -0.10348360      -1.41662709       1.03258561
C       -0.77676395      -0.49056747      -0.60684347
C       -1.16231980       0.90916600      -0.24094698
N        0.13922747       1.37513309      -0.78595509
C        0.51310719      -0.02336043      -0.94284390
C        1.17900605      -0.62691190       0.61800886
O        1.51164786       0.29032280       1.36113647
H       -0.34139354      -1.05305993       1.89337514
H       -1.37789699      -1.33463305      -0.90923836
H       -1.31171972       1.09210822       0.82572689
H       -2.02861971       1.27731520      -0.79730066
H        0.71458863       1.79285199      -0.05417010
H        1.16168335      -0.36202630      -1.74350340
H        1.88293674      -1.42971113       0.34996898
14
Frame=2 idx=008373 GeodesicLength=0.24671564596226786 rxn_smarts="[O:1]([C@@:2]1([H:9])[C:3]([H:10])([H:11])[N:4]([H:12])[C@:5]1([C:6](=[O:7])[H:14])[H:13])[H:8]>>[C:2]1([H:9])=[C:5]([H:13])[N:4]([H:12])[C:3]1([H:10])[H:11].[O:1]([C:6](=[O:7])[H:14])[H:8]"
O       -0.10243189      -1.43151584       1.01887997
C       -0.78541363      -0.48548288      -0.60649647
C       -1.16413751       0.91839889      -0.24233899
N        0.13201911       1.37699980      -0.80630974
C        0.50616360      -0.02181127      -0.94729288
C        1.18920828      -0.61500664       0.63245025
O        1.53138453       0.31900903       1.34688940
H       -0.34336502      -1.15122036       1.90821938
H       -1.39507542      -1.31495904      -0.93186169
H       -1.29557256       1.10543008       0.82604688
H       -2.03573047       1.29131427      -0.78676914
H        0.71505561       1.80987112      -0.09018000
H        1.14819065      -0.36961696      -1.74981355
H        1.89970470      -1.43141021       0.42857658
14
Frame=3 idx=008373 GeodesicLength=0.36934788610191077 rxn_smarts="[O:1]([C@@:2]1([H:9])[C:3]([H:10])([H:11])[N:4]([H:12])[C@:5]1([C:6](=[O:7])[H:14])[H:13])[H:8]>>[C:2]1([H:9])=[C:5]([H:13])[N:4]([H:12])[C:3]1([H:10])[H:11].[O:1]([C:6](=[O:7])[H:14])[H:8]"
O       -0.10123653      -1.44550976       1.00569900
C       -0.79454564      -0.48006663      -0.60552748
C       -1.16587251       0.92828267      -0.24372818
N        0.12453524       1.37868543      -0.82735838
C        0.49879498      -0.02038106      -0.95158251
C        1.19924593      -0.60237547       0.64792869
O        1.55346707       0.34910146       1.32995910
H       -0.34325692      -1.25783815       1.91760252
H       -1.41275888      -1.29418457      -0.95340063
H       -1.27867672       1.11988275       0.82604201
H       -2.04265293       1.30606560      -0.77597141
H        0.71534644       1.82689870      -0.12785826
H        1.13406657      -0.37786592      -1.75572897
H        1.91354390      -1.43069505       0.51392448
14
Frame=4 idx=008373 GeodesicLength=0.4912196100474692 rxn_smarts="[O:1]([C@@:2]1([H:9])[C:3]([H:10])([H:11])[N:4]([H:12])[C@:5]1([C:6](=[O:7])[H:14])[H:13])[H:8]>>[C:2]1([H:9])=[C:5]([H:13])[N:4]([H:12])[C:3]1([H:10])[H:11].[O:1]([C:6](=[O:7])[H:14])[H:8]"
O       -0.10000294      -1.45835928       0.99355980
C       -0.80417933      -0.47432326      -0.60370362
C       -1.16750482       0.93886574      -0.24509608
N        0.11679583       1.38009623      -0.84907785
C        0.49097668      -0.01915579      -0.95556489
C        1.20908688      -0.58891475       0.66473865
O        1.57838547       0.38051261       1.30988637
H       -0.34068134      -1.37361205       1.91991074
H       -1.43092712      -1.27240251      -0.97348961
H       -1.26097274       1.13566931       0.82566754
H       -2.04932414       1.32159094      -0.76496309
H        0.71546358       1.84383073      -0.16724554
H        1.11926540      -0.38695141      -1.76105291
H        1.92361860      -1.42684650       0.60643050
14
Frame=5 idx=008373 GeodesicLength=0.6120071144768136 rxn_smarts="[O:1]([C@@:2]1([H:9])[C:3]([H:10])([H:11])[N:4]([H:12])[C@:5]1([C:6](=[O:7])[H:14])[H:13])[H:8]>>[C:2]1([H:9])=[C:5]([H:13])[N:4]([H:12])[C:3]1([H:10])[H:11].[O:1]([C:6](=[O:7])[H:14])[H:8]"
O       -0.09889009      -1.46975997       0.98319244
C       -0.81434311      -0.46827223      -0.60070359
C       -1.16901775       0.95019818      -0.24642261
N        0.10883874       1.38109502      -0.87140921
C        0.48267084      -0.01826683      -0.95902721
C        1.21865671      -0.57446034       0.68328125
O        1.60670915       0.41302830       1.28618381
H       -0.33512291      -1.49916439       1.91299094
H       -1.44956412      -1.24975237      -0.99165487
H       -1.24241197       1.15303445       0.82486249
H       -2.05566167       1.33790339      -0.75385223
H        0.71542345       1.86050251      -0.20834188
H        1.10372341      -0.39714197      -1.76549559
H        1.92898932      -1.41894374       0.70639626
14
Frame=6 idx=008373 GeodesicLength=0.7312331002907143 rxn_smarts="[O:1]([C@@:2]1([H:9])[C:3]([H:10])([H:11])[N:4]([H:12])[C@:5]1([C:6](=[O:7])[H:14])[H:13])[H:8]>>[C:2]1([H:9])=[C:5]([H:13])[N:4]([H:12])[C:3]1([H:10])[H:11].[O:1]([C:6](=[O:7])[H:14])[H:8]"
O       -0.09804882      -1.47947960       0.97550009
C       -0.82510184      -0.46195463      -0.59608825
C       -1.17037778       0.96233535      -0.24764516
N        0.10072817       1.38145602      -0.89427211
C        0.47380645      -0.01794365      -0.96169575
C        1.22782836      -0.55877378       0.70404732
O        1.63892285       0.44626411       1.25839309
H       -0.32593862      -1.63487015       1.89379029
H       -1.46873714      -1.22641222      -1.00724918
H       -1.22292002       1.17228015       0.82358722
H       -2.06154991       1.35506027      -0.74271975
H        0.71530086       1.87665032      -0.25115963
H        1.08731208      -0.40888226      -1.76868377
H        1.92877536      -1.40572993       0.81419559
14
Frame=7 idx=008373 GeodesicLength=0.8481426102103733 rxn_smarts="[O:1]([C@@:2]1([H:9])[C:3]([H:10])([H:11])[N:4]([H:12])[C@:5]1([C:6](=[O:7])[H:14])[H:13])[H:8]>>[C:2]1([H:9])=[C:5]([H:13])[N:4]([H:12])[C:3]1([H:10])[H:11].[O:1]([C:6](=[O:7])[H:14])[H:8]"
O       -0.09727291      -1.48761565       0.97145129
C       -0.83647921      -0.45553670      -0.58928545
C       -1.17150366       0.97518025      -0.24852721
N        0.09252816       1.38082811      -0.91750247
C        0.46430704      -0.01851456      -0.96330029
C        1.23663521      -0.54161564       0.72741372
O        1.67544227       0.47952795       1.22611360
H       -0.31309201      -1.77960040       1.85790331
H       -1.48856183      -1.20267952      -1.01943473
H       -1.20231090       1.19353349       0.82197792
H       -2.06689992       1.37297637      -0.73134498
H        0.71522115       1.89184500      -0.29564626
H        1.06978947      -0.42270207      -1.77031972
H        1.92219713      -1.38562666       0.93050127
14
Frame=8 idx=008373 GeodesicLength=0.9617872649494057 rxn_smarts="[O:1]([C@@:2]1([H:9])[C:3]([H:10])([H:11])[N:4]([H:12])[C@:5]1([C:6](=[O:7])[H:14])[H:13])[H:8]>>[C:2]1([H:9])=[C:5]([H:13])[N:4]([H:12])[C:3]1([H:10])[H:11].[O:1]([C:6](=[O:7])[H:14])[H:8]"
O       -0.09671933      -1.49425664       0.97216441
C       -0.84855565      -0.44920376      -0.57975734
C       -1.17239292       0.98861143      -0.24892375
N        0.08433247       1.37882179      -0.94075204
C        0.45403187      -0.02035878      -0.96355984
C        1.24502785      -0.52287548       0.75364692
O        1.71667031       0.51147930       1.18905623
H       -0.29496114      -1.93099206       1.80063574
H       -1.50918373      -1.17885511      -1.02752157
H       -1.18061576       1.21680964       0.82006689
H       -2.07160670       1.39155983      -0.71978514
H        0.71528191       1.90544518      -0.34137573
H        1.05088703      -0.43916842      -1.77003950
H        1.90780378      -1.35701694       1.05614474
14
Frame=9 idx=008373 GeodesicLength=1.07093639039941 rxn_smarts="[O:1]([C@@:2]1([H:9])[C:3]([H:10])([H:11])[N:4]([H:12])[C@:5]1([C:6](=[O:7])[H:14])[H:13])[H:8]>>[C:2]1([H:9])=[C:5]([H:13])[N:4]([H:12])[C:3]1([H:10])[H:11].[O:1]([C:6](=[O:7])[H:14])[H:8]"
O       -0.09630165      -1.50029828       0.97869019
C       -0.86132658      -0.44337705      -0.56683984
C       -1.17311659       1.00219508      -0.24856981
N        0.07625796       1.37492056      -0.96333536
C        0.44292409      -0.02396669      -0.96195688
C        1.25265855      -0.50238325       0.78351436
O        1.76334896       0.54018445       1.14726602
H       -0.27079717      -2.08335233       1.71697900
H       -1.53051559      -1.15555254      -1.03078911
H       -1.15798505       1.24174742       0.81801423
H       -2.07558885       1.41029152      -0.70818136
H        0.71567285       1.91661430      -0.38754587
H        1.03049421      -0.45886347      -1.76721802
H        1.88427485      -1.31815972       1.18997244
14
Frame=10 idx=008373 GeodesicLength=1.17462919045045 rxn_smarts="[O:1]([C@@:2]1([H:9])[C:3]([H:10])([H:11])[N:4]([H:12])[C@:5]1([C:6](=[O:7])[H:14])[H:13])[H:8]>>[C:2]1([H:9])=[C:5]([H:13])[N:4]([H:12])[C:3]1([H:10])[H:11].[O:1]([C:6](=[O:7])[H:14])[H:8]"
O       -0.09598935      -1.50877594       0.98942571
C       -0.87498581      -0.43845525      -0.55072330
C       -1.17357787       1.01539054      -0.24709529
N        0.06850128       1.36860778      -0.98438847
C        0.43074260      -0.02988667      -0.95859549
C        1.25881582      -0.48105577       0.81666838
O        1.81418593       0.56243382       1.10131835
H       -0.23624454      -2.22703353       1.60594515
H       -1.55294427      -1.13267329      -1.03003261
H       -1.13451724       1.26724385       0.81618889
H       -2.07840075       1.42930787      -0.69623356
H        0.71670393       1.92416584      -0.43292198
H        1.00836287      -0.48212357      -1.76194481
H        1.84934740      -1.26714566       1.33238903
14
Frame=11 idx=008373 GeodesicLength=1.2746234362664715 rxn_smarts="[O:1]([C@@:2]1([H:9])[C:3]([H:10])([H:11])[N:4]([H:12])[C@:5]1([C:6](=[O:7])[H:14])[H:13])[H:8]>>[C:2]1([H:9])=[C:5]([H:13])[N:4]([H:12])[C:3]1([H:10])[H:11].[O:1]([C:6](=[O:7])[H:14])[H:8]"
O       -0.09325132      -1.52455004       0.99944415
C       -0.88910972      -0.43507682      -0.53264498
C       -1.17361611       1.02698980      -0.24369119
N        0.06099384       1.36005195      -1.00289265
C        0.41768883      -0.03791594      -0.95460318
C        1.26376003      -0.46020562       0.85163241
O        1.86970717       0.57413377       1.05055974
H       -0.19254064      -2.35027988       1.47384300
H       -1.57612820      -1.11033788      -1.02712961
H       -1.10990717       1.29055528       0.81573140
H       -2.08011932       1.44783092      -0.68236478
H        0.71847484       1.92745667      -0.47577881
H        0.98463878      -0.50761759      -1.75595971
H        1.79940899      -1.20103462       1.48385422
14
Frame=12 idx=008373 GeodesicLength=1.3729785634084484 rxn_smarts="[O:1]([C@@:2]1([H:9])[C:3]([H:10])([H:11])[N:4]([H:12])[C@:5]1([C:6](=[O:7])[H:14])[H:13])[H:8]>>[C:2]1([H:9])=[C:5]([H:13])[N:4]([H:12])[C:3]1([H:10])[H:11].[O:1]([C:6](=[O:7])[H:14])[H:8]"
O       -0.08521708      -1.55056621       1.00346359
C       -0.90301385      -0.43357185      -0.51429574
C       -1.17282107       1.03615223      -0.23767404
N        0.05394456       1.35020082      -1.01777302
C        0.40398408      -0.04734366      -0.95201526
C        1.26866153      -0.44159478       0.88534318
O        1.93147890       0.57017584       0.99361747
H       -0.14056232      -2.44904098       1.33167105
H       -1.59948893      -1.08873427      -1.02369353
H       -1.08351569       1.30902238       0.81774709
H       -2.08056124       1.46534097      -0.66506892
H        0.72146733       1.92620256      -0.51383515
H        0.95904915      -0.53315111      -1.75250328
H        1.72659463      -1.11309194       1.64501655
14
Frame=13 idx=008373 GeodesicLength=1.4696952214034273 rxn_smarts="[O:1]([C@@:2]1([H:9])[C:3]([H:10])([H:11])[N:4]([H:12])[C@:5]1([C:6](=[O:7])[H:14])[H:13])[H:8]>>[C:2]1([H:9])=[C:5]([H:13])[N:4]([H:12])[C:3]1([H:10])[H:11].[O:1]([C:6](=[O:7])[H:14])[H:8]"
O       -0.07068066      -1.58613196       0.99969680
C       -0.91585575      -0.43408473      -0.49682492
C       -1.17088789       1.04240877      -0.22897344
N        0.04840438       1.34030449      -1.02739085
C        0.39002862      -0.05734371      -0.95238446
C        1.27452066      -0.42690778       0.91490649
O        2.00010650       0.54536769       0.93229684
H       -0.08011772      -2.52543486       1.19276405
H       -1.62209829      -1.06843666      -1.02021954
H       -1.05579385       1.32093854       0.82267921
H       -2.07914249       1.48143265      -0.64462183
H        0.72683518       1.92009644      -0.54342605
H        0.93161742      -0.55631102      -1.75436400
H        1.62306390      -0.99589787       1.80586170
14
Frame=14 idx=008373 GeodesicLength=1.566415692427654 rxn_smarts="[O:1]([C@@:2]1([H:9])[C:3]([H:10])([H:11])[N:4]([H:12])[C@:5]1([C:6](=[O:7])[H:14])[H:13])[H:8]>>[C:2]1([H:9])=[C:5]([H:13])[N:4]([H:12])[C:3]1([H:10])[H:11].[O:1]([C:6](=[O:7])[H:14])[H:8]"
O       -0.05248855      -1.62658219       0.99455064
C       -0.92742110      -0.43652569      -0.47912806
C       -1.16767270       1.04642575      -0.21856178
N        0.04570496       1.33031917      -1.03128370
C        0.37602633      -0.06835988      -0.95448591
C        1.28087632      -0.41690912       0.94065147
O        2.06891178       0.50120757       0.87677038
H       -0.00938700      -2.58335463       1.06092874
H       -1.64361830      -1.04999205      -1.01507971
H       -1.02824170       1.32827728       0.82951311
H       -2.07494186       1.49663857      -0.62371730
H        0.73575632       1.90896857      -0.56316302
H        0.90296245      -0.57814742      -1.75971218
H        1.49353305      -0.85196593       1.94271732
14
Frame=15 idx=008373 GeodesicLength=1.6672586739298783 rxn_smarts="[O:1]([C@@:2]1([H:9])[C:3]([H:10])([H:11])[N:4]([H:12])[C@:5]1([C:6](=[O:7])[H:14])[H:13])[H:8]>>[C:2]1([H:9])=[C:5]([H:13])[N:4]([H:12])[C:3]1([H:10])[H:11].[O:1]([C:6](=[O:7])[H:14])[H:8]"
O       -0.03183661      -1.66678647       0.99495296
C       -0.93649071      -0.44103922      -0.46036433
C       -1.16384995       1.04794551      -0.20748870
N        0.04536367       1.32005578      -1.03078226
C        0.36358272      -0.07977889      -0.95610960
C        1.28946922      -0.41040772       0.96416318
O        2.13082588       0.44881336       0.83681611
H        0.05558810      -2.62208733       0.93752325
H       -1.66163411      -1.03506819      -1.00725884
H       -1.00282177       1.33222608       0.83707425
H       -2.06937389       1.50860847      -0.60412484
H        0.74652353       1.89497147      -0.57528821
H        0.87625769      -0.59853558      -1.76505348
H        1.35839623      -0.69891727       2.03594052
14
Frame=16 idx=008373 GeodesicLength=1.7735871986590006 rxn_smarts="[O:1]([C@@:2]1([H:9])[C:3]([H:10])([H:11])[N:4]([H:12])[C@:5]1([C:6](=[O:7])[H:14])[H:13])[H:8]>>[C:2]1([H:9])=[C:5]([H:13])[N:4]([H:12])[C:3]1([H:10])[H:11].[O:1]([C:6](=[O:7])[H:14])[H:8]"
O       -0.01127950      -1.70637562       1.00142605
C       -0.94393211      -0.44696962      -0.44091194
C       -1.15998627       1.04788937      -0.19647636
N        0.04641821       1.30942221      -1.02759688
C        0.35244823      -0.09152141      -0.95619918
C        1.29868198      -0.40647916       0.98818595
O        2.18347785       0.39484572       0.81239068
H        0.11460655      -2.64349255       0.82270781
H       -1.67680441      -1.02247109      -0.99837656
H       -0.97995787       1.33450105       0.84458592
H       -2.06301629       1.51850117      -0.58649384
H        0.75769644       1.87975023      -0.58267374
H        0.85231200      -0.61835346      -1.76814954
H        1.22933521      -0.54924686       2.08758163
