16
Frame=0 idx=003543 GeodesicLength=0.0 rxn_smarts="[C:1]([C:2]([C@@:3]1([H:12])[C:4]([H:13])([H:14])[C@:5]1([O:6][H:16])[H:15])([H:10])[H:11])([H:7])([H:8])[H:9]>>[C:1]([C:2]([C:3](/[C:4](=[C:5](/[O:6][H:16])[H:15])[H:14])([H:12])[H:13])([H:10])[H:11])([H:7])([H:8])[H:9]"
C       -1.81192804       0.52761792       0.22465071
C       -0.90726507      -0.61211552      -0.22762406
C        0.40319620      -0.64271429       0.54572568
C        2.22704643      -0.80114976      -0.01688677
C        1.46679362       0.41917118       0.05805366
O        1.14835572       1.07701393      -1.14438773
H       -1.33921346       1.50144399       0.08032694
H       -2.05928365       0.43623377       1.28493885
H       -2.74777711       0.53071943      -0.33587036
H       -1.42349256      -1.56415019      -0.08320160
H       -0.69184637      -0.52361726      -1.29294374
H        0.28820500      -0.56881525       1.62504170
H        0.88696042      -1.65809563       0.43112212
H        2.10039357      -1.17002310      -1.05027474
H        1.72214490       1.12801896       0.84480206
H        0.73771040       1.92046179      -0.94347269
16
Frame=1 idx=003543 GeodesicLength=0.11889073846713274 rxn_smarts="[C:1]([C:2]([C@@:3]1([H:12])[C:4]([H:13])([H:14])[C@:5]1([O:6][H:16])[H:15])([H:10])[H:11])([H:7])([H:8])[H:9]>>[C:1]([C:2]([C:3](/[C:4](=[C:5](/[O:6][H:16])[H:15])[H:14])([H:12])[H:13])([H:10])[H:11])([H:7])([H:8])[H:9]"
C       -1.81535625       0.51951115       0.21903472
C       -0.90835761      -0.62173279      -0.22467508
C        0.40376361      -0.64387387       0.54634288
C        2.18888925      -0.80773070      -0.03198659
C        1.47397711       0.43463087       0.05515914
O        1.16766267       1.10623713      -1.14081733
H       -1.34407747       1.49292079       0.06759047
H       -2.06182266       0.43603443       1.28023020
H       -2.75179639       0.51668656      -0.34056326
H       -1.42343989      -1.57332442      -0.07263612
H       -0.69676977      -0.54013402      -1.29156220
H        0.28855744      -0.55543949       1.62473310
H        0.89616446      -1.67636848       0.45771121
H        2.06933607      -1.16896020      -1.06737424
H        1.74204980       1.12683826       0.85198223
H        0.77121961       1.95470479      -0.93316912
16
Frame=2 idx=003543 GeodesicLength=0.23775171613163187 rxn_smarts="[C:1]([C:2]([C@@:3]1([H:12])[C:4]([H:13])([H:14])[C@:5]1([O:6][H:16])[H:15])([H:10])[H:11])([H:7])([H:8])[H:9]>>[C:1]([C:2]([C:3](/[C:4](=[C:5](/[O:6][H:16])[H:15])[H:14])([H:12])[H:13])([H:10])[H:11])([H:7])([H:8])[H:9]"
C       -1.81884639       0.51150284       0.21323041
C       -0.91006338      -0.63177155      -0.22152561
C        0.40376322      -0.64544519       0.54684115
C        2.15044131      -0.81269829      -0.04726878
C        1.48112278       0.44989279       0.05237462
O        1.18772795       1.13551612      -1.13688980
H       -1.34865840       1.48412570       0.05371263
H       -2.06404883       0.43677149       1.27541685
H       -2.75608945       0.50270349      -0.34502391
H       -1.42414177      -1.58265471      -0.06113622
H       -0.70260671      -0.55779711      -1.29002441
H        0.28876533      -0.54314562       1.62418778
H        0.90694905      -1.69385135       0.48358514
H        2.03805092      -1.16696763      -1.08433109
H        1.76163386       1.12495357       0.85916038
H        0.80600052       1.98886543      -0.92230914
16
Frame=3 idx=003543 GeodesicLength=0.35658475080782653 rxn_smarts="[C:1]([C:2]([C@@:3]1([H:12])[C:4]([H:13])([H:14])[C@:5]1([O:6][H:16])[H:15])([H:10])[H:11])([H:7])([H:8])[H:9]>>[C:1]([C:2]([C:3](/[C:4](=[C:5](/[O:6][H:16])[H:15])[H:14])([H:12])[H:13])([H:10])[H:11])([H:7])([H:8])[H:9]"
C       -1.82242499       0.50360974       0.20723277
C       -0.91243564      -0.64224075      -0.21814211
C        0.40315566      -0.64741882       0.54722653
C        2.11172597      -0.81606347      -0.06265315
C        1.48820033       0.46496602       0.04971662
O        1.20861259       1.16481643      -1.13259477
H       -1.35296350       1.47503559       0.03864452
H       -2.06597051       0.43851075       1.27047867
H       -2.76069217       0.48879323      -0.34923616
H       -1.42564971      -1.59212146      -0.04861422
H       -0.70942943      -0.57667789      -1.28828488
H        0.28882040      -0.53199447       1.62344505
H        0.91950085      -1.71049121       0.50845725
H        2.00662924      -1.16398724      -1.10111134
H        1.78082819       1.12238641       0.86634169
H        0.84209273       2.02287716      -0.91090646
16
Frame=4 idx=003543 GeodesicLength=0.4753918924450824 rxn_smarts="[C:1]([C:2]([C@@:3]1([H:12])[C:4]([H:13])([H:14])[C@:5]1([O:6][H:16])[H:15])([H:10])[H:11])([H:7])([H:8])[H:9]>>[C:1]([C:2]([C:3](/[C:4](=[C:5](/[O:6][H:16])[H:15])[H:14])([H:12])[H:13])([H:10])[H:11])([H:7])([H:8])[H:9]"
C       -1.82611636       0.49584346       0.20103045
C       -0.91552118      -0.65315063      -0.21448942
C        0.40190841      -0.64978461       0.54750582
C        2.07275936      -0.81783410      -0.07807855
C        1.49518087       0.47986592       0.04720316
O        1.23037834       1.19411226      -1.12791499
H       -1.35700117       1.46561881       0.02233527
H       -2.06759598       0.44131234       1.26538425
H       -2.76563538       0.47497329      -0.35319349
H       -1.42800756      -1.60170276      -0.03498241
H       -0.71730191      -0.59685160      -1.28629222
H        0.28871684      -0.52202955       1.62254482
H        0.93399658      -1.72624343       0.53206054
H        1.97512946      -1.15997130      -1.11768803
H        1.79957328       1.11915968       0.87353612
H        0.87953641       2.05668221      -0.89896131
16
Frame=5 idx=003543 GeodesicLength=0.5941753837119399 rxn_smarts="[C:1]([C:2]([C@@:3]1([H:12])[C:4]([H:13])([H:14])[C@:5]1([O:6][H:16])[H:15])([H:10])[H:11])([H:7])([H:8])[H:9]>>[C:1]([C:2]([C:3](/[C:4](=[C:5](/[O:6][H:16])[H:15])[H:14])([H:12])[H:13])([H:10])[H:11])([H:7])([H:8])[H:9]"
C       -1.82994233       0.48821030       0.19460572
C       -0.91936056      -0.66451273      -0.21053029
C        0.39999527      -0.65253272       0.54768714
C        2.03354762      -0.81801569      -0.09350044
C        1.50203722       0.49461297       0.04485362
O        1.25308822       1.22338450      -1.12282601
H       -1.36078035       1.45583436       0.00473084
H       -2.06893244       0.44523130       1.26009075
H       -2.77094495       0.46125512      -0.35689840
H       -1.43125184      -1.61137410      -0.02015246
H       -0.72628021      -0.61839718      -1.28398804
H        0.28845112      -0.51327849       1.62152672
H        0.95060334      -1.74106369       0.55414543
H        1.94357756      -1.15487883      -1.13404228
H        1.81781981       1.11529549       0.88075765
H        0.91837253       2.09022938      -0.88645995
16
Frame=6 idx=003543 GeodesicLength=0.7129389353596444 rxn_smarts="[C:1]([C:2]([C@@:3]1([H:12])[C:4]([H:13])([H:14])[C@:5]1([O:6][H:16])[H:15])([H:10])[H:11])([H:7])([H:8])[H:9]>>[C:1]([C:2]([C:3](/[C:4](=[C:5](/[O:6][H:16])[H:15])[H:14])([H:12])[H:13])([H:10])[H:11])([H:7])([H:8])[H:9]"
C       -1.83392239       0.48071127       0.18793490
C       -0.92398876      -0.67633984      -0.20622495
C        0.39739552      -0.65565458       0.54778067
C        1.99408485      -0.81661160      -0.10888751
C        1.50874413       0.50923128       0.04268854
O        1.27680678       1.25261792      -1.11729624
H       -1.36431026       1.44563115      -0.01422505
H       -2.06998589       0.45031742       1.25454387
H       -2.77664173       0.44764516      -0.36036220
H       -1.43541202      -1.62110790      -0.00403572
H       -0.73641305      -0.64139658      -1.28130605
H        0.28802187      -0.50575509       1.62042981
H        0.96948028      -1.75490035       0.57447548
H        1.91196892      -1.14867242      -1.15016228
H        1.83552940       1.11081335       0.88802228
H        0.95864235       2.12347082      -0.87337555
16
Frame=7 idx=003543 GeodesicLength=0.8316868215846197 rxn_smarts="[C:1]([C:2]([C@@:3]1([H:12])[C:4]([H:13])([H:14])[C@:5]1([O:6][H:16])[H:15])([H:10])[H:11])([H:7])([H:8])[H:9]>>[C:1]([C:2]([C:3](/[C:4](=[C:5](/[O:6][H:16])[H:15])[H:14])([H:12])[H:13])([H:10])[H:11])([H:7])([H:8])[H:9]"
C       -1.83807331       0.47334242       0.18098899
C       -0.92943605      -0.68864579      -0.20153026
C        0.39409294      -0.65914409       0.54779925
C        1.95435261      -0.81362191      -0.12421715
C        1.51527773       0.52374757       0.04072991
O        1.30160077       1.28179744      -1.11128766
H       -1.36759916       1.43494726      -0.03459164
H       -2.07075972       0.45661646       1.24867836
H       -2.78274194       0.43414504      -0.36360328
H       -1.44051209      -1.63087246       0.01345781
H       -0.74774239      -0.66593451      -1.27817035
H        0.28742982      -0.49946318       1.61929235
H        0.99077788      -1.76768851       0.59281796
H        1.88027309      -1.14131449      -1.16604134
H        1.85267172       1.10572994       0.89534761
H        1.00038813       2.15635882      -0.85967055
16
Frame=8 idx=003543 GeodesicLength=0.9504219317105186 rxn_smarts="[C:1]([C:2]([C@@:3]1([H:12])[C:4]([H:13])([H:14])[C@:5]1([O:6][H:16])[H:15])([H:10])[H:11])([H:7])([H:8])[H:9]>>[C:1]([C:2]([C:3](/[C:4](=[C:5](/[O:6][H:16])[H:15])[H:14])([H:12])[H:13])([H:10])[H:11])([H:7])([H:8])[H:9]"
C       -1.84240965       0.46609478       0.17373546
C       -0.93572863      -0.70144434      -0.19639922
C        0.39007514      -0.66299802       0.54775909
C        1.91432085      -0.80904293      -0.13947072
C        1.52161517       0.53819061       0.03900057
O        1.32753997       1.31090338      -1.10475864
H       -1.37065220       1.42370912      -0.05642366
H       -2.07125831       0.46416572       1.24241855
H       -2.78925641       0.42075515      -0.36664815
H       -1.44657153      -1.64063050       0.03241816
H       -0.76030328      -0.69209552      -1.27449428
H        0.28667770      -0.49439870       1.61815208
H        1.01463741      -1.77934401       0.60893673
H        1.84843916      -1.13276638      -1.18167506
H        1.86922216       1.10006001       0.90275157
H        1.04365245       2.18884161      -0.84530249
16
Frame=9 idx=003543 GeodesicLength=1.069157821181087 rxn_smarts="[C:1]([C:2]([C@@:3]1([H:12])[C:4]([H:13])([H:14])[C@:5]1([O:6][H:16])[H:15])([H:10])[H:11])([H:7])([H:8])[H:9]>>[C:1]([C:2]([C:3](/[C:4](=[C:5](/[O:6][H:16])[H:15])[H:14])([H:12])[H:13])([H:10])[H:11])([H:7])([H:8])[H:9]"
C       -1.84694229       0.45895478       0.16613526
C       -0.94288833      -0.71475005      -0.19078041
C        0.38533194      -0.66721697       0.54768116
C        1.87394202      -0.80286575      -0.15463022
C        1.52773478       0.55258925       0.03752680
O        1.35469509       1.33991173      -1.09765700
H       -1.37347889       1.41183144      -0.07979052
H       -2.07147235       0.47300836       1.23567691
H       -2.79619239       0.40746562      -0.36952404
H       -1.45360347      -1.65033909       0.05293743
H       -0.77412334      -0.71996693      -1.27017818
H        0.28577009      -0.49055419       1.61704679
H        1.04119037      -1.78976169       0.62257764
H        1.81639322      -1.12298246      -1.19705611
H        1.88516566       1.09381298       0.91025040
H        1.08847791       2.22086297      -0.83021591
16
Frame=10 idx=003543 GeodesicLength=1.1878938514273365 rxn_smarts="[C:1]([C:2]([C@@:3]1([H:12])[C:4]([H:13])([H:14])[C@:5]1([O:6][H:16])[H:15])([H:10])[H:11])([H:7])([H:8])[H:9]>>[C:1]([C:2]([C:3](/[C:4](=[C:5](/[O:6][H:16])[H:15])[H:14])([H:12])[H:13])([H:10])[H:11])([H:7])([H:8])[H:9]"
C       -1.85168163       0.45190256       0.15814988
C       -0.95093555      -0.72857694      -0.18461547
C        0.37985751      -0.67180637       0.54759030
C        1.83316428      -0.79507312      -0.16967283
C        1.53361204       0.56697619       0.03633467
O        1.38314196       1.36878362      -1.08993691
H       -1.37607615       1.39921328      -0.10473901
H       -2.07140599       0.48316643       1.22835680
H       -2.80355232       0.39427352      -0.37227061
H       -1.46162277      -1.65994707       0.07511148
H       -0.78922351      -0.74963405      -1.26510766
H        0.28471481      -0.48792110       1.61601515
H        1.07055126      -1.79880762       0.63346476
H        1.78405462      -1.11191085      -1.21217682
H        1.90047884       1.08700258       0.91786281
H        1.13492261       2.25235893      -0.81436653
16
Frame=11 idx=003543 GeodesicLength=1.306640634302993 rxn_smarts="[C:1]([C:2]([C@@:3]1([H:12])[C:4]([H:13])([H:14])[C@:5]1([O:6][H:16])[H:15])([H:10])[H:11])([H:7])([H:8])[H:9]>>[C:1]([C:2]([C:3](/[C:4](=[C:5](/[O:6][H:16])[H:15])[H:14])([H:12])[H:13])([H:10])[H:11])([H:7])([H:8])[H:9]"
C       -1.85663443       0.44491266       0.14973492
C       -0.95988595      -0.74293864      -0.17783992
C        0.37364812      -0.67677596       0.54751861
C        1.79191893      -0.78564057      -0.18456977
C        1.53922353       0.58138386       0.03545444
O        1.41295820       1.39747038      -1.08154319
H       -1.37844591       1.38574021      -0.13132998
H       -2.07104857       0.49466773       1.22034947
H       -2.81133516       0.38116346      -0.37492763
H       -1.47063788      -1.66939549       0.09903821
H       -0.80561407      -0.78118198      -1.25915189
H        0.28352222      -0.48649009       1.61509789
H        1.10281589      -1.80632138       0.64128587
H        1.75132386      -1.09948920      -1.22702189
H        1.91514477       1.07963897       0.92560578
H        1.18304643       2.28325604      -0.79770091
16
Frame=12 idx=003543 GeodesicLength=1.425410158986589 rxn_smarts="[C:1]([C:2]([C@@:3]1([H:12])[C:4]([H:13])([H:14])[C@:5]1([O:6][H:16])[H:15])([H:10])[H:11])([H:7])([H:8])[H:9]>>[C:1]([C:2]([C:3](/[C:4](=[C:5](/[O:6][H:16])[H:15])[H:14])([H:12])[H:13])([H:10])[H:11])([H:7])([H:8])[H:9]"
C       -1.86180659       0.43795220       0.14084622
C       -0.96975009      -0.75784491      -0.17038376
C        0.36670363      -0.68213839       0.54750596
C        1.75012712      -0.77453673      -0.19928023
C        1.54454740       0.59584537       0.03491704
O        1.44422672       1.42590440      -1.07242288
H       -1.38058787       1.37128389      -0.15960619
H       -2.07039483       0.50752173       1.21153690
H       -2.81953397       0.36811844      -0.37754395
H       -1.48065154      -1.67861585       0.12480964
H       -0.82329098      -0.81468365      -1.25216442
H        0.28220529      -0.48624652       1.61433882
H        1.13805418      -1.81211066       0.64569324
H        1.71809089      -1.08564895      -1.24156521
H        1.92914711       1.07173454       0.93349374
H        1.23291356       2.31346510      -0.78017492
16
Frame=13 idx=003543 GeodesicLength=1.5442172818366475 rxn_smarts="[C:1]([C:2]([C@@:3]1([H:12])[C:4]([H:13])([H:14])[C@:5]1([O:6][H:16])[H:15])([H:10])[H:11])([H:7])([H:8])[H:9]>>[C:1]([C:2]([C:3](/[C:4](=[C:5](/[O:6][H:16])[H:15])[H:14])([H:12])[H:13])([H:10])[H:11])([H:7])([H:8])[H:9]"
C       -1.86720232       0.43097959       0.13144097
C       -0.98053182      -0.77330069      -0.16217121
C        0.35902820      -0.68790899       0.54760090
C        1.70769988      -0.76172201      -0.21374664
C        1.54956251       0.61039470       0.03475421
O        1.47703431       1.45399503      -1.06252671
H       -1.38249950       1.35570244      -0.18958914
H       -2.06944425       0.52171711       1.20179269
H       -2.82813444       0.35511690      -0.38017742
H       -1.49165910      -1.68753007       0.15250958
H       -0.84223181      -0.85019614      -1.24398223
H        0.28077960      -0.48716987       1.61378455
H        1.17630005      -1.81595000       0.64629415
H        1.68423570      -1.07031366      -1.25576502
H        1.94246563       1.06330658       0.94153851
H        1.28459736       2.34287908      -0.76175718
16
Frame=14 idx=003543 GeodesicLength=1.6630832907316273 rxn_smarts="[C:1]([C:2]([C@@:3]1([H:12])[C:4]([H:13])([H:14])[C@:5]1([O:6][H:16])[H:15])([H:10])[H:11])([H:7])([H:8])[H:9]>>[C:1]([C:2]([C:3](/[C:4](=[C:5](/[O:6][H:16])[H:15])[H:14])([H:12])[H:13])([H:10])[H:11])([H:7])([H:8])[H:9]"
C       -1.87282775       0.42394305       0.12148116
C       -0.99222716      -0.78930283      -0.15312434
C        0.35063091      -0.69410486       0.54786138
C        1.66454179      -0.74714996      -0.22788714
C        1.55425235       0.62506613       0.03499790
O        1.51147647       1.48162275      -1.05181377
H       -1.38418257       1.33884337      -0.22126987
H       -2.06820505       0.53721338       1.19098770
H       -2.83711861       0.34213084      -0.38289298
H       -1.50364611      -1.69605097       0.18220236
H       -0.86239107      -0.88774800      -1.23443122
H        0.27926152      -0.48923169       1.61348645
H        1.21754241      -1.81757851       0.64264950
H        1.64963427      -1.05340130      -1.26955649
H        1.95507933       1.05438069       0.94974822
H        1.33817926       2.37136790      -0.74243887
16
Frame=15 idx=003543 GeodesicLength=1.7820348699541484 rxn_smarts="[C:1]([C:2]([C@@:3]1([H:12])[C:4]([H:13])([H:14])[C@:5]1([O:6][H:16])[H:15])([H:10])[H:11])([H:7])([H:8])[H:9]>>[C:1]([C:2]([C:3](/[C:4](=[C:5](/[O:6][H:16])[H:15])[H:14])([H:12])[H:13])([H:10])[H:11])([H:7])([H:8])[H:9]"
C       -1.87868991       0.41677897       0.11093605
C       -1.00482148      -0.80583895      -0.14316372
C        0.34152759      -0.70074394       0.54835487
C        1.62055417      -0.73076661      -0.24158999
C        1.55860400       0.63989513       0.03568016
O        1.54765502       1.50863358      -1.04025489
H       -1.38564242       1.32054570      -0.25460365
H       -2.06669532       0.55393662       1.17899322
H       -2.84646315       0.32912149      -0.38576220
H       -1.51658595      -1.70408394       0.21392921
H       -0.88369392      -0.92733347      -1.22332786
H        0.27766764      -0.49239390       1.61349916
H        1.26170851      -1.81670088       0.63426651
H        1.61416059      -1.03482247      -1.28284694
H        1.96695762       1.04499666       0.95812950
H        1.39375701       2.39877600      -0.72223944
16
Frame=16 idx=003543 GeodesicLength=1.9011064434076677 rxn_smarts="[C:1]([C:2]([C@@:3]1([H:12])[C:4]([H:13])([H:14])[C@:5]1([O:6][H:16])[H:15])([H:10])[H:11])([H:7])([H:8])[H:9]>>[C:1]([C:2]([C:3](/[C:4](=[C:5](/[O:6][H:16])[H:15])[H:14])([H:12])[H:13])([H:10])[H:11])([H:7])([H:8])[H:9]"
C       -1.88479757       0.40941073       0.09978430
C       -1.01828689      -0.82288518      -0.13221210
C        0.33174325      -0.70784365       0.54915728
C        1.57564088      -0.71251245      -0.25470656
C        1.56261193       0.65491776       0.03683387
O        1.58567902       1.53483402      -1.02783452
H       -1.38689351       1.30064249      -0.28951171
H       -2.06493952       0.57177965       1.16568555
H       -2.85614258       0.31603304      -0.38885720
H       -1.53043668      -1.71152849       0.24770117
H       -0.90603050      -0.96890426      -1.21048599
H        0.27601349      -0.49660783       1.61388020
H        1.30864694      -1.81298912       0.62059605
H        1.57769074      -1.01447855      -1.29551016
H        1.97805696       1.03521409       0.96669104
H        1.45144403       2.42491776      -0.70121123
