11
Frame=0 idx=004397 GeodesicLength=0.0 rxn_smarts="[O:1]=[C:2]1[N:3]([H:7])[C:4]([H:8])([H:9])[C:5]([H:10])=[C:6]1[H:11]>>[O:1]([C:2]1=[N:3][C:4]([H:8])([H:9])[C:5]([H:10])=[C:6]1[H:11])[H:7]"
O        2.00342838      -1.34877146       0.00540940
C        1.04181483      -0.51111845       0.02481507
N       -0.09577414      -1.13424921      -0.13095888
C       -1.18398763      -0.18633719      -0.11217112
C       -0.46807548       1.12631288       0.08806575
C        0.85236773       0.93269695       0.16926102
H        0.84729849      -2.04685622      -0.16033408
H       -1.89172079      -0.38229102       0.70005501
H       -1.75268340      -0.18991924      -1.04787480
H       -0.98367073       2.07569297       0.15140428
H        1.63100271       1.66483994       0.31232830
11
Frame=1 idx=004397 GeodesicLength=0.031234230241211986 rxn_smarts="[O:1]=[C:2]1[N:3]([H:7])[C:4]([H:8])([H:9])[C:5]([H:10])=[C:6]1[H:11]>>[O:1]([C:2]1=[N:3][C:4]([H:8])([H:9])[C:5]([H:10])=[C:6]1[H:11])[H:7]"
O        2.00196663      -1.34892965       0.02238603
C        1.04423948      -0.50665984       0.00402000
N       -0.09523129      -1.13303148      -0.13889365
C       -1.18310722      -0.18507932      -0.11226551
C       -0.46914187       1.12796929       0.08883123
C        0.85063161       0.93399968       0.17341910
H        0.84717734      -2.05706131      -0.15803112
H       -1.88736553      -0.38491568       0.70205915
H       -1.75544358      -0.18751603      -1.04579663
H       -0.98561585       2.07669188       0.15383781
H        1.63189026       1.66453247       0.31043359
11
Frame=2 idx=004397 GeodesicLength=0.0624461956045009 rxn_smarts="[O:1]=[C:2]1[N:3]([H:7])[C:4]([H:8])([H:9])[C:5]([H:10])=[C:6]1[H:11]>>[O:1]([C:2]1=[N:3][C:4]([H:8])([H:9])[C:5]([H:10])=[C:6]1[H:11])[H:7]"
O        2.00057052      -1.34802069       0.03406950
C        1.04635570      -0.50264083      -0.01288697
N       -0.09478276      -1.13197097      -0.14527516
C       -1.18219314      -0.18383592      -0.11247515
C       -0.47014734       1.12953082       0.08990861
C        0.84886564       0.93493692       0.17873139
H        0.84695821      -2.06735388      -0.15436144
H       -1.88400578      -0.38713210       0.70312891
H       -1.75698995      -0.18537087      -1.04454028
H       -0.98737369       2.07771360       0.15579981
H        1.63274260       1.66414393       0.30790080
11
Frame=3 idx=004397 GeodesicLength=0.09366840747897312 rxn_smarts="[O:1]=[C:2]1[N:3]([H:7])[C:4]([H:8])([H:9])[C:5]([H:10])=[C:6]1[H:11]>>[O:1]([C:2]1=[N:3][C:4]([H:8])([H:9])[C:5]([H:10])=[C:6]1[H:11])[H:7]"
O        1.99944597      -1.34648634       0.04149788
C        1.04822281      -0.49889448      -0.02695089
N       -0.09442423      -1.13104772      -0.15027459
C       -1.18127676      -0.18260799      -0.11261556
C       -0.47109940       1.13109847       0.09074417
C        0.84712306       0.93576847       0.18395314
H        0.84666490      -2.07770540      -0.14996583
H       -1.88122165      -0.38876412       0.70389938
H       -1.75788513      -0.18375030      -1.04360535
H       -0.98898764       2.07883978       0.15677002
H        1.63343806       1.66354963       0.30654762
11
Frame=4 idx=004397 GeodesicLength=0.12488996831136344 rxn_smarts="[O:1]=[C:2]1[N:3]([H:7])[C:4]([H:8])([H:9])[C:5]([H:10])=[C:6]1[H:11]>>[O:1]([C:2]1=[N:3][C:4]([H:8])([H:9])[C:5]([H:10])=[C:6]1[H:11])[H:7]"
O        1.99851624      -1.34462847       0.04630606
C        1.04992086      -0.49530279      -0.03912253
N       -0.09411550      -1.13020982      -0.15437336
C       -1.18036002      -0.18139002      -0.11268715
C       -0.47202250       1.13268449       0.09137824
C        0.84540308       0.93657528       0.18889002
H        0.84633632      -2.08809814      -0.14528269
H       -1.87877654      -0.38999485       0.70453857
H       -1.75840165      -0.18250269      -1.04283177
H       -0.99052119       2.08004401       0.15706821
H        1.63402091       1.66282300       0.30611639
11
Frame=5 idx=004397 GeodesicLength=0.15610924284987562 rxn_smarts="[O:1]=[C:2]1[N:3]([H:7])[C:4]([H:8])([H:9])[C:5]([H:10])=[C:6]1[H:11]>>[O:1]([C:2]1=[N:3][C:4]([H:8])([H:9])[C:5]([H:10])=[C:6]1[H:11])[H:7]"
O        1.99767253      -1.34261981       0.04969727
C        1.05150237      -0.49180273      -0.04991780
N       -0.09382735      -1.12942055      -0.15789023
C       -1.17943790      -0.18017870      -0.11270575
C       -0.47293241       1.13428182       0.09193241
C        0.84370028       0.93738603       0.19357504
H        0.84600759      -2.09852165      -0.14070560
H       -1.87655488      -0.39098700       0.70508785
H       -1.75865628      -0.18147858      -1.04216155
H       -0.99201423       2.08129201       0.15701199
H        1.63454028       1.66204916       0.30607638
11
Frame=6 idx=004397 GeodesicLength=0.18730994787181388 rxn_smarts="[O:1]=[C:2]1[N:3]([H:7])[C:4]([H:8])([H:9])[C:5]([H:10])=[C:6]1[H:11]>>[O:1]([C:2]1=[N:3][C:4]([H:8])([H:9])[C:5]([H:10])=[C:6]1[H:11])[H:7]"
O        1.99684808      -1.34055980       0.05237225
C        1.05301069      -0.48834521      -0.05975196
N       -0.09353942      -1.12865538      -0.16102866
C       -1.17850664      -0.17897305      -0.11267090
C       -0.47383345       1.13589225       0.09242673
C        0.84202132       0.93822936       0.19794767
H        0.84569220      -2.10897186      -0.13642085
H       -1.87445150      -0.39182122       0.70561734
H       -1.75875821      -0.18061489      -1.04152616
H       -0.99348680       2.08256942       0.15673329
H        1.63500373       1.66125038       0.30630125
11
Frame=7 idx=004397 GeodesicLength=0.21852598254166752 rxn_smarts="[O:1]=[C:2]1[N:3]([H:7])[C:4]([H:8])([H:9])[C:5]([H:10])=[C:6]1[H:11]>>[O:1]([C:2]1=[N:3][C:4]([H:8])([H:9])[C:5]([H:10])=[C:6]1[H:11])[H:7]"
O        1.99604961      -1.33844834       0.05433201
C        1.05445971      -0.48491191      -0.06882089
N       -0.09324279      -1.12789997      -0.16393442
C       -1.17756127      -0.17776538      -0.11265177
C       -0.47473354       1.13750493       0.09294955
C        0.84035269       0.93908699       0.20216852
H        0.84535426      -2.11949917      -0.13204974
H       -1.87247680      -0.39258325       0.70602014
H       -1.75868173      -0.17980404      -1.04100648
H       -0.99495934       2.08384788       0.15647185
H        1.63543920       1.66047227       0.30652124
11
Frame=8 idx=004397 GeodesicLength=0.24972592421568215 rxn_smarts="[O:1]=[C:2]1[N:3]([H:7])[C:4]([H:8])([H:9])[C:5]([H:10])=[C:6]1[H:11]>>[O:1]([C:2]1=[N:3][C:4]([H:8])([H:9])[C:5]([H:10])=[C:6]1[H:11])[H:7]"
O        1.99524127      -1.33631734       0.05578762
C        1.05587518      -0.48147135      -0.07738665
N       -0.09292742      -1.12714270      -0.16671487
C       -1.17660031      -0.17655694      -0.11265184
C       -0.47563091       1.13912214       0.09347594
C        0.83869886       0.93996554       0.20620742
H        0.84499321      -2.13009472      -0.12754755
H       -1.87056678      -0.39330453       0.70634048
H       -1.75849343      -0.17903124      -1.04056557
H       -0.99643624       2.08512264       0.15625663
H        1.63584655       1.65970849       0.30679840
11
Frame=9 idx=004397 GeodesicLength=0.28091217735196217 rxn_smarts="[O:1]=[C:2]1[N:3]([H:7])[C:4]([H:8])([H:9])[C:5]([H:10])=[C:6]1[H:11]>>[O:1]([C:2]1=[N:3][C:4]([H:8])([H:9])[C:5]([H:10])=[C:6]1[H:11])[H:7]"
O        1.99443126      -1.33415929       0.05670496
C        1.05726984      -0.47800528      -0.08565039
N       -0.09258652      -1.12637530      -0.16947257
C       -1.17562192      -0.17534712      -0.11269617
C       -0.47652431       1.14074367       0.09398767
C        0.83706337       0.94086510       0.21003805
H        0.84458528      -2.14076574      -0.12265928
H       -1.86868235      -0.39401113       0.70657860
H       -1.75823345      -0.17827083      -1.04020245
H       -0.99792089       2.08638664       0.15613996
H        1.63621968       1.65893928       0.30723162
11
Frame=10 idx=004397 GeodesicLength=0.31210316149034606 rxn_smarts="[O:1]=[C:2]1[N:3]([H:7])[C:4]([H:8])([H:9])[C:5]([H:10])=[C:6]1[H:11]>>[O:1]([C:2]1=[N:3][C:4]([H:8])([H:9])[C:5]([H:10])=[C:6]1[H:11])[H:7]"
O        1.99361160      -1.33198542       0.05722916
C        1.05864995      -0.47450939      -0.09372925
N       -0.09221982      -1.12559761      -0.17226136
C       -1.17462671      -0.17413782      -0.11278279
C       -0.47741530       1.14236929       0.09449610
C        0.83544665       0.94179011       0.21363590
H        0.84412749      -2.15151288      -0.11740428
H       -1.86679749      -0.39472668       0.70675572
H       -1.75792934      -0.17750745      -1.03989854
H       -0.99941499       2.08764254       0.15613426
H        1.63656797       1.65817531       0.30782508
11
Frame=11 idx=004397 GeodesicLength=0.3433749294824828 rxn_smarts="[O:1]=[C:2]1[N:3]([H:7])[C:4]([H:8])([H:9])[C:5]([H:10])=[C:6]1[H:11]>>[O:1]([C:2]1=[N:3][C:4]([H:8])([H:9])[C:5]([H:10])=[C:6]1[H:11])[H:7]"
O        1.99280188      -1.32977627       0.05729170
C        1.06001985      -0.47096282      -0.10160910
N       -0.09182098      -1.12479155      -0.17509327
C       -1.17361168      -0.17292491      -0.11292721
C       -0.47830771       1.14398552       0.09506763
C        0.83384217       0.94272023       0.21713800
H        0.84359285      -2.16235058      -0.11168699
H       -1.86493748      -0.39547913       0.70681494
H       -1.75754832      -0.17669939      -1.03968576
H       -1.00091996       2.08887303       0.15626467
H        1.63688940       1.65740586       0.30842539
11
Frame=12 idx=004397 GeodesicLength=0.3745125398354736 rxn_smarts="[O:1]=[C:2]1[N:3]([H:7])[C:4]([H:8])([H:9])[C:5]([H:10])=[C:6]1[H:11]>>[O:1]([C:2]1=[N:3][C:4]([H:8])([H:9])[C:5]([H:10])=[C:6]1[H:11])[H:7]"
O        1.99196756      -1.32757700       0.05683957
C        1.06138083      -0.46737060      -0.10941851
N       -0.09139242      -1.12397569      -0.17799230
C       -1.17257928      -0.17171852      -0.11310275
C       -0.47920069       1.14560013       0.09563431
C        0.83225111       0.94366390       0.22044795
H        0.84301744      -2.17320481      -0.10547265
H       -1.86304754      -0.39625604       0.70684399
H       -1.75715893      -0.17588597      -1.03949856
H       -1.00242682       2.09010273       0.15637133
H        1.63718875       1.65662186       0.30934762
11
Frame=13 idx=004397 GeodesicLength=0.40568160667924935 rxn_smarts="[O:1]=[C:2]1[N:3]([H:7])[C:4]([H:8])([H:9])[C:5]([H:10])=[C:6]1[H:11]>>[O:1]([C:2]1=[N:3][C:4]([H:8])([H:9])[C:5]([H:10])=[C:6]1[H:11])[H:7]"
O        1.99113640      -1.32536190       0.05587956
C        1.06273893      -0.46372079      -0.11719144
N       -0.09092832      -1.12313772      -0.18102201
C       -1.17152684      -0.17051449      -0.11334590
C       -0.48009620       1.14720611       0.09625386
C        0.83067579       0.94461767       0.22361650
H        0.84235752      -2.18411876      -0.09860393
H       -1.86114523      -0.39710096       0.70677680
H       -1.75673581      -0.17501239      -1.03938742
H       -1.00394626       2.09131348       0.15659989
H        1.63747002       1.65582975       0.31042409
11
Frame=14 idx=004397 GeodesicLength=0.4368621555325323 rxn_smarts="[O:1]=[C:2]1[N:3]([H:7])[C:4]([H:8])([H:9])[C:5]([H:10])=[C:6]1[H:11]>>[O:1]([C:2]1=[N:3][C:4]([H:8])([H:9])[C:5]([H:10])=[C:6]1[H:11])[H:7]"
O        1.99030138      -1.32314316       0.05444255
C        1.06410070      -0.46001005      -0.12496672
N       -0.09042420      -1.12227437      -0.18422888
C       -1.17045321      -0.16931324      -0.11366446
C       -0.48099613       1.14879797       0.09694685
C        0.82911496       0.94557293       0.22666750
H        0.84160822      -2.19506851      -0.09103569
H       -1.85922027      -0.39803789       0.70660698
H       -1.75628880      -0.17405564      -1.03935528
H       -1.00548202       2.09249975       0.15697031
H        1.63773937       1.65503221       0.31161684
11
Frame=15 idx=004397 GeodesicLength=0.4680587436766186 rxn_smarts="[O:1]=[C:2]1[N:3]([H:7])[C:4]([H:8])([H:9])[C:5]([H:10])=[C:6]1[H:11]>>[O:1]([C:2]1=[N:3][C:4]([H:8])([H:9])[C:5]([H:10])=[C:6]1[H:11])[H:7]"
O        1.98947230      -1.32091183       0.05237527
C        1.06545522      -0.45622648      -0.13280486
N       -0.08988507      -1.12138392      -0.18763661
C       -1.16935513      -0.16811580      -0.11407920
C       -0.48189337       1.15037356       0.09768722
C        0.82756993       0.94652001       0.22960355
H        0.84075483      -2.20602983      -0.08256227
H       -1.85726451      -0.39906809       0.70631029
H       -1.75581560      -0.17302000      -1.03941606
H       -1.00702713       2.09365065       0.15751852
H        1.63798852       1.65421173       0.31300414
11
Frame=16 idx=004397 GeodesicLength=0.4992568342076078 rxn_smarts="[O:1]=[C:2]1[N:3]([H:7])[C:4]([H:8])([H:9])[C:5]([H:10])=[C:6]1[H:11]>>[O:1]([C:2]1=[N:3][C:4]([H:8])([H:9])[C:5]([H:10])=[C:6]1[H:11])[H:7]"
O        1.98863971      -1.31868770       0.04974375
C        1.06681158      -0.45237181      -0.14071048
N       -0.08930757      -1.12047380      -0.19120354
C       -1.16823618      -0.16692346      -0.11457448
C       -0.48279247       1.15193542       0.09846738
C        0.82603721       0.94745940       0.23244098
H        0.83981441      -2.21697942      -0.07330207
H       -1.85528678      -0.40017539       0.70590900
H       -1.75531953      -0.17192270      -1.03956051
H       -1.00858867       2.09477400       0.15820790
H        1.63822829       1.65336546       0.31458207
