16
Frame=0 idx=011705 GeodesicLength=0.0 rxn_smarts="[C:1]1([H:8])([H:9])[C@@:2]2([H:10])[N:3]1[C:4]([H:11])([H:12])[C:5]21[C:6]([H:13])([H:14])[C:7]1([H:15])[H:16]>>[C:1]1([H:8])([H:9])[C@@:2]2([H:10])[N:3]1[C:4]([H:12])=[C:5]2[C:6](=[C:7]([H:15])[H:16])[H:13].[H:11][H:14]"
C        1.59615020       1.34702064      -0.04772671
C        0.44878364       0.97512936      -0.86488511
N        1.67306802       0.08579141      -0.84396998
C        0.82356497      -0.86743430      -0.19779382
C       -0.36623496      -0.09887870      -0.15242918
C       -1.45028944      -0.04530441       0.83661185
C       -1.78943800      -0.76392755      -0.37670095
H        1.52848202       1.24865948       1.03050523
H        2.28220058       2.09447442      -0.42487037
H        0.17651413       1.43798035      -1.80313474
H        0.47523276      -1.23279747       1.82244928
H        1.00932878      -1.92939833      -0.29773680
H       -1.94702581       0.91493311       0.96745350
H       -0.30060898      -0.95279375       1.88628285
H       -1.66989135      -1.84151204      -0.41984425
H       -2.48983651      -0.37194223      -1.11421081
16
Frame=1 idx=011705 GeodesicLength=0.12885962729573144 rxn_smarts="[C:1]1([H:8])([H:9])[C@@:2]2([H:10])[N:3]1[C:4]([H:11])([H:12])[C:5]21[C:6]([H:13])([H:14])[C:7]1([H:15])[H:16]>>[C:1]1([H:8])([H:9])[C@@:2]2([H:10])[N:3]1[C:4]([H:12])=[C:5]2[C:6](=[C:7]([H:15])[H:16])[H:13].[H:11][H:14]"
C        1.60385811       1.35302629      -0.05013232
C        0.45515839       0.97985749      -0.86724384
N        1.67921170       0.09235365      -0.84399882
C        0.83177206      -0.86271843      -0.19063678
C       -0.35947300      -0.09376597      -0.15671203
C       -1.45000029      -0.03028990       0.82533176
C       -1.79653801      -0.76914254      -0.37034636
H        1.53682714       1.25661196       1.02840230
H        2.28750356       2.10250756      -0.42799966
H        0.18134765       1.44884424      -1.80211194
H        0.47046877      -1.26909669       1.80888055
H        1.02218913      -1.92214026      -0.30977934
H       -1.94632460       0.93183038       0.94256359
H       -0.33021504      -0.97759042       1.90727884
H       -1.67596739      -1.84680819      -0.39048407
H       -2.50981819      -0.39347917      -1.10301187
16
Frame=2 idx=011705 GeodesicLength=0.25761368894995973 rxn_smarts="[C:1]1([H:8])([H:9])[C@@:2]2([H:10])[N:3]1[C:4]([H:11])([H:12])[C:5]21[C:6]([H:13])([H:14])[C:7]1([H:15])[H:16]>>[C:1]1([H:8])([H:9])[C@@:2]2([H:10])[N:3]1[C:4]([H:12])=[C:5]2[C:6](=[C:7]([H:15])[H:16])[H:13].[H:11][H:14]"
C        1.61165333       1.35911172      -0.05260517
C        0.46171963       0.98455484      -0.86975048
N        1.68555376       0.09891125      -0.84393983
C        0.84012200      -0.85796136      -0.18339679
C       -0.35254949      -0.08869464      -0.16120576
C       -1.44947514      -0.01578041       0.81378446
C       -1.80371339      -0.77437856      -0.36385161
H        1.54515120       1.26482280       1.02623229
H        2.29291897       2.11058060      -0.43120556
H        0.18643019       1.45962797      -1.80122753
H        0.46557579      -1.30555207       1.79441040
H        1.03527331      -1.91452505      -0.32136790
H       -1.94540238       0.94800377       0.91758033
H       -0.36103551      -1.00218501       1.92844271
H       -1.68196875      -1.85162011      -0.36128391
H       -2.53025351      -0.41491575      -1.09061565
16
Frame=3 idx=011705 GeodesicLength=0.3861683691606093 rxn_smarts="[C:1]1([H:8])([H:9])[C@@:2]2([H:10])[N:3]1[C:4]([H:11])([H:12])[C:5]21[C:6]([H:13])([H:14])[C:7]1([H:15])[H:16]>>[C:1]1([H:8])([H:9])[C@@:2]2([H:10])[N:3]1[C:4]([H:12])=[C:5]2[C:6](=[C:7]([H:15])[H:16])[H:13].[H:11][H:14]"
C        1.61953176       1.36526261      -0.05513272
C        0.46846307       0.98921510      -0.87239730
N        1.69209091       0.10545997      -0.84379613
C        0.84860569      -0.85317438      -0.17609519
C       -0.34546504      -0.08367993      -0.16590919
C       -1.44873808      -0.00178378       0.80195491
C       -1.81097727      -0.77962937      -0.35724468
H        1.55344601       1.27326939       1.02400586
H        2.29844156       2.11868418      -0.43446879
H        0.19175593       1.47033537      -1.80046928
H        0.46081829      -1.34204319       1.77901715
H        1.04857955      -1.90658169      -0.33249271
H       -1.94427241       0.96345910       0.89249707
H       -0.39322125      -1.02661326       1.94982175
H       -1.68791320      -1.85596073      -0.33227979
H       -2.55114551      -0.43621939      -1.07701096
16
Frame=4 idx=011705 GeodesicLength=0.5144214768828983 rxn_smarts="[C:1]1([H:8])([H:9])[C@@:2]2([H:10])[N:3]1[C:4]([H:11])([H:12])[C:5]21[C:6]([H:13])([H:14])[C:7]1([H:15])[H:16]>>[C:1]1([H:8])([H:9])[C@@:2]2([H:10])[N:3]1[C:4]([H:12])=[C:5]2[C:6](=[C:7]([H:15])[H:16])[H:13].[H:11][H:14]"
C        1.62749086       1.37146402      -0.05770329
C        0.47538370       0.99383471      -0.87517600
N        1.69881974       0.11199739      -0.84357654
C        0.85721601      -0.84836922      -0.16875819
C       -0.33821882      -0.07873581      -0.17081933
C       -1.44781285       0.01169549       0.78982703
C       -1.81834195      -0.78489040      -0.35055207
H        1.56170930       1.28192259       1.02173356
H        2.30406666       2.12680944      -0.43777068
H        0.19731554       1.48097552      -1.79982294
H        0.45648164      -1.37846988       1.76268827
H        1.06210848      -1.89834019      -0.34316191
H       -1.94295093       0.97820466       0.86730155
H       -0.42695928      -1.05089173       1.97147485
H       -1.69381500      -1.85984401      -0.30349748
H       -2.57249310      -0.45736257      -1.06218684
16
Frame=5 idx=011705 GeodesicLength=0.6422441699034671 rxn_smarts="[C:1]1([H:8])([H:9])[C@@:2]2([H:10])[N:3]1[C:4]([H:11])([H:12])[C:5]21[C:6]([H:13])([H:14])[C:7]1([H:15])[H:16]>>[C:1]1([H:8])([H:9])[C@@:2]2([H:10])[N:3]1[C:4]([H:12])=[C:5]2[C:6](=[C:7]([H:15])[H:16])[H:13].[H:11][H:14]"
C        1.63552968       1.37770153      -0.06030507
C        0.48247662       0.99841339      -0.87807648
N        1.70573656       0.11852477      -0.84329457
C        0.86594797      -0.84355736      -0.16141769
C       -0.33080785      -0.07387484      -0.17593145
C       -1.44672021       0.02465737       0.77738168
C       -1.82581640      -0.79016164      -0.34379570
H        1.56994470       1.29074706       1.01942542
H        2.30979009       2.13494978      -0.44109086
H        0.20309732       1.49156335      -1.79926925
H        0.45286223      -1.41477296       1.74541186
H        1.07586061      -1.88982838      -0.35340835
H       -1.94145418       0.99225101       0.84197049
H       -0.46247409      -1.07499671       1.99347313
H       -1.69968301      -1.86328611      -0.27494633
H       -2.59429004      -0.47833026      -1.04612683
16
Frame=6 idx=011705 GeodesicLength=0.7696571598398598 rxn_smarts="[C:1]1([H:8])([H:9])[C@@:2]2([H:10])[N:3]1[C:4]([H:11])([H:12])[C:5]21[C:6]([H:13])([H:14])[C:7]1([H:15])[H:16]>>[C:1]1([H:8])([H:9])[C@@:2]2([H:10])[N:3]1[C:4]([H:12])=[C:5]2[C:6](=[C:7]([H:15])[H:16])[H:13].[H:11][H:14]"
C        1.64365067       1.38395820      -0.06292510
C        0.48973556       1.00295418      -0.88108277
N        1.71283535       0.12504686      -0.84297209
C        0.87479763      -0.83875258      -0.15411801
C       -0.32322529      -0.06910953      -0.18123339
C       -1.44548243       0.03710756       0.76459607
C       -1.83340507      -0.79544883      -0.33699423
H        1.57816774       1.29969531       1.01709170
H        2.31560868       2.14309893      -0.44440564
H        0.20908336       1.50212188      -1.79877765
H        0.45032389      -1.45092773       1.72715785
H        1.08982980      -1.88107189      -0.36329835
H       -1.93980525       1.00561216       0.81646451
H       -0.50007914      -1.09885772       2.01593024
H       -1.70551919      -1.86630561      -0.24661404
H       -2.61651630      -0.49912120      -1.02881911
16
Frame=7 idx=011705 GeodesicLength=0.896780517490059 rxn_smarts="[C:1]1([H:8])([H:9])[C@@:2]2([H:10])[N:3]1[C:4]([H:11])([H:12])[C:5]21[C:6]([H:13])([H:14])[C:7]1([H:15])[H:16]>>[C:1]1([H:8])([H:9])[C@@:2]2([H:10])[N:3]1[C:4]([H:12])=[C:5]2[C:6](=[C:7]([H:15])[H:16])[H:13].[H:11][H:14]"
C        1.65186038       1.39021563      -0.06554773
C        0.49715310       1.00746491      -0.88417327
N        1.72011153       0.13157350      -0.84264084
C        0.88376782      -0.83397223      -0.14691750
C       -0.31545955      -0.06445226      -0.18670509
C       -1.44412148       0.04905828       0.75144237
C       -1.84110582      -0.80076646      -0.33015983
H        1.58640731       1.30870608       1.01474636
H        2.32151978       2.15125373      -0.44768607
H        0.21524818       1.51268522      -1.79830660
H        0.44929750      -1.48697746       1.70787586
H        1.10401055      -1.87209353      -0.37294635
H       -1.93803301       1.01830444       0.79072384
H       -0.54019781      -1.12232074       2.03900184
H       -1.71131499      -1.86892355      -0.21846094
H       -2.63914349      -0.51975556      -1.01024606
16
Frame=8 idx=011705 GeodesicLength=1.0238601622060295 rxn_smarts="[C:1]1([H:8])([H:9])[C@@:2]2([H:10])[N:3]1[C:4]([H:11])([H:12])[C:5]21[C:6]([H:13])([H:14])[C:7]1([H:15])[H:16]>>[C:1]1([H:8])([H:9])[C@@:2]2([H:10])[N:3]1[C:4]([H:12])=[C:5]2[C:6](=[C:7]([H:15])[H:16])[H:13].[H:11][H:14]"
C        1.66017070       1.39645437      -0.06815117
C        0.50472057       1.01196166      -0.88731688
N        1.72756324       0.13812377      -0.84234605
C        0.89287192      -0.82923918      -0.13989605
C       -0.30749080      -0.05991532      -0.19231455
C       -1.44265935       0.06053258       0.73788538
C       -1.84890374      -0.80614542      -0.32329073
H        1.59471077       1.31769706       1.01241081
H        2.32752034       2.15941767      -0.45089224
H        0.22155606       1.52330581      -1.79779704
H        0.45029068      -1.52309289       1.68745307
H        1.11839724      -1.86291009      -0.38254026
H       -1.93617834       1.03034731       0.76465419
H       -0.58340200      -1.14507777       2.06292393
H       -1.71704199      -1.87116676      -0.19039898
H       -2.66212531      -0.54029281      -0.99038343
16
Frame=9 idx=011705 GeodesicLength=1.152703873785312 rxn_smarts="[C:1]1([H:8])([H:9])[C@@:2]2([H:10])[N:3]1[C:4]([H:11])([H:12])[C:5]21[C:6]([H:13])([H:14])[C:7]1([H:15])[H:16]>>[C:1]1([H:8])([H:9])[C@@:2]2([H:10])[N:3]1[C:4]([H:12])=[C:5]2[C:6](=[C:7]([H:15])[H:16])[H:13].[H:11][H:14]"
C        1.66862218       1.40262422      -0.07069713
C        0.51241698       1.01647353      -0.89042184
N        1.73516951       0.14473678      -0.84218764
C        0.90213022      -0.82459951      -0.13322530
C       -0.29926769      -0.05552679      -0.19795354
C       -1.44115248       0.07158966       0.72386379
C       -1.85674556      -0.81165845      -0.31637223
H        1.60322111       1.32648756       1.01011284
H        2.33361600       2.16758499      -0.45395354
H        0.22792123       1.53409049      -1.79708280
H        0.45445753      -1.55961707       1.66553855
H        1.13293170      -1.85351788      -0.39248687
H       -1.93435145       1.04178068       0.73803789
H       -0.63101072      -1.16647772       2.08829817
H       -1.72262614      -1.87308098      -0.16220444
H       -2.68533242      -0.56088951      -0.96926591
16
Frame=10 idx=011705 GeodesicLength=1.2819912496434518 rxn_smarts="[C:1]1([H:8])([H:9])[C@@:2]2([H:10])[N:3]1[C:4]([H:11])([H:12])[C:5]21[C:6]([H:13])([H:14])[C:7]1([H:15])[H:16]>>[C:1]1([H:8])([H:9])[C@@:2]2([H:10])[N:3]1[C:4]([H:12])=[C:5]2[C:6](=[C:7]([H:15])[H:16])[H:13].[H:11][H:14]"
C        1.67723335       1.40872399      -0.07316013
C        0.52024493       1.02103393      -0.89346322
N        1.74295298       0.15145862      -0.84222662
C        0.91159775      -0.82007729      -0.12701285
C       -0.29075037      -0.05129480      -0.20360996
C       -1.43957604       0.08223212       0.70934792
C       -1.86458091      -0.81737879      -0.30935614
H        1.61199649       1.33498881       1.00788063
H        2.33980007       2.17579223      -0.45681319
H        0.23431186       1.54511414      -1.79610293
H        0.46206060      -1.59693733       1.64190661
H        1.14764213      -1.84390616      -0.40307599
H       -1.93256640       1.05258335       0.71077996
H       -0.68367919      -1.18595246       2.11540849
H       -1.72797335      -1.87470552      -0.13372439
H       -2.70871390      -0.58167484      -0.94677819
16
Frame=11 idx=011705 GeodesicLength=1.4115037141706852 rxn_smarts="[C:1]1([H:8])([H:9])[C@@:2]2([H:10])[N:3]1[C:4]([H:11])([H:12])[C:5]21[C:6]([H:13])([H:14])[C:7]1([H:15])[H:16]>>[C:1]1([H:8])([H:9])[C@@:2]2([H:10])[N:3]1[C:4]([H:12])=[C:5]2[C:6](=[C:7]([H:15])[H:16])[H:13].[H:11][H:14]"
C        1.68604521       1.41473240      -0.07549533
C        0.52820062       1.02569312      -0.89636871
N        1.75093019       0.15836181      -0.84257212
C        0.92134829      -0.81571739      -0.12145400
C       -0.28186903      -0.04724204      -0.20922302
C       -1.43791406       0.09247984       0.69429281
C       -1.87231547      -0.82343358      -0.30215976
H        1.62116791       1.34302686       1.00575470
H        2.34606974       2.18407959      -0.45937540
H        0.24065875       1.55650597      -1.79470868
H        0.47379155      -1.63563428       1.61606542
H        1.16253099      -1.83403779      -0.41480226
H       -1.93088288       1.06273185       0.68268941
H       -0.74269280      -1.20255802       2.14484528
H       -1.73293141      -1.87610470      -0.10466448
H       -2.73213759      -0.60288363      -0.92282386
16
Frame=12 idx=011705 GeodesicLength=1.5410235680893347 rxn_smarts="[C:1]1([H:8])([H:9])[C@@:2]2([H:10])[N:3]1[C:4]([H:11])([H:12])[C:5]21[C:6]([H:13])([H:14])[C:7]1([H:15])[H:16]>>[C:1]1([H:8])([H:9])[C@@:2]2([H:10])[N:3]1[C:4]([H:12])=[C:5]2[C:6](=[C:7]([H:15])[H:16])[H:13].[H:11][H:14]"
C        1.69511580       1.42062080      -0.07763946
C        0.53627950       1.03051998      -0.89903919
N        1.75912787       0.16554479      -0.84337414
C        0.93149255      -0.81158604      -0.11681785
C       -0.27252753      -0.04340026      -0.21471451
C       -1.43612851       0.10233873       0.67865194
C       -1.87980767      -0.83000666      -0.29465055
H        1.63091660       1.35036665       1.00379495
H        2.35242153       2.19250306      -0.46150546
H        0.24686659       1.56844335      -1.79269516
H        0.49053789      -1.67644080       1.58732258
H        1.17761202      -1.82385638      -0.42833601
H       -1.92936724       1.07216279       0.65353028
H       -0.80983625      -1.21500111       2.17733476
H       -1.73727925      -1.87735997      -0.07461093
H       -2.75542390      -0.62484895      -0.89725123
16
Frame=13 idx=011705 GeodesicLength=1.6703401455005809 rxn_smarts="[C:1]1([H:8])([H:9])[C@@:2]2([H:10])[N:3]1[C:4]([H:11])([H:12])[C:5]21[C:6]([H:13])([H:14])[C:7]1([H:15])[H:16]>>[C:1]1([H:8])([H:9])[C@@:2]2([H:10])[N:3]1[C:4]([H:12])=[C:5]2[C:6](=[C:7]([H:15])[H:16])[H:13].[H:11][H:14]"
C        1.70452718       1.42634791      -0.07950131
C        0.54447740       1.03561062      -0.90133497
N        1.76758850       0.17314640      -0.84484012
C        0.94219350      -0.80777843      -0.11348097
C       -0.26259244      -0.03981826      -0.21998488
C       -1.43414521       0.11178893       0.66238336
C       -1.88684716      -0.83737136      -0.28661686
H        1.64149216       1.35667901       1.00208806
H        2.35885185       2.20114061      -0.46300884
H        0.25280576       1.58117626      -1.78977175
H        0.51344221      -1.72030154       1.55469365
H        1.19291753      -1.81326897      -0.44459184
H       -1.92809353       1.08075135       0.62301007
H       -0.88759464      -1.22146248       2.21374500
H       -1.74069407      -1.87858561      -0.04296888
H       -2.77832904      -0.64805444      -0.86981972
16
Frame=14 idx=011705 GeodesicLength=1.7994300076250884 rxn_smarts="[C:1]1([H:8])([H:9])[C@@:2]2([H:10])[N:3]1[C:4]([H:11])([H:12])[C:5]21[C:6]([H:13])([H:14])[C:7]1([H:15])[H:16]>>[C:1]1([H:8])([H:9])[C@@:2]2([H:10])[N:3]1[C:4]([H:12])=[C:5]2[C:6](=[C:7]([H:15])[H:16])[H:13].[H:11][H:14]"
C        1.71440070       1.43184974      -0.08094623
C        0.55278917       1.04110178      -0.90304494
N        1.77637106       0.18136845      -0.84726925
C        0.95369065      -0.80443427      -0.11199224
C       -0.25186775      -0.03657317      -0.22489482
C       -1.43183271       0.12076806       0.64546550
C       -1.89310576      -0.84594913      -0.27770445
H        1.65325988       1.36148391       1.00075729
H        2.36535608       2.21010151      -0.46359697
H        0.25828800       1.59506558      -1.78549973
H        0.54404364      -1.76845307       1.51669724
H        1.20849458      -1.80212386      -0.46485870
H       -1.92715448       1.08826921       0.59075500
H       -0.97956985      -1.21929960       2.25512234
H       -1.74268488      -1.87994748      -0.00882696
H       -2.80047835      -0.67322766      -0.84016309
16
Frame=15 idx=011705 GeodesicLength=1.9285451060771537 rxn_smarts="[C:1]1([H:8])([H:9])[C@@:2]2([H:10])[N:3]1[C:4]([H:11])([H:12])[C:5]21[C:6]([H:13])([H:14])[C:7]1([H:15])[H:16]>>[C:1]1([H:8])([H:9])[C@@:2]2([H:10])[N:3]1[C:4]([H:12])=[C:5]2[C:6](=[C:7]([H:15])[H:16])[H:13].[H:11][H:14]"
C        1.72492550       1.43702110      -0.08177574
C        0.56120485       1.04718701      -0.90383914
N        1.78555855       0.19050840      -0.85110332
C        0.96634558      -0.80175866      -0.11316334
C       -0.24006063      -0.03379407      -0.22923379
C       -1.42895875       0.12913013       0.62793947
C       -1.89806814      -0.85640099      -0.26730687
H        1.66677837       1.36406483       0.99997481
H        2.37193442       2.21953465      -0.46284259
H        0.26302345       1.61063691      -1.77919714
H        0.58447939      -1.82247955       1.47112385
H        1.22442205      -1.79016633      -0.49096565
H       -1.92665572       1.09430952       0.55630410
H       -1.09112436      -1.20461428       2.30250471
H       -1.74249214      -1.88169377       0.02923870
H       -2.82131243      -0.70148490      -0.80765807
16
Frame=16 idx=011705 GeodesicLength=2.0580419114876434 rxn_smarts="[C:1]1([H:8])([H:9])[C@@:2]2([H:10])[N:3]1[C:4]([H:11])([H:12])[C:5]21[C:6]([H:13])([H:14])[C:7]1([H:15])[H:16]>>[C:1]1([H:8])([H:9])[C@@:2]2([H:10])[N:3]1[C:4]([H:12])=[C:5]2[C:6](=[C:7]([H:15])[H:16])[H:13].[H:11][H:14]"
C        1.73638942       1.44169461      -0.08173088
C        0.56970241       1.05411743      -0.90321780
N        1.79525161       0.20098279      -0.85697795
C        0.98068931      -0.80003691      -0.11813913
C       -0.22673865      -0.03168962      -0.23267779
C       -1.42510551       0.13654843       0.61003428
C       -1.90093364      -0.86972268      -0.25438307
H        1.68288663       1.36340610       0.99994298
H        2.37859167       2.22962656      -0.46017397
H        0.26656706       1.62859840      -1.76983776
H        0.63752796      -1.88412412       1.41483781
H        1.24081934      -1.77699412      -0.52534592
H       -1.92666209       1.09814353       0.51922948
H       -1.23003304      -1.17194577       2.35622186
H       -1.73895139      -1.88415982       0.07339722
H       -2.84000110      -0.73444480      -0.77117935
