13
Frame=0 idx=010380 GeodesicLength=0.0 rxn_smarts="[N:1]#[C:2][C@@:3]1([H:8])[C:4]([H:9])([H:10])[C@@:5]2([H:11])[C:6]([H:12])([H:13])[N:7]12>>[N:1]#[C:2][C@@:3]1([H:8])[C:4]([H:9])([H:10])[C:5][C:6]([H:12])([H:13])[N:7]1[H:11]"
N        2.50887013      -0.95267047       1.29544020
C        1.67874889      -0.26131841       0.91006739
C        0.62148931       0.59531145       0.37685108
C        0.27082419       0.46481513      -1.11268056
C       -1.21812372       0.21173832      -0.78878094
C       -1.18529420      -0.92801766       0.16315098
N       -0.73122754       0.23890584       0.92979925
H        0.84203771       1.62458615       0.65652377
H        0.74754214      -0.36930879      -1.62882994
H        0.45327308       1.37870738      -1.67197861
H       -1.42971849       0.99700646       0.29485336
H       -0.42671661      -1.69543988       0.04235978
H       -2.13170487      -1.30431546       0.53322422
13
Frame=1 idx=010380 GeodesicLength=0.05130401072789424 rxn_smarts="[N:1]#[C:2][C@@:3]1([H:8])[C:4]([H:9])([H:10])[C@@:5]2([H:11])[C:6]([H:12])([H:13])[N:7]12>>[N:1]#[C:2][C@@:3]1([H:8])[C:4]([H:9])([H:10])[C:5][C:6]([H:12])([H:13])[N:7]1[H:11]"
N        2.50594545      -0.96037563       1.29135362
C        1.67908217      -0.26302146       0.90977025
C        0.62253138       0.59615615       0.37860140
C        0.27378689       0.46298185      -1.11220634
C       -1.21154452       0.19983856      -0.79482377
C       -1.18319079      -0.92766097       0.16919871
N       -0.73075941       0.24440993       0.92885642
H        0.84755207       1.62479982       0.65716141
H        0.76108769      -0.36107970      -1.63414653
H        0.44055603       1.38301307      -1.66729936
H       -1.44320214       1.00244750       0.28905077
H       -0.42999998      -1.70080653       0.04733015
H       -2.13184484      -1.30070258       0.53715328
13
Frame=2 idx=010380 GeodesicLength=0.10260458898569091 rxn_smarts="[N:1]#[C:2][C@@:3]1([H:8])[C:4]([H:9])([H:10])[C@@:5]2([H:11])[C:6]([H:12])([H:13])[N:7]12>>[N:1]#[C:2][C@@:3]1([H:8])[C:4]([H:9])([H:10])[C:5][C:6]([H:12])([H:13])[N:7]1[H:11]"
N        2.50299262      -0.96808760       1.28726678
C        1.67944589      -0.26477779       0.90941894
C        0.62362516       0.59699107       0.38034229
C        0.27675542       0.46118827      -1.11173909
C       -1.20482119       0.18780506      -0.80075606
C       -1.18107174      -0.92725259       0.17526845
N       -0.73025181       0.24993939       0.92786921
H        0.85314384       1.62497355       0.65780633
H        0.77466328      -0.35246989      -1.63951537
H        0.42777345       1.38708746      -1.66256990
H       -1.45687630       1.00778882       0.28312729
H       -0.43338621      -1.70618461       0.05244717
H       -2.13199241      -1.29700114       0.54103395
13
Frame=3 idx=010380 GeodesicLength=0.1538956513639154 rxn_smarts="[N:1]#[C:2][C@@:3]1([H:8])[C:4]([H:9])([H:10])[C@@:5]2([H:11])[C:6]([H:12])([H:13])[N:7]12>>[N:1]#[C:2][C@@:3]1([H:8])[C:4]([H:9])([H:10])[C:5][C:6]([H:12])([H:13])[N:7]1[H:11]"
N        2.50004578      -0.97576977       1.28319312
C        1.67983968      -0.26659930       0.90900877
C        0.62477248       0.59780854       0.38207417
C        0.27972918       0.45942936      -1.11127860
C       -1.19795304       0.17564769      -0.80657363
C       -1.17894642      -0.92679006       0.18135113
N       -0.72970146       0.25548424       0.92683920
H        0.85881403       1.62509915       0.65846025
H        0.78824951      -0.34348149      -1.64493494
H        0.41493911       1.39092159      -1.65779263
H       -1.47074010       1.01303054       0.27709681
H       -0.43688925      -1.71157428       0.05770572
H       -2.13215953      -1.29320621       0.54485063
13
Frame=4 idx=010380 GeodesicLength=0.20517197916384866 rxn_smarts="[N:1]#[C:2][C@@:3]1([H:8])[C:4]([H:9])([H:10])[C@@:5]2([H:11])[C:6]([H:12])([H:13])[N:7]12>>[N:1]#[C:2][C@@:3]1([H:8])[C:4]([H:9])([H:10])[C:5][C:6]([H:12])([H:13])[N:7]1[H:11]"
N        2.49713993      -0.98338622       1.27914808
C        1.68026356      -0.26849728       0.90853474
C        0.62597520       0.59860137       0.38379725
C        0.28270780       0.45769997      -1.11082497
C       -1.19093980       0.16337704      -0.81227285
C       -1.17682455      -0.92627140       0.18743729
N       -0.72910511       0.26103433       0.92576855
H        0.86456347       1.62516939       0.65912473
H        0.80182594      -0.33411760      -1.65040340
H        0.40206733       1.39450688      -1.65297120
H       -1.48479239       1.01817402       0.27097483
H       -0.44052301      -1.71697678       0.06309878
H       -2.13235838      -1.28931371       0.54858817
13
Frame=5 idx=010380 GeodesicLength=0.2564221889433452 rxn_smarts="[N:1]#[C:2][C@@:3]1([H:8])[C:4]([H:9])([H:10])[C@@:5]2([H:11])[C:6]([H:12])([H:13])[N:7]12>>[N:1]#[C:2][C@@:3]1([H:8])[C:4]([H:9])([H:10])[C:5][C:6]([H:12])([H:13])[N:7]1[H:11]"
N        2.49430876      -0.99090172       1.27514707
C        1.68071604      -0.27048416       0.90799271
C        0.62723571       0.59935976       0.38551054
C        0.28569025       0.45599248      -1.11037916
C       -1.18378354       0.15100182      -0.81784875
C       -1.17471202      -0.92569372       0.19351715
N       -0.72845786       0.26657998       0.92465741
H        0.87039387       1.62517281       0.65980006
H        0.81537433      -0.32439138      -1.65591942
H        0.38916349       1.39784332      -1.64809915
H       -1.49903264       1.02322041       0.26477057
H       -0.44430182      -1.72238210       0.06862232
H       -2.13259458      -1.28531750       0.55222865
13
Frame=6 idx=010380 GeodesicLength=0.3076538426214519 rxn_smarts="[N:1]#[C:2][C@@:3]1([H:8])[C:4]([H:9])([H:10])[C@@:5]2([H:11])[C:6]([H:12])([H:13])[N:7]12>>[N:1]#[C:2][C@@:3]1([H:8])[C:4]([H:9])([H:10])[C:5][C:6]([H:12])([H:13])[N:7]1[H:11]"
N        2.49155537      -0.99832334       1.27118789
C        1.68119944      -0.27255750       0.90738224
C        0.62855505       0.60008657       0.38721432
C        0.28868018       0.45430679      -1.10994265
C       -1.17647786       0.13852175      -0.82330375
C       -1.17261256      -0.92505874       0.19958926
N       -0.72776064       0.27212091       0.92350687
H        0.87630476       1.62511512       0.66048545
H        0.82888934      -0.31429504      -1.66148084
H        0.37623524       1.40092879      -1.64318371
H       -1.51346716       1.02817037       0.25849154
H       -0.44822606      -1.72779646       0.07428307
H       -2.13287509      -1.28121922       0.55577031
13
Frame=7 idx=010380 GeodesicLength=0.3588632900577853 rxn_smarts="[N:1]#[C:2][C@@:3]1([H:8])[C:4]([H:9])([H:10])[C@@:5]2([H:11])[C:6]([H:12])([H:13])[N:7]12>>[N:1]#[C:2][C@@:3]1([H:8])[C:4]([H:9])([H:10])[C:5][C:6]([H:12])([H:13])[N:7]1[H:11]"
N        2.48887999      -1.00565517       1.26727081
C        1.68171626      -0.27471434       0.90670388
C        0.62993438       0.60078025       0.38891035
C        0.29167642       0.45264106      -1.10951122
C       -1.16901901       0.12593430      -0.82863889
C       -1.17052378      -0.92436256       0.20564978
N       -0.72700714       0.27765395       0.92231405
H        0.88229523       1.62499097       0.66118139
H        0.84235750      -0.30381088      -1.66707231
H        0.36327978       1.40375067      -1.63823469
H       -1.52809685       1.03302186       0.25213771
H       -0.45229706      -1.73322046       0.08008275
H       -2.13319571      -1.27700964       0.55920638
13
Frame=8 idx=010380 GeodesicLength=0.4100140356683351 rxn_smarts="[N:1]#[C:2][C@@:3]1([H:8])[C:4]([H:9])([H:10])[C@@:5]2([H:11])[C:6]([H:12])([H:13])[N:7]12>>[N:1]#[C:2][C@@:3]1([H:8])[C:4]([H:9])([H:10])[C:5][C:6]([H:12])([H:13])[N:7]1[H:11]"
N        2.48632262      -1.01286432       1.26339667
C        1.68226487      -0.27696213       0.90595529
C        0.63137579       0.60143778       0.39059570
C        0.29468284       0.45099085      -1.10909131
C       -1.16140169       0.11325695      -0.83384943
C       -1.16845813      -0.92360538       0.21168970
N       -0.72619954       0.28317556       0.92108225
H        0.88836684       1.62480147       0.66188567
H        0.85575993      -0.29298894      -1.67269534
H        0.35031613       1.40633079      -1.63323124
H       -1.54292826       1.03776521       0.24572211
H       -0.45652759      -1.73864460       0.08602382
H       -2.13357380      -1.27269324       0.56251612
13
Frame=9 idx=010380 GeodesicLength=0.4611648162852759 rxn_smarts="[N:1]#[C:2][C@@:3]1([H:8])[C:4]([H:9])([H:10])[C@@:5]2([H:11])[C:6]([H:12])([H:13])[N:7]12>>[N:1]#[C:2][C@@:3]1([H:8])[C:4]([H:9])([H:10])[C:5][C:6]([H:12])([H:13])[N:7]1[H:11]"
N        2.48384637      -1.01999069       1.25956550
C        1.68284568      -0.27929574       0.90513991
C        0.63287950       0.60205827       0.39227249
C        0.29770056       0.44935313      -1.10868014
C       -1.15362463       0.10046326      -0.83893936
C       -1.16640253      -0.92278618       0.21771247
N       -0.72533237       0.28868452       0.91980749
H        0.89451820       1.62454255       0.66259737
H        0.86911495      -0.28177177      -1.67835221
H        0.33731530       1.40864512      -1.62819082
H       -1.55796399       1.04242047       0.23923938
H       -0.46090762      -1.74406200       0.09211941
H       -2.13398942      -1.26826094       0.56570853
13
Frame=10 idx=010380 GeodesicLength=0.5122931539257749 rxn_smarts="[N:1]#[C:2][C@@:3]1([H:8])[C:4]([H:9])([H:10])[C@@:5]2([H:11])[C:6]([H:12])([H:13])[N:7]12>>[N:1]#[C:2][C@@:3]1([H:8])[C:4]([H:9])([H:10])[C:5][C:6]([H:12])([H:13])[N:7]1[H:11]"
N        2.48145986      -1.02703723       1.25577578
C        1.68346503      -0.28171186       0.90425453
C        0.63444903       0.60264631       0.39393917
C        0.30073370       0.44772964      -1.10828013
C       -1.14567912       0.08755899      -0.84390876
C       -1.16436254      -0.92190689       0.22371521
N       -0.72440638       0.29418410       0.91848931
H        0.90075264       1.62422211       0.66331498
H        0.88240638      -0.27017157      -1.68403563
H        0.32428958       1.41070497      -1.62311060
H       -1.57321484       1.04697682       0.23269220
H       -0.46544041      -1.74947931       0.09837609
H       -2.13445294      -1.26371608       0.56877785
13
Frame=11 idx=010380 GeodesicLength=0.5633848333922205 rxn_smarts="[N:1]#[C:2][C@@:3]1([H:8])[C:4]([H:9])([H:10])[C@@:5]2([H:11])[C:6]([H:12])([H:13])[N:7]12>>[N:1]#[C:2][C@@:3]1([H:8])[C:4]([H:9])([H:10])[C:5][C:6]([H:12])([H:13])[N:7]1[H:11]"
N        2.47916501      -1.03400485       1.25202856
C        1.68412310      -0.28421019       0.90329881
C        0.63608578       0.60320058       0.39559518
C        0.30378313       0.44611897      -1.10789241
C       -1.13755840       0.07454493      -0.84875718
C       -1.16233669      -0.92096551       0.22969412
N       -0.72341780       0.29967311       0.91712661
H        0.90707040       1.62383737       0.66403731
H        0.89562045      -0.25819187      -1.68973847
H        0.31123767       1.41251346      -1.61798872
H       -1.58868352       1.05142929       0.22608105
H       -0.47012795      -1.75489078       0.10479910
H       -2.13496116      -1.25905450       0.57171604
13
Frame=12 idx=010380 GeodesicLength=0.6144611299235545 rxn_smarts="[N:1]#[C:2][C@@:3]1([H:8])[C:4]([H:9])([H:10])[C@@:5]2([H:11])[C:6]([H:12])([H:13])[N:7]12>>[N:1]#[C:2][C@@:3]1([H:8])[C:4]([H:9])([H:10])[C:5][C:6]([H:12])([H:13])[N:7]1[H:11]"
N        2.47693713      -1.04093004       1.24829894
C        1.68482347      -0.28677956       0.90227787
C        0.63779100       0.60372715       0.39724319
C        0.30685472       0.44452307      -1.10751515
C       -1.12925003       0.06140419      -0.85348832
C       -1.16032023      -0.91996182       0.23565317
N       -0.72236693       0.30515807       0.91571463
H        0.91347327       1.62339454       0.66476470
H        0.90876692      -0.24580794      -1.69545464
H        0.29814761       1.41406181      -1.61282712
H       -1.60438349       1.05577798       0.21939693
H       -0.47496261      -1.76029471       0.11141220
H       -2.13551084      -1.25427274       0.57452358
13
Frame=13 idx=010380 GeodesicLength=0.6655298945806892 rxn_smarts="[N:1]#[C:2][C@@:3]1([H:8])[C:4]([H:9])([H:10])[C@@:5]2([H:11])[C:6]([H:12])([H:13])[N:7]12>>[N:1]#[C:2][C@@:3]1([H:8])[C:4]([H:9])([H:10])[C:5][C:6]([H:12])([H:13])[N:7]1[H:11]"
N        2.47475705      -1.04784073       1.24457050
C        1.68556428      -0.28941783       0.90119626
C        0.63956508       0.60422639       0.39888340
C        0.30995217       0.44294055      -1.10714950
C       -1.12074141       0.04811946      -0.85810362
C       -1.15830771      -0.91889356       0.24159596
N       -0.72125452       0.31064438       0.91424934
H        0.91996246       1.62289303       0.66549353
H        0.92185658      -0.23299893      -1.70118265
H        0.28500270       1.41535312      -1.60762222
H       -1.62032296       1.06002049       0.21262837
H       -0.47993929      -1.76568121       0.11823960
H       -2.13609444      -1.24936515       0.57720103
13
Frame=14 idx=010380 GeodesicLength=0.7165941846879045 rxn_smarts="[N:1]#[C:2][C@@:3]1([H:8])[C:4]([H:9])([H:10])[C@@:5]2([H:11])[C:6]([H:12])([H:13])[N:7]12>>[N:1]#[C:2][C@@:3]1([H:8])[C:4]([H:9])([H:10])[C:5][C:6]([H:12])([H:13])[N:7]1[H:11]"
N        2.47262131      -1.05474765       1.24084888
C        1.68635502      -0.29212151       0.90004999
C        0.64141353       0.60470204       0.40051419
C        0.31307935       0.44137316      -1.10679737
C       -1.11202603       0.03468872      -0.86260139
C       -1.15630063      -0.91776318       0.24752024
N       -0.72007797       0.31613349       0.91272994
H        0.92654309       1.62234003       0.66622181
H        0.93487865      -0.21976281      -1.70691845
H        0.27180354       1.41638900      -1.60237562
H       -1.63651429       1.06415427       0.20577926
H       -0.48505838      -1.77105376       0.12528626
H       -2.13671717      -1.24433181       0.57974226
13
Frame=15 idx=010380 GeodesicLength=0.767640190072475 rxn_smarts="[N:1]#[C:2][C@@:3]1([H:8])[C:4]([H:9])([H:10])[C@@:5]2([H:11])[C:6]([H:12])([H:13])[N:7]12>>[N:1]#[C:2][C@@:3]1([H:8])[C:4]([H:9])([H:10])[C:5][C:6]([H:12])([H:13])[N:7]1[H:11]"
N        2.47051504      -1.06165583       1.23714387
C        1.68719532      -0.29488900       0.89883588
C        0.64333804       0.60515192       0.40213387
C        0.31623521       0.43982069      -1.10646018
C       -1.10309293       0.02111125      -0.86697950
C       -1.15429264      -0.91656668       0.25342238
N       -0.71882871       0.32162204       0.91115518
H        0.93321488       1.62172927       0.66694689
H        0.94781425      -0.20609134      -1.71265963
H        0.25854509       1.41716321      -1.59708826
H       -1.65295752       1.06817187       0.19885329
H       -0.49031674      -1.77640201       0.13255698
H       -2.13736928      -1.23916540       0.58213922
13
Frame=16 idx=010380 GeodesicLength=0.8186875494302128 rxn_smarts="[N:1]#[C:2][C@@:3]1([H:8])[C:4]([H:9])([H:10])[C@@:5]2([H:11])[C:6]([H:12])([H:13])[N:7]12>>[N:1]#[C:2][C@@:3]1([H:8])[C:4]([H:9])([H:10])[C:5][C:6]([H:12])([H:13])[N:7]1[H:11]"
N        2.46842643      -1.06859720       1.23342400
C        1.68809027      -0.29771312       0.89756089
C        0.64534119       0.60558209       0.40374486
C        0.31942762       0.43828362      -1.10613721
C       -1.09392869       0.00736904      -0.87123906
C       -1.15228323      -0.91530531       0.25930548
N       -0.71751080       0.32711762       0.90952084
H        0.93997930       1.62107056       0.66767018
H        0.96067507      -0.19196834      -1.71839720
H        0.24521788       1.41767424      -1.59175854
H       -1.66966981       1.07207357       0.19183913
H       -0.49571110      -1.78172511       0.14007686
H       -2.13805414      -1.23386167       0.58438977
