15
Frame=0 idx=009593 GeodesicLength=0.0 rxn_smarts="[O:1]([C@@:2]1([H:9])[C:3]([H:10])([H:11])[C@@:4]2([O:5][H:12])[C:6]([H:13])([H:14])[C@@:7]12[H:15])[H:8]>>[O:1]([C@@:2]1([H:9])[C:3]([H:10])([H:11])[C:4](=[O:5])[C:6]([H:13])([H:14])[C:7]1([H:12])[H:15])[H:8]"
O        2.08671040       0.21539494      -0.42890392
C        0.97622270       0.29686392       0.44141051
C       -0.05857692       1.31845378      -0.07955878
C       -1.16195886       0.27133366      -0.13615027
O       -2.28605728       0.32744666       0.56013169
C       -0.71062823      -0.88746439      -0.92433804
C        0.00985136      -0.87606621       0.43843107
H        2.65709293      -0.49692205      -0.13323672
H        1.30241382       0.54518924       1.45611065
H       -0.28863358       2.10873019       0.63006857
H        0.19581124       1.73682468      -1.05257359
H       -1.30260734      -0.33978326       1.08061398
H       -1.45362982      -1.67152721      -1.01289215
H       -0.09954478      -0.73377502      -1.80887425
H        0.13353430      -1.81469887       0.96976129
15
Frame=1 idx=009593 GeodesicLength=0.08487573727782256 rxn_smarts="[O:1]([C@@:2]1([H:9])[C:3]([H:10])([H:11])[C@@:4]2([O:5][H:12])[C:6]([H:13])([H:14])[C@@:7]12[H:15])[H:8]>>[O:1]([C@@:2]1([H:9])[C:3]([H:10])([H:11])[C:4](=[O:5])[C:6]([H:13])([H:14])[C:7]1([H:12])[H:15])[H:8]"
O        2.08338020       0.21352115      -0.43313007
C        0.97658914       0.29796376       0.44156160
C       -0.05621137       1.32099571      -0.07826738
C       -1.16272917       0.27803951      -0.14315195
O       -2.28993808       0.34243824       0.54358276
C       -0.70870960      -0.88984748      -0.91989304
C        0.00851900      -0.87474278       0.44260962
H        2.65417088      -0.49889415      -0.13859085
H        1.30755160       0.54712850       1.45451456
H       -0.28517519       2.10775330       0.63604213
H        0.19810202       1.74749704      -1.04774096
H       -1.32383572      -0.36012573       1.08950251
H       -1.45016825      -1.67569688      -1.00680330
H       -0.10095675      -0.74152036      -1.80749254
H        0.14941127      -1.81450984       0.96725692
15
Frame=2 idx=009593 GeodesicLength=0.16962310760564514 rxn_smarts="[O:1]([C@@:2]1([H:9])[C:3]([H:10])([H:11])[C@@:4]2([O:5][H:12])[C:6]([H:13])([H:14])[C@@:7]12[H:15])[H:8]>>[O:1]([C@@:2]1([H:9])[C:3]([H:10])([H:11])[C:4](=[O:5])[C:6]([H:13])([H:14])[C:7]1([H:12])[H:15])[H:8]"
O        2.08003157       0.21160642      -0.43731917
C        0.97693730       0.29913357       0.44168914
C       -0.05377178       1.32364490      -0.07711186
C       -1.16344531       0.28496535      -0.15049991
O       -2.29310663       0.35716285       0.52767458
C       -0.70682227      -0.89213739      -0.91539032
C        0.00704221      -0.87326266       0.44691923
H        2.65115454      -0.50095295      -0.14387631
H        1.31265111       0.54919982       1.45286164
H       -0.28174185       2.10683346       0.64185649
H        0.20061613       1.75829776      -1.04291437
H       -1.34565866      -0.38141362       1.09809455
H       -1.44681571      -1.67969247      -1.00065295
H       -0.10232188      -0.74944755      -1.80599291
H        0.16525124      -1.81393748       0.96466217
15
Frame=3 idx=009593 GeodesicLength=0.2543099698116579 rxn_smarts="[O:1]([C@@:2]1([H:9])[C:3]([H:10])([H:11])[C@@:4]2([O:5][H:12])[C:6]([H:13])([H:14])[C@@:7]12[H:15])[H:8]>>[O:1]([C@@:2]1([H:9])[C:3]([H:10])([H:11])[C:4](=[O:5])[C:6]([H:13])([H:14])[C:7]1([H:12])[H:15])[H:8]"
O        2.07666574       0.20964725      -0.44146948
C        0.97726486       0.30037959       0.44178887
C       -0.05125267       1.32641051      -0.07610527
C       -1.16410179       0.29212845      -0.15822528
O       -2.29554359       0.37158738       0.51246532
C       -0.70496652      -0.89432359      -0.91083283
C        0.00541046      -0.87161213       0.45136060
H        2.64803691      -0.50310742      -0.14908817
H        1.31770836       0.55141174       1.45114747
H       -0.27832975       2.10598293       0.64749459
H        0.20336833       1.76923322      -1.03810349
H       -1.36806319      -0.40372293       1.10639574
H       -1.44356978      -1.68350585      -0.99445162
H       -0.10363542      -0.75755651      -1.80437261
H        0.18100805      -1.81295261       0.96199616
15
Frame=4 idx=009593 GeodesicLength=0.3389707229267918 rxn_smarts="[O:1]([C@@:2]1([H:9])[C:3]([H:10])([H:11])[C@@:4]2([O:5][H:12])[C:6]([H:13])([H:14])[C@@:7]12[H:15])[H:8]>>[O:1]([C@@:2]1([H:9])[C:3]([H:10])([H:11])[C:4](=[O:5])[C:6]([H:13])([H:14])[C:7]1([H:12])[H:15])[H:8]"
O        2.07328526       0.20764007      -0.44557923
C        0.97757070       0.30170826       0.44185649
C       -0.04864799       1.32930143      -0.07526158
C       -1.16469287       0.29954533      -0.16635637
O       -2.29723273       0.38567689       0.49802020
C       -0.70314281      -0.89639411      -0.90622404
C        0.00361464      -0.86977744       0.45593290
H        2.64481237      -0.50536602      -0.15422050
H        1.32271994       0.55377261       1.44936809
H       -0.27493350       2.10521536       0.65293740
H        0.20637283       1.78030870      -1.03332006
H       -1.39103740      -0.42712880       1.11440480
H       -1.44042667      -1.68712876      -0.98821083
H       -0.10489314      -0.76584488      -1.80262969
H        0.19663138      -1.81152864       0.95928241
15
Frame=5 idx=009593 GeodesicLength=0.42366642687070855 rxn_smarts="[O:1]([C@@:2]1([H:9])[C:3]([H:10])([H:11])[C@@:4]2([O:5][H:12])[C:6]([H:13])([H:14])[C@@:7]12[H:15])[H:8]>>[O:1]([C@@:2]1([H:9])[C:3]([H:10])([H:11])[C:4](=[O:5])[C:6]([H:13])([H:14])[C:7]1([H:12])[H:15])[H:8]"
O        2.06989153       0.20558023      -0.44964461
C        0.97785151       0.30312669       0.44188785
C       -0.04595171       1.33232792      -0.07459682
C       -1.16521279       0.30723597      -0.17492686
O       -2.29815580       0.39939801       0.48440325
C       -0.70135338      -0.89833545      -0.90156764
C        0.00164198      -0.86774250       0.46063525
H        2.64147300      -0.50773880      -0.15926421
H        1.32767885       0.55629207       1.44751970
H       -0.27154759       2.10454646       0.65816288
H        0.20964626       1.79153010      -1.02857680
H       -1.41456024      -0.45171730       1.12212964
H       -1.43738546      -1.69055049      -0.98194242
H       -0.10609085      -0.77431122      -1.80076099
H        0.21207469      -1.80964170       0.95654179
15
Frame=6 idx=009593 GeodesicLength=0.5083968178950717 rxn_smarts="[O:1]([C@@:2]1([H:9])[C:3]([H:10])([H:11])[C@@:4]2([O:5][H:12])[C:6]([H:13])([H:14])[C@@:7]12[H:15])[H:8]>>[O:1]([C@@:2]1([H:9])[C:3]([H:10])([H:11])[C:4](=[O:5])[C:6]([H:13])([H:14])[C:7]1([H:12])[H:15])[H:8]"
O        2.06648750       0.20346327      -0.45366340
C        0.97810627       0.30464231       0.44187890
C       -0.04315648       1.33549956      -0.07412657
C       -1.16565545       0.31521863      -0.18396235
O       -2.29829384       0.41271149       0.47168409
C       -0.69960097      -0.90013220      -0.89686592
C       -0.00051635      -0.86549232       0.46546642
H        2.63801315      -0.51023486      -0.16421100
H        1.33258146       0.55897970       1.44559877
H       -0.26816309       2.10399344       0.66314841
H        0.21320342       1.80290101      -1.02388823
H       -1.43861850      -0.47757285       1.12955966
H       -1.43444237      -1.69376136      -0.97565805
H       -0.10722790      -0.78295002      -1.79876299
H        0.22728316      -1.80726580       0.95380227
15
Frame=7 idx=009593 GeodesicLength=0.5931990391797304 rxn_smarts="[O:1]([C@@:2]1([H:9])[C:3]([H:10])([H:11])[C@@:4]2([O:5][H:12])[C:6]([H:13])([H:14])[C@@:7]12[H:15])[H:8]>>[O:1]([C@@:2]1([H:9])[C:3]([H:10])([H:11])[C:4](=[O:5])[C:6]([H:13])([H:14])[C:7]1([H:12])[H:15])[H:8]"
O        2.06307502       0.20128344      -0.45763169
C        0.97833198       0.30626309       0.44182528
C       -0.04025506       1.33882728      -0.07386844
C       -1.16601467       0.32351505      -0.19349412
O       -2.29762576       0.42557730       0.45992817
C       -0.69788993      -0.90176701      -0.89212235
C       -0.00287255      -0.86300935       0.47042405
H        2.63442468      -0.51286507      -0.16904990
H        1.33742088       0.56184568       1.44360126
H       -0.26477180       2.10357565       0.66786884
H        0.21706179       1.81442611      -1.01927018
H       -1.46318975      -0.50478841       1.13669975
H       -1.43159579      -1.69674862      -0.96937059
H       -0.10830340      -0.79175522      -1.79663230
H        0.24220436      -1.80437994       0.95109222
15
Frame=8 idx=009593 GeodesicLength=0.6780601535345597 rxn_smarts="[O:1]([C@@:2]1([H:9])[C:3]([H:10])([H:11])[C@@:4]2([O:5][H:12])[C:6]([H:13])([H:14])[C@@:7]12[H:15])[H:8]>>[O:1]([C@@:2]1([H:9])[C:3]([H:10])([H:11])[C:4](=[O:5])[C:6]([H:13])([H:14])[C:7]1([H:12])[H:15])[H:8]"
O        2.05965680       0.19903374      -0.46154456
C        0.97852642       0.30799831       0.44172290
C       -0.03723815       1.34232299      -0.07384294
C       -1.16628471       0.33214992      -0.20355100
O       -2.29611677       0.43794360       0.44921980
C       -0.69622606      -0.90321857      -0.88733764
C       -0.00543965      -0.86027455       0.47550735
H        2.63069945      -0.51564179      -0.17376826
H        1.34219003       0.56490355       1.44152390
H       -0.26136118       2.10331683       0.67229364
H        0.22124012       1.82610797      -1.01474254
H       -1.48826626      -0.53346704       1.14353235
H       -1.42884425      -1.69949727      -0.96309286
H       -0.10931870      -0.80071841      -1.79436189
H        0.25678293      -1.80095926       0.94844175
15
Frame=9 idx=009593 GeodesicLength=0.7628840449859353 rxn_smarts="[O:1]([C@@:2]1([H:9])[C:3]([H:10])([H:11])[C@@:4]2([O:5][H:12])[C:6]([H:13])([H:14])[C@@:7]12[H:15])[H:8]>>[O:1]([C@@:2]1([H:9])[C:3]([H:10])([H:11])[C:4](=[O:5])[C:6]([H:13])([H:14])[C:7]1([H:12])[H:15])[H:8]"
O        2.05623566       0.19670304      -0.46539599
C        0.97868713       0.30986009       0.44156745
C       -0.03409351       1.34600116      -0.07407648
C       -1.16646609       0.34115825      -0.21415817
O       -2.29369448       0.44970997       0.43968466
C       -0.69461646      -0.90445533      -0.88251130
C       -0.00823429      -0.85726314       0.48071841
H        2.62682581      -0.51858258      -0.17834800
H        1.34687977       0.56817265       1.43936194
H       -0.25790742       2.10325152       0.67638076
H        0.22575951       1.83794566      -1.01033561
H       -1.51386356      -0.56371887       1.15000842
H       -1.42618033      -1.70198787      -0.95684376
H       -0.11027740      -0.80982210      -1.79194392
H        0.27094566      -1.79697244       0.94589159
15
Frame=10 idx=009593 GeodesicLength=0.8477581549242564 rxn_smarts="[O:1]([C@@:2]1([H:9])[C:3]([H:10])([H:11])[C@@:4]2([O:5][H:12])[C:6]([H:13])([H:14])[C@@:7]12[H:15])[H:8]>>[O:1]([C@@:2]1([H:9])[C:3]([H:10])([H:11])[C:4](=[O:5])[C:6]([H:13])([H:14])[C:7]1([H:12])[H:15])[H:8]"
O        2.05281038       0.19428938      -0.46918423
C        0.97881143       0.31185182       0.44135696
C       -0.03081921       1.34986586      -0.07457660
C       -1.16655217       0.35054729      -0.22532620
O       -2.29037455       0.46088985       0.43130056
C       -0.69307040      -0.90546371      -0.87764191
C       -0.01126154      -0.85396557       0.48605344
H        2.62279772      -0.52169235      -0.18278508
H        1.35148887       0.57165461       1.43711426
H       -0.25440809       2.10338981       0.68011836
H        0.23062609       1.84993991      -1.00605444
H       -1.53991653      -0.59561398       1.15615595
H       -1.42360590      -1.70421433      -0.95062464
H       -0.11119045      -0.81905575      -1.78937173
H        0.28466434      -1.79242285       0.94346529
15
Frame=11 idx=009593 GeodesicLength=0.9326897970767882 rxn_smarts="[O:1]([C@@:2]1([H:9])[C:3]([H:10])([H:11])[C@@:4]2([O:5][H:12])[C:6]([H:13])([H:14])[C@@:7]12[H:15])[H:8]>>[O:1]([C@@:2]1([H:9])[C:3]([H:10])([H:11])[C:4](=[O:5])[C:6]([H:13])([H:14])[C:7]1([H:12])[H:15])[H:8]"
O        2.04938020       0.19178500      -0.47290385
C        0.97889567       0.31398088       0.44108968
C       -0.02740855       1.35392567      -0.07536042
C       -1.16654155       0.36033879      -0.23706804
O       -2.28612862       0.47144497       0.42410037
C       -0.69159933      -0.90621895      -0.87272699
C       -0.01453303      -0.85036437       0.49151290
H        2.61860560      -0.52498243      -0.18706529
H        1.35601064       0.57535973       1.43477907
H       -0.25084917       2.10375524       0.68347860
H        0.23585225       1.86208836      -1.00191735
H       -1.56638832      -0.62924448       1.16197053
H       -1.42112049      -1.70616254      -0.94444230
H       -0.11207087      -0.82840222      -1.78663621
H        0.29789556      -1.78730365       0.94118929
15
Frame=12 idx=009593 GeodesicLength=1.017645714780373 rxn_smarts="[O:1]([C@@:2]1([H:9])[C:3]([H:10])([H:11])[C@@:4]2([O:5][H:12])[C:6]([H:13])([H:14])[C@@:7]12[H:15])[H:8]>>[O:1]([C@@:2]1([H:9])[C:3]([H:10])([H:11])[C:4](=[O:5])[C:6]([H:13])([H:14])[C:7]1([H:12])[H:15])[H:8]"
O        2.04594368       0.18918279      -0.47655079
C        0.97893711       0.31625275       0.44076494
C       -0.02385659       1.35818625      -0.07644069
C       -1.16643404       0.37054888      -0.24938391
O       -2.28093510       0.48134128       0.41809856
C       -0.69021571      -0.90669696      -0.86776075
C       -0.01805709      -0.84644678       0.49709735
H        2.61423973      -0.52846273      -0.19117920
H        1.36044151       0.57929505       1.43235581
H       -0.24721729       2.10436856       0.68643848
H        0.24144558       1.87438533      -0.99794083
H       -1.59323288      -0.66468211       1.16743594
H       -1.41872260      -1.70782157      -0.93830098
H       -0.11293478      -0.83783979      -1.78372703
H        0.31059847      -1.78161095       0.93909310
15
Frame=13 idx=009593 GeodesicLength=1.1025822323731074 rxn_smarts="[O:1]([C@@:2]1([H:9])[C:3]([H:10])([H:11])[C@@:4]2([O:5][H:12])[C:6]([H:13])([H:14])[C@@:7]12[H:15])[H:8]>>[O:1]([C@@:2]1([H:9])[C:3]([H:10])([H:11])[C:4](=[O:5])[C:6]([H:13])([H:14])[C:7]1([H:12])[H:15])[H:8]"
O        2.04249907       0.18647678      -0.48012292
C        0.97893447       0.31867152       0.44038171
C       -0.02015854       1.36265109      -0.07782797
C       -1.16623161       0.38119148      -0.26226590
O       -2.27476935       0.49053784       0.41329657
C       -0.68893178      -0.90687311      -0.86273761
C       -0.02183753      -0.84220268       0.50280625
H        2.60969277      -0.53214152      -0.19511879
H        1.36478085       0.58346564       1.42984265
H       -0.24349792       2.10524838       0.68897810
H        0.24740965       1.88682341      -0.99413954
H       -1.62041587      -0.70197635       1.17253838
H       -1.41640702      -1.70918245      -0.93220298
H       -0.11380192      -0.84734241      -1.78063479
H        0.32273474      -1.77534763       0.93720684
15
Frame=14 idx=009593 GeodesicLength=1.1874840270997635 rxn_smarts="[O:1]([C@@:2]1([H:9])[C:3]([H:10])([H:11])[C@@:4]2([O:5][H:12])[C:6]([H:13])([H:14])[C@@:7]12[H:15])[H:8]>>[O:1]([C@@:2]1([H:9])[C:3]([H:10])([H:11])[C:4](=[O:5])[C:6]([H:13])([H:14])[C:7]1([H:12])[H:15])[H:8]"
O        2.03904268       0.18366095      -0.48361795
C        0.97888634       0.32123969       0.43994141
C       -0.01631119       1.36732199      -0.07952773
C       -1.16593474       0.39227542      -0.27569708
O       -2.26763083       0.49902268       0.40965216
C       -0.68776356      -0.90672566      -0.85764696
C       -0.02587705      -0.83762486       0.50864113
H        2.60495671      -0.53602533      -0.19887811
H        1.36903002       0.58787385       1.42724011
H       -0.23967990       2.10640966       0.69108446
H        0.25374529       1.89939373      -0.99052345
H       -1.64786819      -0.74117835       1.17726593
H       -1.41417523      -1.71023766      -0.92614197
H       -0.11469866      -0.85688380      -1.77734601
H        0.33427831      -1.76852232       0.93555405
15
Frame=15 idx=009593 GeodesicLength=1.2723094391263186 rxn_smarts="[O:1]([C@@:2]1([H:9])[C:3]([H:10])([H:11])[C@@:4]2([O:5][H:12])[C:6]([H:13])([H:14])[C@@:7]12[H:15])[H:8]>>[O:1]([C@@:2]1([H:9])[C:3]([H:10])([H:11])[C:4](=[O:5])[C:6]([H:13])([H:14])[C:7]1([H:12])[H:15])[H:8]"
O        2.03557007       0.18073103      -0.48703614
C        0.97879301       0.32395692       0.43944579
C       -0.01231321       1.37219676      -0.08154011
C       -1.16554620       0.40380379      -0.28964837
O       -2.25952411       0.50678300       0.40709914
C       -0.68672647      -0.90623501      -0.85247739
C       -0.03017233      -0.83271182       0.51460264
H        2.60002600      -0.54011771      -0.20245556
H        1.37319412       0.59251734       1.42454872
H       -0.23575316       2.10786175       0.69275203
H        0.26044708       1.91208468      -0.98709849
H       -1.67552430      -0.78230339       1.18160755
H       -1.41202537      -1.71098350      -0.92010817
H       -0.11565415      -0.86643368      -1.77384877
H        0.34520902      -1.76115017       0.93415712
15
Frame=16 idx=009593 GeodesicLength=1.3570351445473061 rxn_smarts="[O:1]([C@@:2]1([H:9])[C:3]([H:10])([H:11])[C@@:4]2([O:5][H:12])[C:6]([H:13])([H:14])[C@@:7]12[H:15])[H:8]>>[O:1]([C@@:2]1([H:9])[C:3]([H:10])([H:11])[C:4](=[O:5])[C:6]([H:13])([H:14])[C:7]1([H:12])[H:15])[H:8]"
O        2.03207616       0.17768398      -0.49037939
C        0.97865613       0.32682151       0.43889777
C       -0.00816392       1.37727153      -0.08386030
C       -1.16506813       0.41577483      -0.30408274
O       -2.25047013       0.51382397       0.40553830
C       -0.68583705      -0.90538446      -0.84721525
C       -0.03471601      -0.82746539       0.52069164
H        2.59489658      -0.54441973      -0.20585292
H        1.37728193       0.59739068       1.42176962
H       -0.23170926       2.10960993       0.69398232
H        0.26750660       1.92488446      -0.98386580
H       -1.70330728      -0.82535999       1.18555623
H       -1.40995816      -1.71141860      -0.91408435
H       -0.11670163      -0.87596178      -1.77012970
H        0.35551416      -1.75325093       0.93303458
