17
Frame=0 idx=011420 GeodesicLength=0.0 rxn_smarts="[C:1]1([H:8])([H:9])[C:2]([H:10])([H:11])[C:3]1([C@@:4]1([H:13])[C:5]([H:14])([H:15])[C:6]([H:16])([H:17])[O:7]1)[H:12]>>[C:1]1([H:8])([H:9])[C:2]([H:10])([H:11])[C:3]1([O:7][C:6]([C:5]([C:4][H:13])([H:14])[H:15])([H:16])[H:17])[H:12]"
C       -1.78568212      -0.17426477       1.20055467
C       -1.60360409       1.16561155       0.51730581
C       -0.88754150      -0.09413577       0.04886645
C        0.70465634      -1.26751332       0.02957166
C        1.60163860      -0.81931562      -1.13121777
C        1.51606013       0.60854799      -0.59729599
O        0.71435916       0.24595874       0.55507104
H       -1.31035911      -0.27151503       2.16801343
H       -2.70969429      -0.73002880       1.10072417
H       -2.40035783       1.52867049      -0.12109261
H       -1.06673136       1.92622199       1.06704354
H       -1.20635361      -0.46287461      -0.91542851
H        1.21301524      -1.85105586       0.80095094
H        2.61538249      -1.22393550      -1.14353377
H        1.16462371      -0.96229587      -2.12365360
H        2.45054087       1.04310217      -0.23977457
H        0.99004737       1.33882216      -1.21610488
17
Frame=1 idx=011420 GeodesicLength=0.028928723414174098 rxn_smarts="[C:1]1([H:8])([H:9])[C:2]([H:10])([H:11])[C:3]1([C@@:4]1([H:13])[C:5]([H:14])([H:15])[C:6]([H:16])([H:17])[O:7]1)[H:12]>>[C:1]1([H:8])([H:9])[C:2]([H:10])([H:11])[C:3]1([O:7][C:6]([C:5]([C:4][H:13])([H:14])[H:15])([H:16])[H:17])[H:12]"
C       -1.78433639      -0.17022512       1.20886100
C       -1.60648114       1.16164749       0.51050940
C       -0.89242794      -0.10011491       0.04951682
C        0.70003521      -1.26699384       0.01624003
C        1.60774586      -0.81449598      -1.13396140
C        1.52156404       0.60965794      -0.59182226
O        0.71616346       0.23995395       0.55524580
H       -1.30266279      -0.25977935       2.17387713
H       -2.71017155      -0.72453276       1.11929295
H       -2.40866714       1.52025415      -0.12341079
H       -1.06509802       1.92776693       1.04805892
H       -1.22302494      -0.47548585      -0.90891717
H        1.19624872      -1.86122818       0.78730862
H        2.62031509      -1.22224218      -1.13894775
H        1.17813316      -0.94898718      -2.13051123
H        2.45463389       1.04380554      -0.22995618
H        0.99803049       1.34099935      -1.21138389
17
Frame=2 idx=011420 GeodesicLength=0.05788919582951413 rxn_smarts="[C:1]1([H:8])([H:9])[C:2]([H:10])([H:11])[C:3]1([C@@:4]1([H:13])[C:5]([H:14])([H:15])[C:6]([H:16])([H:17])[O:7]1)[H:12]>>[C:1]1([H:8])([H:9])[C:2]([H:10])([H:11])[C:3]1([O:7][C:6]([C:5]([C:4][H:13])([H:14])[H:15])([H:16])[H:17])[H:12]"
C       -1.78289773      -0.16604668       1.21716128
C       -1.60941498       1.15755952       0.50360886
C       -0.89738202      -0.10621848       0.05018075
C        0.69541102      -1.26632750       0.00273978
C        1.61386587      -0.80959980      -1.13668219
C        1.52711212       0.61074837      -0.58621144
O        0.71795087       0.23386722       0.55541386
H       -1.29485237      -0.24776986       2.17962505
H       -2.71051680      -0.71878863       1.13803726
H       -2.41702720       1.51170230      -0.12573745
H       -1.06353433       1.92911391       1.02871305
H       -1.23988619      -0.48848522      -0.90201923
H        1.17937699      -1.87134154       0.77315761
H        2.62514016      -1.22061105      -1.13437572
H        1.19175080      -0.93544943      -2.13726150
H        2.45876070       1.04437618      -0.21989809
H        1.00614308       1.34327068      -1.20645187
17
Frame=3 idx=011420 GeodesicLength=0.08685162663320153 rxn_smarts="[C:1]1([H:8])([H:9])[C:2]([H:10])([H:11])[C:3]1([C@@:4]1([H:13])[C:5]([H:14])([H:15])[C:6]([H:16])([H:17])[O:7]1)[H:12]>>[C:1]1([H:8])([H:9])[C:2]([H:10])([H:11])[C:3]1([O:7][C:6]([C:5]([C:4][H:13])([H:14])[H:15])([H:16])[H:17])[H:12]"
C       -1.78138063      -0.16174868       1.22542722
C       -1.61240351       1.15335171       0.49664002
C       -0.90239784      -0.11242444       0.05085475
C        0.69078956      -1.26548736      -0.01088943
C        1.61999015      -0.80464406      -1.13936715
C        1.53270407       0.61181770      -0.58049504
O        0.71972805       0.22773886       0.55556096
H       -1.28694671      -0.23556848       2.18522197
H       -2.71073955      -0.71280838       1.15687518
H       -2.42541826       1.50305556      -0.12803691
H       -1.06204960       1.93023269       1.00909175
H       -1.25691038      -0.50182994      -0.89473742
H        1.16243068      -1.88131998       0.75855390
H        2.62984470      -1.21906792      -1.12981016
H        1.20544798      -0.92173975      -2.14387409
H        2.46292661       1.04482172      -0.20966033
H        1.01438468       1.34562075      -1.20135523
17
Frame=4 idx=011420 GeodesicLength=0.11584536988611868 rxn_smarts="[C:1]1([H:8])([H:9])[C:2]([H:10])([H:11])[C:3]1([C@@:4]1([H:13])[C:5]([H:14])([H:15])[C:6]([H:16])([H:17])[O:7]1)[H:12]>>[C:1]1([H:8])([H:9])[C:2]([H:10])([H:11])[C:3]1([O:7][C:6]([C:5]([C:4][H:13])([H:14])[H:15])([H:16])[H:17])[H:12]"
C       -1.77977326      -0.15730591       1.23368125
C       -1.61545224       1.14901085       0.48956617
C       -0.90748254      -0.11876285       0.05155331
C        0.68616302      -1.26448690      -0.02468859
C        1.62612102      -0.79960874      -1.14203044
C        1.53834123       0.61286357      -0.57463629
O        0.72149045       0.22152788       0.55570210
H       -1.27893202      -0.22309006       2.19069035
H       -2.71083043      -0.70655896       1.17587655
H       -2.43385626       1.49426595      -0.13035089
H       -1.06064074       1.93113283       0.98910069
H       -1.27410869      -0.51557175      -0.88702905
H        1.14539342      -1.89121625       0.74342258
H        2.63442963      -1.21759401      -1.12527072
H        1.21924517      -0.90779394      -2.15037145
H        2.46713101       1.04512001      -0.19918124
H        1.02276124       1.34806828      -1.19603435
17
Frame=5 idx=011420 GeodesicLength=0.1448383134623932 rxn_smarts="[C:1]1([H:8])([H:9])[C:2]([H:10])([H:11])[C:3]1([C@@:4]1([H:13])[C:5]([H:14])([H:15])[C:6]([H:16])([H:17])[O:7]1)[H:12]>>[C:1]1([H:8])([H:9])[C:2]([H:10])([H:11])[C:3]1([O:7][C:6]([C:5]([C:4][H:13])([H:14])[H:15])([H:16])[H:17])[H:12]"
C       -1.77808915      -0.15273715       1.24189549
C       -1.61855783       1.14454362       0.48242473
C       -0.91263097      -0.12521002       0.05227245
C        0.68153460      -1.26330080      -0.03862107
C        1.63225235      -0.79451219      -1.14465773
C        1.54401964       0.61388483      -0.56866891
O        0.72324423       0.21527316       0.55582232
H       -1.27082357      -0.21041821       2.19599477
H       -2.71079634      -0.70005574       1.19496096
H       -2.44231964       1.48537857      -0.13264335
H       -1.05932012       1.93178757       0.96883276
H       -1.29145224      -0.52966318      -0.87889855
H        1.12828902      -1.90095966       0.72781792
H        2.63888652      -1.21621058      -1.12074280
H        1.23312388      -0.89367510      -2.15672492
H        2.47137417       1.04528177      -0.18852254
H        1.03126544       1.35059311      -1.19054152
17
Frame=6 idx=011420 GeodesicLength=0.17379714736873053 rxn_smarts="[C:1]1([H:8])([H:9])[C:2]([H:10])([H:11])[C:3]1([C@@:4]1([H:13])[C:5]([H:14])([H:15])[C:6]([H:16])([H:17])[O:7]1)[H:12]>>[C:1]1([H:8])([H:9])[C:2]([H:10])([H:11])[C:3]1([O:7][C:6]([C:5]([C:4][H:13])([H:14])[H:15])([H:16])[H:17])[H:12]"
C       -1.77634296      -0.14806444       1.25004208
C       -1.62171410       1.13995668       0.47525529
C       -0.91783788      -0.13174121       0.05300704
C        0.67690468      -1.26190352      -0.05265049
C        1.63838047      -0.78937415      -1.14723296
C        1.54973235       0.61488038      -0.56263083
O        0.72499334       0.20901394       0.55590498
H       -1.26263794      -0.19764520       2.20110015
H       -2.71064999      -0.69331078       1.21404943
H       -2.45078538       1.47644040      -0.13487199
H       -1.05809681       1.93216924       0.94838845
H       -1.30890724      -0.54404603      -0.87035701
H        1.11113984      -1.91047913       0.71179657
H        2.64321059      -1.21493390      -1.11620241
H        1.24707414      -0.87945447      -2.16290740
H        2.47565106       1.04532327      -0.17775313
H        1.03988584       1.35316892      -1.18493778
17
Frame=7 idx=011420 GeodesicLength=0.20275571530743638 rxn_smarts="[C:1]1([H:8])([H:9])[C:2]([H:10])([H:11])[C:3]1([C@@:4]1([H:13])[C:5]([H:14])([H:15])[C:6]([H:16])([H:17])[O:7]1)[H:12]>>[C:1]1([H:8])([H:9])[C:2]([H:10])([H:11])[C:3]1([O:7][C:6]([C:5]([C:4][H:13])([H:14])[H:15])([H:16])[H:17])[H:12]"
C       -1.77452255      -0.14325780       1.25814649
C       -1.62492933       1.13523553       0.46801259
C       -0.92310942      -0.13839130       0.05377525
C        0.67226842      -1.26031098      -0.06681898
C        1.64450335      -0.78417127      -1.14977529
C        1.55548556       0.61584726      -0.55647658
O        0.72673556       0.20270465       0.55597026
H       -1.25436447      -0.18466637       2.20603593
H       -2.71037704      -0.68629637       1.23321651
H       -2.45927237       1.46739541      -0.13709338
H       -1.05696778       1.93229145       0.92765558
H       -1.32648522      -0.55878652      -0.86135375
H        1.09393365      -1.91983286       0.69527965
H        2.64739592      -1.21375022      -1.11168818
H        1.26110205      -0.86505063      -2.16894395
H        2.47996809       1.04521502      -0.16679748
H        1.04863557       1.35582499      -1.17914467
17
Frame=8 idx=011420 GeodesicLength=0.2316797499062825 rxn_smarts="[C:1]1([H:8])([H:9])[C:2]([H:10])([H:11])[C:3]1([C@@:4]1([H:13])[C:5]([H:14])([H:15])[C:6]([H:16])([H:17])[O:7]1)[H:12]>>[C:1]1([H:8])([H:9])[C:2]([H:10])([H:11])[C:3]1([O:7][C:6]([C:5]([C:4][H:13])([H:14])[H:15])([H:16])[H:17])[H:12]"
C       -1.77264245      -0.13833852       1.26618268
C       -1.62819942       1.13038756       0.46073451
C       -0.92843938      -0.14513610       0.05457353
C        0.66762758      -1.25849965      -0.08108869
C        1.65061417      -0.77892308      -1.15227100
C        1.56127424       0.61678468      -0.55024125
O        0.72847643       0.19638413       0.55600448
H       -1.24602112      -0.17156762       2.21077175
H       -2.70998579      -0.67903439       1.25238254
H       -2.46775828       1.45828666      -0.13927412
H       -1.05594308       1.93213189       0.90672887
H       -1.34414871      -0.57382624      -0.85190099
H        1.07669378      -1.92895140       0.67832810
H        2.65143391      -1.21267866      -1.10718526
H        1.27518898      -0.85052952      -2.17480939
H        2.48432387       1.04497054      -0.15571937
H        1.05750528       1.35853972      -1.17321638
17
Frame=9 idx=011420 GeodesicLength=0.26060503143961294 rxn_smarts="[C:1]1([H:8])([H:9])[C:2]([H:10])([H:11])[C:3]1([C@@:4]1([H:13])[C:5]([H:14])([H:15])[C:6]([H:16])([H:17])[O:7]1)[H:12]>>[C:1]1([H:8])([H:9])[C:2]([H:10])([H:11])[C:3]1([O:7][C:6]([C:5]([C:4][H:13])([H:14])[H:15])([H:16])[H:17])[H:12]"
C       -1.77069283      -0.13327463       1.27417557
C       -1.63152864       1.12539358       0.45337301
C       -0.93383339      -0.15201581       0.05542405
C        0.66297688      -1.25648319      -0.09550238
C        1.65671013      -0.77360284      -1.15473945
C        1.56710198       0.61768852      -0.54387784
O        0.73021285       0.19000280       0.55602888
H       -1.23760241      -0.15824078       2.21533533
H       -2.70947142      -0.67147871       1.27162434
H       -2.47625694       1.44905604      -0.14147084
H       -1.05501481       1.93169354       0.88549369
H       -1.36190680      -0.58923752      -0.84194092
H        1.05941676      -1.93789274       0.66085310
H        2.65531853      -1.21169884      -1.10273226
H        1.28934249      -0.83580484      -2.18052752
H        2.48872267       1.04455646      -0.14444424
H        1.06650496       1.36133896      -1.16707252
17
Frame=10 idx=011420 GeodesicLength=0.28949750750982306 rxn_smarts="[C:1]1([H:8])([H:9])[C:2]([H:10])([H:11])[C:3]1([C@@:4]1([H:13])[C:5]([H:14])([H:15])[C:6]([H:16])([H:17])[O:7]1)[H:12]>>[C:1]1([H:8])([H:9])[C:2]([H:10])([H:11])[C:3]1([O:7][C:6]([C:5]([C:4][H:13])([H:14])[H:15])([H:16])[H:17])[H:12]"
C       -1.76868639      -0.12808798       1.28209960
C       -1.63491501       1.12026249       0.44596663
C       -0.93928544      -0.15900354       0.05632151
C        0.65831653      -1.25423861      -0.11002278
C        1.66278517      -0.76823162      -1.15716640
C        1.57296495       0.61855792      -0.53742160
O        0.73195048       0.18360016       0.55602937
H       -1.22912118      -0.14477306       2.21969635
H       -2.70883811      -0.66365838       1.29086402
H       -2.48475108       1.43974542      -0.14364924
H       -1.05419617       1.93095902       0.86404478
H       -1.37971991      -0.60495553      -0.83149126
H        1.04211896      -1.94658968       0.64291906
H        2.65904222      -1.21083175      -1.09831314
H        1.30354482      -0.82094557      -2.18607379
H        2.49316345       1.04398886      -0.13303531
H        1.07562671       1.36420184      -1.16076778
17
Frame=11 idx=011420 GeodesicLength=0.3183929395742493 rxn_smarts="[C:1]1([H:8])([H:9])[C:2]([H:10])([H:11])[C:3]1([C@@:4]1([H:13])[C:5]([H:14])([H:15])[C:6]([H:16])([H:17])[O:7]1)[H:12]>>[C:1]1([H:8])([H:9])[C:2]([H:10])([H:11])[C:3]1([O:7][C:6]([C:5]([C:4][H:13])([H:14])[H:15])([H:16])[H:17])[H:12]"
C       -1.76661206      -0.12274383       1.28997829
C       -1.63836469       1.11497462       0.43846822
C       -0.94480036      -0.16613609       0.05728829
C        0.65363960      -1.25177551      -0.12469275
C        1.66883532      -0.76278238      -1.15957133
C        1.57886890       0.61938708      -0.53082464
O        0.73368646       0.17712770       0.55602658
H       -1.22056963      -0.13105571       2.22387832
H       -2.70807334      -0.65553196       1.31017620
H       -2.49325694       1.43029448      -0.14586389
H       -1.05348409       1.92992962       0.84226636
H       -1.39759334      -0.62105125      -0.82049159
H        1.02478842      -1.95509628       0.62443774
H        2.66259708      -1.21005788      -1.09396956
H        1.31780036      -0.80586820      -2.19146936
H        2.49765325       1.04323034      -0.12141857
H        1.08488506       1.36715524      -1.15421832
17
Frame=12 idx=011420 GeodesicLength=0.34725967089135434 rxn_smarts="[C:1]1([H:8])([H:9])[C:2]([H:10])([H:11])[C:3]1([C@@:4]1([H:13])[C:5]([H:14])([H:15])[C:6]([H:16])([H:17])[O:7]1)[H:12]>>[C:1]1([H:8])([H:9])[C:2]([H:10])([H:11])[C:3]1([O:7][C:6]([C:5]([C:4][H:13])([H:14])[H:15])([H:16])[H:17])[H:12]"
C       -1.76448350      -0.11726275       1.29778871
C       -1.64187417       1.10953613       0.43091045
C       -0.95037191      -0.17339369       0.05832285
C        0.64894770      -1.24907449      -0.13947506
C        1.67485202      -0.75727317      -1.16194232
C        1.58480936       0.62017518      -0.52411732
O        0.73542694       0.17061941       0.55601058
H       -1.21196359      -0.11716455       2.22785616
H       -2.70718820      -0.64711961       1.32948928
H       -2.50175526       1.42073919      -0.14809077
H       -1.05288767       1.92858745       0.82024342
H       -1.41548690      -0.63746628      -0.80895778
H        1.00745313      -1.96335199       0.60546745
H        2.66597337      -1.20939573      -1.08969264
H        1.33208671      -0.79062891      -2.19669259
H        2.50219154       1.04229361      -0.10964960
H        1.09427044       1.37018020      -1.14747082
17
Frame=13 idx=011420 GeodesicLength=0.37613878987467436 rxn_smarts="[C:1]1([H:8])([H:9])[C:2]([H:10])([H:11])[C:3]1([C@@:4]1([H:13])[C:5]([H:14])([H:15])[C:6]([H:16])([H:17])[O:7]1)[H:12]>>[C:1]1([H:8])([H:9])[C:2]([H:10])([H:11])[C:3]1([O:7][C:6]([C:5]([C:4][H:13])([H:14])[H:15])([H:16])[H:17])[H:12]"
C       -1.76228804      -0.11160203       1.30555644
C       -1.64545124       1.10392136       0.42323418
C       -0.95600494      -0.18082195       0.05945250
C        0.64423554      -1.24614703      -0.15441662
C        1.68082662      -0.75167038      -1.16430449
C        1.59079669       0.62091408      -0.51723860
O        0.73716919       0.16401803       0.55600724
H       -1.20329344      -0.10296388       2.23165354
H       -2.70616953      -0.63836761       1.34888983
H       -2.51026719       1.41100414      -0.15039684
H       -1.05240596       1.92693064       0.79783507
H       -1.43340729      -0.65428955      -0.79681618
H        0.99010998      -1.97141535       0.58590759
H        2.66915735      -1.20882665      -1.08554591
H        1.34639474      -0.77512071      -2.20176663
H        2.50679181       1.04112589      -0.09763156
H        1.10380570       1.37331102      -1.14041956
17
Frame=14 idx=011420 GeodesicLength=0.40506722878185225 rxn_smarts="[C:1]1([H:8])([H:9])[C:2]([H:10])([H:11])[C:3]1([C@@:4]1([H:13])[C:5]([H:14])([H:15])[C:6]([H:16])([H:17])[O:7]1)[H:12]>>[C:1]1([H:8])([H:9])[C:2]([H:10])([H:11])[C:3]1([O:7][C:6]([C:5]([C:4][H:13])([H:14])[H:15])([H:16])[H:17])[H:12]"
C       -1.76001302      -0.10572232       1.31330117
C       -1.64910128       1.09810249       0.41538694
C       -0.96170276      -0.18846295       0.06070328
C        0.63949463      -1.24299650      -0.16955829
C        1.68674914      -0.74594200      -1.16667806
C        1.59683833       0.62159424      -0.51013404
O        0.73890985       0.15727361       0.55603841
H       -1.19454812      -0.08833537       2.23528436
H       -2.70500316      -0.62922016       1.36845103
H       -2.51880875       1.40102001      -0.15283967
H       -1.05203579       1.92494459       0.77491506
H       -1.45135594      -0.67159900      -0.78399392
H        0.97275210      -1.97933096       0.56566607
H        2.67213193      -1.20833424      -1.08158335
H        1.36071626      -0.75924567      -2.20670735
H        2.51146426       1.03967671      -0.08528336
H        1.11351231       1.37657753      -1.13296827
17
Frame=15 idx=011420 GeodesicLength=0.434017855235222 rxn_smarts="[C:1]1([H:8])([H:9])[C:2]([H:10])([H:11])[C:3]1([C@@:4]1([H:13])[C:5]([H:14])([H:15])[C:6]([H:16])([H:17])[O:7]1)[H:12]>>[C:1]1([H:8])([H:9])[C:2]([H:10])([H:11])[C:3]1([O:7][C:6]([C:5]([C:4][H:13])([H:14])[H:15])([H:16])[H:17])[H:12]"
C       -1.75767271      -0.09963767       1.32100355
C       -1.65282082       1.09208301       0.40739950
C       -0.96745909      -0.19630101       0.06208146
C        0.63472556      -1.23960361      -0.18486771
C        1.69261122      -0.74010300      -1.16905362
C        1.60292883       0.62221342      -0.50283038
O        0.74065701       0.15041233       0.55609688
H       -1.18574631      -0.07334338       2.23872568
H       -2.70370165      -0.61968756       1.38810711
H       -2.52735749       1.39081593      -0.15540441
H       -1.05178609       1.92260832       0.75155915
H       -1.46928836      -0.68934431      -0.77049671
H        0.95540071      -1.98704854       0.54478656
H        2.67489067      -1.20793029      -1.07779924
H        1.37503431      -0.74305239      -2.21149527
H        2.51620825       1.03795704      -0.07265961
H        1.12337597       1.37996171      -1.12515294
17
Frame=16 idx=011420 GeodesicLength=0.46296249207715845 rxn_smarts="[C:1]1([H:8])([H:9])[C:2]([H:10])([H:11])[C:3]1([C@@:4]1([H:13])[C:5]([H:14])([H:15])[C:6]([H:16])([H:17])[O:7]1)[H:12]>>[C:1]1([H:8])([H:9])[C:2]([H:10])([H:11])[C:3]1([O:7][C:6]([C:5]([C:4][H:13])([H:14])[H:15])([H:16])[H:17])[H:12]"
C       -1.75527782      -0.09336192       1.32864166
C       -1.65660731       1.08586333       0.39929617
C       -0.97326533      -0.20431982       0.06358943
C        0.62992837      -1.23594883      -0.20030752
C        1.69839824      -0.73416601      -1.17142290
C        1.60906519       0.62276711      -0.49534867
O        0.74241709       0.14346122       0.55617858
H       -1.17690364      -0.05804232       2.24195389
H       -2.70226923      -0.60978858       1.40779252
H       -2.53589978       1.38041278      -0.15807353
H       -1.05166561       1.91990097       0.72783137
H       -1.48715741      -0.70746996      -0.75633928
H        0.93808431      -1.99451184       0.52332260
H        2.67741821      -1.20762675      -1.07419795
H        1.38931537      -0.72658238      -2.21611032
H        2.52102714       1.03596538      -0.05980432
H        1.13339220       1.38344761      -1.11700172
