13
Frame=0 idx=001833 GeodesicLength=0.0 rxn_smarts="[C:1]([C@@:2]1([H:10])[C:3]([H:11])([H:12])[N:4]([H:13])[C:5]1=[O:6])([H:7])([H:8])[H:9]>>[C:1]([C@@:2]1([H:10])[C@@:5]2([C:3]([H:11])([H:12])[N:4]2[H:13])[O:6]1)([H:7])([H:8])[H:9]"
C        1.88629011       0.18630038       0.37694873
C        0.79497285       0.71752459      -0.49026855
C       -1.60264635      -1.30974141       0.11070302
N       -1.75361224       0.00126488      -0.35107624
C       -0.58503715       0.53389143      -0.20180410
O       -0.12190352       1.74393783       0.12536542
H        2.72963426       0.87735686       0.41535697
H        1.51729755      -0.00138113       1.38429398
H        2.23304449      -0.76119801      -0.04037334
H        1.06800787       0.99739302      -1.50593823
H       -1.47496890      -1.41935579       1.17571900
H       -2.08906239      -2.09800522      -0.44906812
H       -2.60201656       0.53201263      -0.54985851
13
Frame=1 idx=001833 GeodesicLength=0.1136363714898214 rxn_smarts="[C:1]([C@@:2]1([H:10])[C:3]([H:11])([H:12])[N:4]([H:13])[C:5]1=[O:6])([H:7])([H:8])[H:9]>>[C:1]([C@@:2]1([H:10])[C@@:5]2([C:3]([H:11])([H:12])[N:4]2[H:13])[O:6]1)([H:7])([H:8])[H:9]"
C        1.86805890       0.17371032       0.38572320
C        0.77435214       0.68053037      -0.49411185
C       -1.54624093      -1.28631257       0.08366423
N       -1.77053913       0.02488417      -0.35995369
C       -0.60713188       0.56627461      -0.17319812
O       -0.11693958       1.77436497       0.09287305
H        2.71246109       0.86435472       0.40104855
H        1.50348008       0.01633493       1.39994231
H        2.21375946      -0.78570772      -0.00443985
H        1.04615331       0.92181287      -1.52003842
H       -1.45426780      -1.41663384       1.15081557
H       -1.98637410      -2.08552687      -0.49919800
H       -2.63677157       0.55191404      -0.46312697
13
Frame=2 idx=001833 GeodesicLength=0.22755473569257517 rxn_smarts="[C:1]([C@@:2]1([H:10])[C:3]([H:11])([H:12])[N:4]([H:13])[C:5]1=[O:6])([H:7])([H:8])[H:9]>>[C:1]([C@@:2]1([H:10])[C@@:5]2([C:3]([H:11])([H:12])[N:4]2[H:13])[O:6]1)([H:7])([H:8])[H:9]"
C        1.85109491       0.16137266       0.39320767
C        0.75314445       0.64424870      -0.49593545
C       -1.49481148      -1.26004938       0.06049269
N       -1.78620477       0.04768245      -0.36791229
C       -0.62695025       0.59571045      -0.14679060
O       -0.11386479       1.79971552       0.06310236
H        2.69471855       0.85309738       0.38793166
H        1.49167922       0.02952133       1.41300870
H        2.19827593      -0.80677607       0.02658693
H        1.02291888       0.85184037      -1.52983726
H       -1.43534667      -1.41276579       1.12777148
H       -1.89054567      -2.06698881      -0.54388033
H       -2.66410831       0.56339119      -0.38774556
13
Frame=3 idx=001833 GeodesicLength=0.34161261857744496 rxn_smarts="[C:1]([C@@:2]1([H:10])[C:3]([H:11])([H:12])[N:4]([H:13])[C:5]1=[O:6])([H:7])([H:8])[H:9]>>[C:1]([C@@:2]1([H:10])[C@@:5]2([C:3]([H:11])([H:12])[N:4]2[H:13])[O:6]1)([H:7])([H:8])[H:9]"
C        1.83545192       0.14896174       0.39919671
C        0.73187676       0.60942944      -0.49610905
C       -1.44789742      -1.23204934       0.04174341
N       -1.80048236       0.06904589      -0.37569764
C       -0.64465751       0.62220651      -0.12301819
O       -0.11288745       1.82056138       0.03743272
H        2.67661345       0.84330455       0.37646152
H        1.48162848       0.03727114       1.42345890
H        2.18657011      -0.82482256       0.05173744
H        0.99926571       0.78906742      -1.53595459
H       -1.41862188      -1.40694251       1.10766699
H       -1.80130229      -2.04466894      -0.58164311
H       -2.68555753       0.56863528      -0.32527512
13
Frame=4 idx=001833 GeodesicLength=0.455670837493212 rxn_smarts="[C:1]([C@@:2]1([H:10])[C:3]([H:11])([H:12])[N:4]([H:13])[C:5]1=[O:6])([H:7])([H:8])[H:9]>>[C:1]([C@@:2]1([H:10])[C@@:5]2([C:3]([H:11])([H:12])[N:4]2[H:13])[O:6]1)([H:7])([H:8])[H:9]"
C        1.82101744       0.13638582       0.40374888
C        0.71091139       0.57635944      -0.49505932
C       -1.40497729      -1.20315785       0.02722622
N       -1.81326827       0.08865929      -0.38378407
C       -0.66045579       0.64595212      -0.10183957
O       -0.11388583       1.83780560       0.01626163
H        2.65828339       0.83477037       0.36662879
H        1.47300765       0.03985609       1.43163394
H        2.17816495      -0.84040528       0.07119032
H        0.97582551       0.73355553      -1.53926576
H       -1.40393920      -1.39915530       1.09060683
H       -1.71821295      -2.02015259      -0.61232551
H       -2.70247100       0.56952676      -0.27502236
13
Frame=5 idx=001833 GeodesicLength=0.5696877284175368 rxn_smarts="[C:1]([C@@:2]1([H:10])[C:3]([H:11])([H:12])[N:4]([H:13])[C:5]1=[O:6])([H:7])([H:8])[H:9]>>[C:1]([C@@:2]1([H:10])[C@@:5]2([C:3]([H:11])([H:12])[N:4]2[H:13])[O:6]1)([H:7])([H:8])[H:9]"
C        1.80769372       0.12367062       0.40706029
C        0.69051436       0.54505256      -0.49319536
C       -1.36552696      -1.17398383       0.01638565
N       -1.82463001       0.10646865      -0.39249922
C       -0.67456022       0.66720296      -0.08312052
O       -0.11664075       1.85232030      -0.00062779
H        2.63989916       0.82733528       0.35835363
H        1.46553766       0.03799104       1.43796092
H        2.17258964      -0.85398104       0.08562506
H        0.95305216       0.68464243      -1.54060055
H       -1.39094808      -1.38969043       1.07634343
H       -1.64088134      -1.99453992      -0.63648224
H       -2.71609933       0.56751138      -0.23520330
13
Frame=6 idx=001833 GeodesicLength=0.6836618273329093 rxn_smarts="[C:1]([C@@:2]1([H:10])[C:3]([H:11])([H:12])[N:4]([H:13])[C:5]1=[O:6])([H:7])([H:8])[H:9]>>[C:1]([C@@:2]1([H:10])[C@@:5]2([C:3]([H:11])([H:12])[N:4]2[H:13])[O:6]1)([H:7])([H:8])[H:9]"
C        1.79538286       0.11086435       0.40931267
C        0.67083455       0.51542174      -0.49081748
C       -1.32910218      -1.14490912       0.00867309
N       -1.83466850       0.12255142      -0.40198917
C       -0.68717122       0.68623739      -0.06659060
O       -0.12091938       1.86483357      -0.01357049
H        2.62158797       0.82086423       0.35148832
H        1.45902380       0.03239209       1.44279470
H        2.16940605      -0.86589799       0.09574358
H        0.93116661       0.64151017      -1.54059466
H       -1.37933320      -1.37885752       1.06456359
H       -1.56889441      -1.96854704      -0.65482019
H       -2.72731296       0.56353672      -0.20419337
13
Frame=7 idx=001833 GeodesicLength=0.7975973429420978 rxn_smarts="[C:1]([C@@:2]1([H:10])[C:3]([H:11])([H:12])[N:4]([H:13])[C:5]1=[O:6])([H:7])([H:8])[H:9]>>[C:1]([C@@:2]1([H:10])[C@@:5]2([C:3]([H:11])([H:12])[N:4]2[H:13])[O:6]1)([H:7])([H:8])[H:9]"
C        1.78398223       0.09802487       0.41067214
C        0.65193948       0.48733503      -0.48814546
C       -1.29531706      -1.11619225       0.00357871
N       -1.84347864       0.13706604      -0.41227581
C       -0.69846367       0.70331786      -0.05196520
O       -0.12653388       1.87591784      -0.02298172
H        2.60341712       0.81522714       0.34587148
H        1.45331576       0.02373317       1.44640702
H        2.16822799      -0.87640860       0.10223419
H        0.91023977       0.60331013      -1.53970440
H       -1.36879705      -1.36698054       1.05495000
H       -1.50184182      -1.94266431      -0.66810729
H       -2.73669022       0.55831363      -0.18053367
13
Frame=8 idx=001833 GeodesicLength=0.9114844344061539 rxn_smarts="[C:1]([C@@:2]1([H:10])[C:3]([H:11])([H:12])[N:4]([H:13])[C:5]1=[O:6])([H:7])([H:8])[H:9]>>[C:1]([C@@:2]1([H:10])[C@@:5]2([C:3]([H:11])([H:12])[N:4]2[H:13])[O:6]1)([H:7])([H:8])[H:9]"
C        1.77339412       0.08520984       0.41128350
C        0.63385440       0.46064027      -0.48533820
C       -1.26387571      -1.08797172       0.00065237
N       -1.85113393       0.15016338      -0.42329908
C       -0.70858173       0.71868376      -0.03898182
O       -0.13331782       1.88600817      -0.02927698
H        2.58541116       0.81033016       0.34136006
H        1.44829468       0.01258806       1.44901331
H        2.16873349      -0.88569043       0.10570034
H        0.89026171       0.56925011      -1.53826331
H       -1.35911952      -1.35430809       1.04716819
H       -1.43936160      -1.91716923      -0.67705288
H       -2.74455925       0.55226574      -0.16296549
13
Frame=9 idx=001833 GeodesicLength=1.0253179865664237 rxn_smarts="[C:1]([C@@:2]1([H:10])[C:3]([H:11])([H:12])[N:4]([H:13])[C:5]1=[O:6])([H:7])([H:8])[H:9]>>[C:1]([C@@:2]1([H:10])[C@@:5]2([C:3]([H:11])([H:12])[N:4]2[H:13])[O:6]1)([H:7])([H:8])[H:9]"
C        1.76352769       0.07246787       0.41126435
C        0.61658197       0.43519182      -0.48251080
C       -1.23450541      -1.06033607      -0.00048584
N       -1.85771551       0.16200420      -0.43499217
C       -0.71763691       0.73254490      -0.02742602
O       -0.14112717       1.89542265      -0.03283618
H        2.56757932       0.80608443       0.33784394
H        1.44385146      -0.00057246       1.45075864
H        2.17065020      -0.89386218       0.10665083
H        0.87119886       0.53864062      -1.53649384
H       -1.35010417      -1.34104098       1.04095763
H       -1.38111695      -1.89225662      -0.68229589
H       -2.75118338       0.54571181      -0.15043464
13
Frame=10 idx=001833 GeodesicLength=1.1390926863598196 rxn_smarts="[C:1]([C@@:2]1([H:10])[C:3]([H:11])([H:12])[N:4]([H:13])[C:5]1=[O:6])([H:7])([H:8])[H:9]>>[C:1]([C@@:2]1([H:10])[C@@:5]2([C:3]([H:11])([H:12])[N:4]2[H:13])[O:6]1)([H:7])([H:8])[H:9]"
C        1.75432203       0.05983237       0.41071122
C        0.60011085       0.41085468      -0.47974728
C       -1.20699992      -1.03331765      -0.00014387
N       -1.86328367       0.17272525      -0.44728218
C       -0.72573279       0.74508869      -0.01710987
O       -0.14987112       1.90439837      -0.03396040
H        2.54991621       0.80242883       0.33523841
H        1.43992509      -0.01539918       1.45177137
H        2.17380385      -0.90100805       0.10548094
H        0.85299298       0.51091597      -1.53457124
H       -1.34162115      -1.32729799       1.03609241
H       -1.32685489      -1.86804918      -0.68434518
H       -2.75670747       0.53882787      -0.14213433
13
Frame=11 idx=001833 GeodesicLength=1.2528070361602626 rxn_smarts="[C:1]([C@@:2]1([H:10])[C:3]([H:11])([H:12])[N:4]([H:13])[C:5]1=[O:6])([H:7])([H:8])[H:9]>>[C:1]([C@@:2]1([H:10])[C@@:5]2([C:3]([H:11])([H:12])[N:4]2[H:13])[O:6]1)([H:7])([H:8])[H:9]"
C        1.74571574       0.04732877       0.40970253
C        0.58442156       0.38750379      -0.47711117
C       -1.18116660      -1.00692615       0.00141976
N       -1.86790056       0.18245396      -0.46010189
C       -0.73294840       0.75647774      -0.00789020
O       -0.15947019       1.91310639      -0.03292112
H        2.53240581       0.79930446       0.33348327
H        1.43644768      -0.03161143       1.45213710
H        2.17804166      -0.90718267       0.10252310
H        0.83558925       0.48558635      -1.53261470
H       -1.33355581      -1.31316650       1.03239481
H       -1.27632355      -1.84462399      -0.68365223
H       -2.76125659       0.53174929      -0.13736926
13
Frame=12 idx=001833 GeodesicLength=1.3664648301042797 rxn_smarts="[C:1]([C@@:2]1([H:10])[C:3]([H:11])([H:12])[N:4]([H:13])[C:5]1=[O:6])([H:7])([H:8])[H:9]>>[C:1]([C@@:2]1([H:10])[C@@:5]2([C:3]([H:11])([H:12])[N:4]2[H:13])[O:6]1)([H:7])([H:8])[H:9]"
C        1.73765561       0.03497315       0.40830266
C        0.56948860       0.36502472      -0.47465068
C       -1.15683867      -0.98115066       0.00399200
N       -1.87162250       0.19130173      -0.47338582
C       -0.73934936       0.76685671       0.00034776
O       -0.16986607       1.92167329      -0.02994618
H        2.51502518       0.79665946       0.33253289
H        1.43336286      -0.04899125       1.45192301
H        2.18324323      -0.91242570       0.09804965
H        0.81893009       0.46223500      -1.53071567
H       -1.32581893      -1.29870064       1.02971898
H       -1.22928789      -1.82202079      -0.68059967
H       -2.76492217       0.52456500      -0.13556891
13
Frame=13 idx=001833 GeodesicLength=1.4800688379902682 rxn_smarts="[C:1]([C@@:2]1([H:10])[C:3]([H:11])([H:12])[N:4]([H:13])[C:5]1=[O:6])([H:7])([H:8])[H:9]>>[C:1]([C@@:2]1([H:10])[C@@:5]2([C:3]([H:11])([H:12])[N:4]2[H:13])[O:6]1)([H:7])([H:8])[H:9]"
C        1.73009450       0.02277463       0.40656364
C        0.55528279       0.34331433      -0.47240201
C       -1.13387150      -0.95596792       0.00739671
N       -1.87449767       0.19936468      -0.48707106
C       -0.74499057       0.77635421       0.00769589
O       -0.18101986       1.93019133      -0.02522370
H        2.49774571       0.79444646       0.33235046
H        1.43062285      -0.06736871       1.45118042
H        2.18931139      -0.91676533       0.09228427
H        0.80295910       0.44050714      -1.52894309
H       -1.31833982      -1.28393072       1.02794396
H       -1.18553053      -1.80025542      -0.67550913
H       -2.76776640       0.51733533      -0.13626635
13
Frame=14 idx=001833 GeodesicLength=1.5936207463825467 rxn_smarts="[C:1]([C@@:2]1([H:10])[C:3]([H:11])([H:12])[N:4]([H:13])[C:5]1=[O:6])([H:7])([H:8])[H:9]>>[C:1]([C@@:2]1([H:10])[C@@:5]2([C:3]([H:11])([H:12])[N:4]2[H:13])[O:6]1)([H:7])([H:8])[H:9]"
C        1.72299195       0.01073807       0.40452486
C        0.54177317       0.32227917      -0.47039163
C       -1.11213297      -0.93135210       0.01149262
N       -1.87657395       0.20673324      -0.50110994
C       -0.74991445       0.78508140       0.01422655
O       -0.19290176       1.93872024      -0.01890576
H        2.48053563       0.79262396       0.33291260
H        1.42818719      -0.08662069       1.44993932
H        2.19617405      -0.92021050       0.08540500
H        0.78762363       0.42009922      -1.52734403
H       -1.31106513      -1.26887026       1.02698379
H       -1.14484591      -1.77933726      -0.66865052
H       -2.76985145       0.51011553      -0.13908286
13
Frame=15 idx=001833 GeodesicLength=1.707124281296821 rxn_smarts="[C:1]([C@@:2]1([H:10])[C:3]([H:11])([H:12])[N:4]([H:13])[C:5]1=[O:6])([H:7])([H:8])[H:9]>>[C:1]([C@@:2]1([H:10])[C@@:5]2([C:3]([H:11])([H:12])[N:4]2[H:13])[O:6]1)([H:7])([H:8])[H:9]"
C        1.71631201      -0.00113642       0.40221889
C        0.52892805       0.30183359      -0.46864019
C       -1.09150842      -0.90726897       0.01616038
N       -1.87789138       0.21348288      -0.51545515
C       -0.75415665       0.79313945       0.01999550
O       -0.20549782       1.94730223      -0.01111580
H        2.46336002       0.79115263       0.33420020
H        1.42602228      -0.10665220       1.44822404
H        2.20377226      -0.92276626       0.07756042
H        0.77287403       0.40074760      -1.52595797
H       -1.30395256      -1.25351698       1.02676182
H       -1.10704544      -1.75925677      -0.66024878
H       -2.77121636       0.50293923      -0.14370336
13
Frame=16 idx=001833 GeodesicLength=1.8205836776008868 rxn_smarts="[C:1]([C@@:2]1([H:10])[C:3]([H:11])([H:12])[N:4]([H:13])[C:5]1=[O:6])([H:7])([H:8])[H:9]>>[C:1]([C@@:2]1([H:10])[C@@:5]2([C:3]([H:11])([H:12])[N:4]2[H:13])[O:6]1)([H:7])([H:8])[H:9]"
C        1.71002317      -0.01285166       0.39967141
C        0.51671582       0.28189881      -0.46716360
C       -1.07189425      -0.88368224       0.02130089
N       -1.87848669       0.21968071      -0.53006647
C       -0.75774474       0.80061943       0.02504452
O       -0.21880441       1.95596311      -0.00195234
H        2.44618192       0.78999597       0.33620093
H        1.42409994      -0.12739466       1.44604968
H        2.21206055      -0.92442906       0.06887250
H        0.75866490       0.38222068      -1.52481635
H       -1.29696830      -1.23785848       1.02721745
H       -1.07195385      -1.73999686      -0.65049220
H       -2.77189406       0.49583425      -0.14986642
