16
Frame=0 idx=010635 GeodesicLength=0.0 rxn_smarts="[C:1]([C@@:2]1([H:11])[N:3]([H:12])[C:4](=[O:5])[C@:6]1([C:7]([H:14])([H:15])[H:16])[H:13])([H:8])([H:9])[H:10]>>[C:1](/[C:2](=[N+:3](\[C:4]([O-:5])=[C:6]([C:7]([H:14])([H:15])[H:16])[H:13])[H:12])[H:11])([H:8])([H:9])[H:10]"
C        1.85084553      -0.81215074       0.10598235
C        0.91172058      -0.41541930       1.19227399
N        0.51516348       0.83168329       1.37533051
C       -0.21699875       1.20776583       0.12558918
O        0.02214426       2.22145201      -0.49216021
C       -1.03850307       0.09620028      -0.15482505
C       -1.83018283       0.03351227      -1.41956235
H        1.87711277      -0.07356456      -0.69238118
H        1.58274332      -1.78423079      -0.30569821
H        2.85584693      -0.90158702       0.53795915
H        0.81974907      -1.10785308       2.03018441
H        0.16150662       1.13944958       2.26690804
H       -1.38836653      -0.48035719       0.69165757
H       -1.29270276       0.51772919      -2.23608162
H       -2.80171969       0.53198319      -1.32830709
H       -2.02835890      -1.00461289      -1.69686947
16
Frame=1 idx=010635 GeodesicLength=0.05452694069167921 rxn_smarts="[C:1]([C@@:2]1([H:11])[N:3]([H:12])[C:4](=[O:5])[C@:6]1([C:7]([H:14])([H:15])[H:16])[H:13])([H:8])([H:9])[H:10]>>[C:1](/[C:2](=[N+:3](\[C:4]([O-:5])=[C:6]([C:7]([H:14])([H:15])[H:16])[H:13])[H:12])[H:11])([H:8])([H:9])[H:10]"
C        1.83196144      -0.82157714       0.09360283
C        0.89863821      -0.41660718       1.18215911
N        0.52263334       0.83803806       1.37279179
C       -0.23463126       1.22667564       0.14558120
O       -0.01357266       2.25505759      -0.45453821
C       -1.03920892       0.10231653      -0.14073556
C       -1.80489725       0.02198591      -1.42120685
H        1.85352717      -0.08706662      -0.70879968
H        1.55697863      -1.79507554      -0.31079026
H        2.83917394      -0.91400464       0.51870296
H        0.81804914      -1.10188365       2.02716721
H        0.20649696       1.16097371       2.27307693
H       -1.40814806      -0.46694634       0.70274881
H       -1.26241021       0.51568919      -2.22866252
H       -2.78703194       0.50190230      -1.34799793
H       -1.97755853      -1.01947782      -1.70309983
16
Frame=2 idx=010635 GeodesicLength=0.10885411468150258 rxn_smarts="[C:1]([C@@:2]1([H:11])[N:3]([H:12])[C:4](=[O:5])[C@:6]1([C:7]([H:14])([H:15])[H:16])[H:13])([H:8])([H:9])[H:10]>>[C:1](/[C:2](=[N+:3](\[C:4]([O-:5])=[C:6]([C:7]([H:14])([H:15])[H:16])[H:13])[H:12])[H:11])([H:8])([H:9])[H:10]"
C        1.81353323      -0.83118458       0.08218776
C        0.88576307      -0.41734749       1.17247894
N        0.52966739       0.84448596       1.36923861
C       -0.25240824       1.24442057       0.16499674
O       -0.05039856       2.28726199      -0.41679245
C       -1.03951218       0.10740567      -0.12772963
C       -1.78013215       0.01145703      -1.42262609
H        1.83033453      -0.10137225      -0.72474786
H        1.53205224      -1.80640697      -0.31417818
H        2.82283656      -0.92603731       0.50068557
H        0.81644976      -1.09511548       2.02460117
H        0.25204929       1.18257858       2.27666365
H       -1.42676242      -0.45582838       0.71176273
H       -1.23393850       0.51577406      -2.22095102
H       -2.77216958       0.47242936      -1.36590829
H       -1.92736445      -1.03252076      -1.70968166
16
Frame=3 idx=010635 GeodesicLength=0.16279708489991845 rxn_smarts="[C:1]([C@@:2]1([H:11])[N:3]([H:12])[C:4](=[O:5])[C@:6]1([C:7]([H:14])([H:15])[H:16])[H:13])([H:8])([H:9])[H:10]>>[C:1](/[C:2](=[N+:3](\[C:4]([O-:5])=[C:6]([C:7]([H:14])([H:15])[H:16])[H:13])[H:12])[H:11])([H:8])([H:9])[H:10]"
C        1.79569648      -0.84095602       0.07178300
C        0.87316994      -0.41769761       1.16324598
N        0.53627657       0.85100533       1.36471663
C       -0.27036193       1.26096798       0.18387470
O       -0.08834245       2.31796037      -0.37886812
C       -1.03938189       0.11142371      -0.11579426
C       -1.75601975       0.00196008      -1.42390063
H        1.80767159      -0.11645866      -0.74015545
H        1.50815592      -1.81819357      -0.31586230
H        2.80696968      -0.93764405       0.48398879
H        0.81501543      -1.08759430       2.02250096
H        0.29811056       1.20425628       2.27760346
H       -1.44425708      -0.44699788       0.71877576
H       -1.20726037       0.51772321      -2.21308232
H       -2.75719684       0.44393097      -1.38218349
H       -1.87824585      -1.04368585      -1.71664270
16
Frame=4 idx=010635 GeodesicLength=0.21617787797747082 rxn_smarts="[C:1]([C@@:2]1([H:11])[N:3]([H:12])[C:4](=[O:5])[C@:6]1([C:7]([H:14])([H:15])[H:16])[H:13])([H:8])([H:9])[H:10]>>[C:1](/[C:2](=[N+:3](\[C:4]([O-:5])=[C:6]([C:7]([H:14])([H:15])[H:16])[H:13])[H:12])[H:11])([H:8])([H:9])[H:10]"
C        1.77856672      -0.85087499       0.06242392
C        0.86092353      -0.41770632       1.15446421
N        0.54247575       0.85758229       1.35927159
C       -0.28851237       1.27629679       0.20226028
O       -0.12737734       2.34704634      -0.34071673
C       -1.03878663       0.11435256      -0.10490637
C       -1.73267264      -0.00648109      -1.42509817
H        1.78565576      -0.13230947      -0.75496183
H        1.48545518      -1.83040507      -0.31584944
H        2.79168747      -0.94878497       0.46867623
H        0.81379026      -1.07936182       2.02086375
H        0.34459305       1.22598999       2.27582967
H       -1.46066761      -0.44041569       0.72386377
H       -1.18232779       0.52130205      -2.20515604
H       -2.74218582       0.41672531      -1.39694734
H       -1.83061751      -1.05295591      -1.72401750
16
Frame=5 idx=010635 GeodesicLength=0.26881644295686846 rxn_smarts="[C:1]([C@@:2]1([H:11])[N:3]([H:12])[C:4](=[O:5])[C@:6]1([C:7]([H:14])([H:15])[H:16])[H:13])([H:8])([H:9])[H:10]>>[C:1](/[C:2](=[N+:3](\[C:4]([O-:5])=[C:6]([C:7]([H:14])([H:15])[H:16])[H:13])[H:12])[H:11])([H:8])([H:9])[H:10]"
C        1.76225288      -0.86092704       0.05413229
C        0.84908200      -0.41742232       1.14613857
N        0.54827774       0.86420336       1.35295863
C       -0.30687980       1.29040095       0.22020541
O       -0.16743598       2.37441843      -0.30231313
C       -1.03771202       0.11620229      -0.09502827
C       -1.71019460      -0.01384863      -1.42627982
H        1.76439329      -0.14891082      -0.76912838
H        1.46410717      -1.84301502      -0.31415646
H        2.77710663      -0.95942221       0.45478841
H        0.81281492      -1.07046549       2.01969329
H        0.39137200       1.24775628       2.27129692
H       -1.47603387      -0.43601663       0.72711730
H       -1.15906791       0.52629140      -2.19725866
H       -2.72722884       0.39110259      -1.41032772
H       -1.78485362      -1.06034715      -1.73183838
16
Frame=6 idx=010635 GeodesicLength=0.3205109479324004 rxn_smarts="[C:1]([C@@:2]1([H:11])[N:3]([H:12])[C:4](=[O:5])[C@:6]1([C:7]([H:14])([H:15])[H:16])[H:13])([H:8])([H:9])[H:10]>>[C:1](/[C:2](=[N+:3](\[C:4]([O-:5])=[C:6]([C:7]([H:14])([H:15])[H:16])[H:13])[H:12])[H:11])([H:8])([H:9])[H:10]"
C        1.74688931      -0.87108850       0.04695028
C        0.83770435      -0.41689942       1.13826855
N        0.55368750       0.87083909       1.34581855
C       -0.32545850       1.30324000       0.23773237
O       -0.20844690       2.39996128      -0.26363134
C       -1.03611615       0.11695140      -0.08615504
C       -1.68872123      -0.02011781      -1.42749871
H        1.74402231      -0.16624607      -0.78259167
H        1.44431754      -1.85599326      -0.31078301
H        2.76335871      -0.96948355       0.44240287
H        0.81212055      -1.06094990       2.01898546
H        0.43827679       1.26953815       2.26393501
H       -1.49035778      -0.43376318       0.72858221
H       -1.13740318       0.53245102      -2.18946679
H       -2.71242010       0.36744113      -1.42241234
H       -1.74145322      -1.06588037      -1.74013642
16
Frame=7 idx=010635 GeodesicLength=0.3715253669093185 rxn_smarts="[C:1]([C@@:2]1([H:11])[N:3]([H:12])[C:4](=[O:5])[C@:6]1([C:7]([H:14])([H:15])[H:16])[H:13])([H:8])([H:9])[H:10]>>[C:1](/[C:2](=[N+:3](\[C:4]([O-:5])=[C:6]([C:7]([H:14])([H:15])[H:16])[H:13])[H:12])[H:11])([H:8])([H:9])[H:10]"
C        1.73216896      -0.88140427       0.04068496
C        0.82673876      -0.41609872       1.13081986
N        0.55880825       0.87758512       1.33790379
C       -0.34438328       1.31500295       0.25513457
O       -0.25052654       2.42379708      -0.22436865
C       -1.03417357       0.11686227      -0.07799867
C       -1.66792633      -0.02542361      -1.42876663
H        1.72422255      -0.18432297      -0.79548117
H        1.42554054      -1.86930099      -0.30591693
H        2.75018646      -0.97921265       0.43115057
H        0.81173904      -1.05075058       2.01871332
H        0.48557429       1.29143944       2.25373286
H       -1.50378831      -0.43342168       0.72854708
H       -1.11690857       0.53973768      -2.18164268
H       -2.69764051       0.34529254      -1.43359816
H       -1.69963174      -1.06978161      -1.74891412
16
Frame=8 idx=010635 GeodesicLength=0.421629799506834 rxn_smarts="[C:1]([C@@:2]1([H:11])[N:3]([H:12])[C:4](=[O:5])[C@:6]1([C:7]([H:14])([H:15])[H:16])[H:13])([H:8])([H:9])[H:10]>>[C:1](/[C:2](=[N+:3](\[C:4]([O-:5])=[C:6]([C:7]([H:14])([H:15])[H:16])[H:13])[H:12])[H:11])([H:8])([H:9])[H:10]"
C        1.71826306      -0.89185950       0.03539688
C        0.81624752      -0.41507505       1.12380075
N        0.56362968       0.88440503       1.32923826
C       -0.36363416       1.32563068       0.27240182
O       -0.29354643       2.44578679      -0.18457025
C       -1.03183296       0.11590304      -0.07059201
C       -1.64797344      -0.02971399      -1.43012314
H        1.70515801      -0.20315045      -0.80774202
H        1.40805110      -1.88293026      -0.29951937
H        2.73776296      -0.98851869       0.42113984
H        0.81170062      -1.03991534       2.01889000
H        0.53297784       1.31341544       2.24060666
H       -1.51630682      -0.43496255       0.72702631
H       -1.09757137       0.54798398      -2.17386563
H       -2.68301789       0.32504461      -1.44389200
H       -1.65990773      -1.07204374      -1.75819611
16
Frame=9 idx=010635 GeodesicLength=0.4706556365941844 rxn_smarts="[C:1]([C@@:2]1([H:11])[N:3]([H:12])[C:4](=[O:5])[C@:6]1([C:7]([H:14])([H:15])[H:16])[H:13])([H:8])([H:9])[H:10]>>[C:1](/[C:2](=[N+:3](\[C:4]([O-:5])=[C:6]([C:7]([H:14])([H:15])[H:16])[H:13])[H:12])[H:11])([H:8])([H:9])[H:10]"
C        1.70528632      -0.90241677       0.03113546
C        0.80625757      -0.41388805       1.11719622
N        0.56813775       0.89125699       1.31985443
C       -0.38317010       1.33508037       0.28954392
O       -0.33725752       2.46580623      -0.14428418
C       -1.02905301       0.11406151      -0.06395894
C       -1.62900269      -0.03295706      -1.43159535
H        1.68690251      -0.22273636      -0.81932947
H        1.39209803      -1.89688502      -0.29152839
H        2.72620681      -0.99722003       0.41244463
H        0.81201962      -1.02850025       2.01949053
H        0.58022532       1.33540423       2.22450653
H       -1.52789396      -0.43835036       0.72401497
H       -1.07934711       0.55702766      -2.16617663
H       -2.66866533       0.30701972      -1.45330440
H       -1.62274421      -1.07270283      -1.76800934
16
Frame=10 idx=010635 GeodesicLength=0.5188170663044537 rxn_smarts="[C:1]([C@@:2]1([H:11])[N:3]([H:12])[C:4](=[O:5])[C@:6]1([C:7]([H:14])([H:15])[H:16])[H:13])([H:8])([H:9])[H:10]>>[C:1](/[C:2](=[N+:3](\[C:4]([O-:5])=[C:6]([C:7]([H:14])([H:15])[H:16])[H:13])[H:12])[H:11])([H:8])([H:9])[H:10]"
C        1.69302704      -0.91315102       0.02776788
C        0.79674878      -0.41248689       1.11099088
N        0.57242230       0.89822265       1.30972267
C       -0.40306737       1.34343441       0.30674937
O       -0.38189518       2.48392382      -0.10321424
C       -1.02591342       0.11150255      -0.05791581
C       -1.61075440      -0.03522777      -1.43317621
H        1.66928465      -0.24313566      -0.83032566
H        1.37725136      -1.91113569      -0.28207285
H        2.71532055      -1.00561057       0.40480675
H        0.81270332      -1.01639261       2.02052402
H        0.62739981       1.35754356       2.20530024
H       -1.53859041      -0.44343329       0.71970860
H       -1.06195423       0.56692003      -2.15845956
H       -2.65447157       0.29089921      -1.46203203
H       -1.58751123      -1.07187273      -1.77837405
16
Frame=11 idx=010635 GeodesicLength=0.5662551047097617 rxn_smarts="[C:1]([C@@:2]1([H:11])[N:3]([H:12])[C:4](=[O:5])[C@:6]1([C:7]([H:14])([H:15])[H:16])[H:13])([H:8])([H:9])[H:10]>>[C:1](/[C:2](=[N+:3](\[C:4]([O-:5])=[C:6]([C:7]([H:14])([H:15])[H:16])[H:13])[H:12])[H:11])([H:8])([H:9])[H:10]"
C        1.68129799      -0.92409842       0.02521227
C        0.78766680      -0.41085609       1.10514208
N        0.57652645       0.90533814       1.29880437
C       -0.42344443       1.35076440       0.32423140
O       -0.42739105       2.50012712      -0.06117944
C       -1.02254689       0.10838046      -0.05232273
C       -1.59304447      -0.03654854      -1.43485160
H        1.65200236      -0.26446924      -0.84082596
H        1.36327749      -1.92572348      -0.27108954
H        2.70498111      -1.01369594       0.39800010
H        0.81383296      -1.00349843       2.02196696
H        0.67458250       1.37983871       2.18286134
H       -1.54848413      -0.45011501       0.71420388
H       -1.04516779       0.57774367      -2.15055999
H       -2.64038971       0.27640305      -1.47029940
H       -1.55369919      -1.06959041      -1.78929374
16
Frame=12 idx=010635 GeodesicLength=0.6131374400421511 rxn_smarts="[C:1]([C@@:2]1([H:11])[N:3]([H:12])[C:4](=[O:5])[C@:6]1([C:7]([H:14])([H:15])[H:16])[H:13])([H:8])([H:9])[H:10]>>[C:1](/[C:2](=[N+:3](\[C:4]([O-:5])=[C:6]([C:7]([H:14])([H:15])[H:16])[H:13])[H:12])[H:11])([H:8])([H:9])[H:10]"
C        1.66996883      -0.93535977       0.02342533
C        0.77904857      -0.40895495       1.09967678
N        0.58055431       0.91269821       1.28702330
C       -0.44434318       1.35709247       0.34212705
O       -0.47407416       2.51447381      -0.01783138
C       -1.01896680       0.10474368      -0.04709523
C       -1.57571957      -0.03694357      -1.43665255
H        1.63498492      -0.28680089      -0.85083792
H        1.34983666      -1.94066837      -0.25864108
H        2.69505954      -1.02178132       0.39191713
H        0.81545807      -0.98971324       2.02388498
H        0.72184029       1.40251705       2.15692959
H       -1.55753981      -0.45839107       0.70758903
H       -1.02885190       0.58961489      -2.14241442
H       -2.62633849       0.26336613      -1.47824067
H       -1.52091728      -1.06589307      -1.80085993
16
Frame=13 idx=010635 GeodesicLength=0.6596403587313144 rxn_smarts="[C:1]([C@@:2]1([H:11])[N:3]([H:12])[C:4](=[O:5])[C@:6]1([C:7]([H:14])([H:15])[H:16])[H:13])([H:8])([H:9])[H:10]>>[C:1](/[C:2](=[N+:3](\[C:4]([O-:5])=[C:6]([C:7]([H:14])([H:15])[H:16])[H:13])[H:12])[H:11])([H:8])([H:9])[H:10]"
C        1.65888265      -0.94706016       0.02238691
C        0.77089502      -0.40675141       1.09461091
N        0.58458185       0.92038701       1.27426389
C       -0.46588769       1.36243884       0.36064323
O       -0.52219461       2.52695877       0.02720888
C       -1.01524283       0.10066317      -0.04215540
C       -1.55862240      -0.03637916      -1.43862005
H        1.61798601      -0.31034586      -0.86042389
H        1.33668992      -1.95609953      -0.24458961
H        2.68544681      -1.03002013       0.38642170
H        0.81770881      -0.97487168       2.02635806
H        0.76933218       1.42576418       2.12717160
H       -1.56574349      -0.46830474       0.69989106
H       -1.01290875       0.60276250      -2.13391353
H       -2.61226158       0.25157180      -1.48604135
H       -1.48866191      -1.06071360      -1.81321241
16
Frame=14 idx=010635 GeodesicLength=0.7059412638557284 rxn_smarts="[C:1]([C@@:2]1([H:11])[N:3]([H:12])[C:4](=[O:5])[C@:6]1([C:7]([H:14])([H:15])[H:16])[H:13])([H:8])([H:9])[H:10]>>[C:1](/[C:2](=[N+:3](\[C:4]([O-:5])=[C:6]([C:7]([H:14])([H:15])[H:16])[H:13])[H:12])[H:11])([H:8])([H:9])[H:10]"
C        1.64786319      -0.95928697       0.02209283
C        0.76312473      -0.40419915       1.08988443
N        0.58861582       0.92840926       1.26028143
C       -0.48819911       1.36670462       0.37998366
O       -0.57182238       2.53734977       0.07429719
C       -1.01142410       0.09620068      -0.03744227
C       -1.54155119      -0.03474947      -1.44070204
H        1.60065604      -0.33546392      -0.86966436
H        1.32373369      -1.97212189      -0.22858039
H        2.67601069      -1.03832546       0.38131961
H        0.82063955      -0.95869538       2.02935766
H        0.81706053       1.44957569       2.09306080
H       -1.57308607      -0.47987855       0.69107735
H       -0.99720367       0.61745777      -2.12482104
H       -2.59802904       0.24082828      -1.49373759
H       -1.45638866      -1.05380531      -1.82640727
16
Frame=15 idx=010635 GeodesicLength=0.751770709651153 rxn_smarts="[C:1]([C@@:2]1([H:11])[N:3]([H:12])[C:4](=[O:5])[C@:6]1([C:7]([H:14])([H:15])[H:16])[H:13])([H:8])([H:9])[H:10]>>[C:1](/[C:2](=[N+:3](\[C:4]([O-:5])=[C:6]([C:7]([H:14])([H:15])[H:16])[H:13])[H:12])[H:11])([H:8])([H:9])[H:10]"
C        1.63716495      -0.97200875       0.02266838
C        0.75589174      -0.40131946       1.08553303
N        0.59263969       0.93674993       1.24503105
C       -0.51112667       1.36973284       0.40006006
O       -0.62269493       2.54540689       0.12331914
C       -1.00736589       0.09123019      -0.03307650
C       -1.52476701      -0.03198435      -1.44292956
H        1.58338873      -0.36204516      -0.87836158
H        1.31120631      -1.98862802      -0.21067391
H        2.66695131      -1.04676922       0.37687403
H        0.82429308      -0.94123767       2.03288402
H        0.86434121       1.47398627       2.05449172
H       -1.57939428      -0.49318690       0.68107067
H       -0.98179856       0.63350106      -2.11523984
H       -2.58378887       0.23173065      -1.50119865
H       -1.42494082      -1.04515827      -1.84045205
16
Frame=16 idx=010635 GeodesicLength=0.7973226543735894 rxn_smarts="[C:1]([C@@:2]1([H:11])[N:3]([H:12])[C:4](=[O:5])[C@:6]1([C:7]([H:14])([H:15])[H:16])[H:13])([H:8])([H:9])[H:10]>>[C:1](/[C:2](=[N+:3](\[C:4]([O-:5])=[C:6]([C:7]([H:14])([H:15])[H:16])[H:13])[H:12])[H:11])([H:8])([H:9])[H:10]"
C        1.62666210      -0.98541244       0.02417372
C        0.74920105      -0.39807494       1.08156594
N        0.59671058       0.94547964       1.22825818
C       -0.53480155       1.37145357       0.42110833
O       -0.67502056       2.55099791       0.17477461
C       -1.00311679       0.08579263      -0.02905067
C       -1.50815942      -0.02793759      -1.44536586
H        1.56582672      -0.39056982      -0.88657851
H        1.29905316      -2.00587241      -0.19041184
H        2.65822081      -1.05536856       0.37296979
H        0.82887665      -0.92220062       2.03702586
H        0.91121695       1.49914640       2.01094375
H       -1.58459987      -0.50833774       0.66977752
H       -0.96670633       0.65129158      -2.10502358
H       -2.56953389       0.22412068      -1.50856499
H       -1.39382959      -1.03450830      -1.85560226
