12
Frame=0 idx=009375 GeodesicLength=0.0 rxn_smarts="[O:1]=[C:2]1[C:3]([H:8])([H:9])[C:4]([C:6]#[N:7])([H:10])[C:5]1([H:11])[H:12]>>[O-:1][N+:7]#[C:6][C:4]1([H:10])[C:3]([H:8])([H:9])[C:2][C:5]1([H:11])[H:12]"
O       -0.29952900       0.25861629       2.13106839
C       -1.20003348      -0.09432302       0.43411719
C       -0.51818625       0.93183144      -0.45577696
C        0.73804219       0.01299400      -0.59023065
C       -0.25288658      -1.11887357      -0.16858924
C        1.53625413       0.29536223       0.68921100
N        0.83861918       0.33727216       1.63818850
H       -1.05904184       0.92093783      -1.40767047
H       -0.42480598       1.96203982      -0.11685829
H        1.30428789      -0.04251410      -1.51815554
H        0.08212526      -1.96160927       0.43336443
H       -0.74484553      -1.50173381      -1.06866837
12
Frame=1 idx=009375 GeodesicLength=0.14625267858704072 rxn_smarts="[O:1]=[C:2]1[C:3]([H:8])([H:9])[C:4]([C:6]#[N:7])([H:10])[C:5]1([H:11])[H:12]>>[O-:1][N+:7]#[C:6][C:4]1([H:10])[C:3]([H:8])([H:9])[C:2][C:5]1([H:11])[H:12]"
O       -0.30929254       0.25986918       2.14755827
C       -1.19322185      -0.09375053       0.43208699
C       -0.52539962       0.93429405      -0.46255899
C        0.73237172       0.01341254      -0.58188078
C       -0.25898050      -1.12480235      -0.17420756
C        1.53912684       0.29543810       0.68694675
N        0.86907600       0.34343128       1.65434854
H       -1.05619623       0.92771055      -1.41976860
H       -0.42923331       1.96333770      -0.12116014
H        1.29332654      -0.04320970      -1.51230547
H        0.07839741      -1.96520490       0.42953585
H       -0.73997447      -1.51052593      -1.07859485
12
Frame=2 idx=009375 GeodesicLength=0.29249200543277315 rxn_smarts="[O:1]=[C:2]1[C:3]([H:8])([H:9])[C:4]([C:6]#[N:7])([H:10])[C:5]1([H:11])[H:12]>>[O-:1][N+:7]#[C:6][C:4]1([H:10])[C:3]([H:8])([H:9])[C:2][C:5]1([H:11])[H:12]"
O       -0.31960510       0.26109008       2.16425823
C       -1.18642049      -0.09317085       0.43012957
C       -0.53281758       0.93664537      -0.46944180
C        0.72653310       0.01383641      -0.57332952
C       -0.26529564      -1.13070858      -0.17994687
C        1.54189680       0.29551027       0.68475854
N        0.90086586       0.34973906       1.67035761
H       -1.05318440       0.93449042      -1.43201344
H       -0.43384137       1.96451079      -0.12554517
H        1.28233783      -0.04386459      -1.50615614
H        0.07446819      -1.96875644       0.42559742
H       -0.73493719      -1.51932193      -1.08866843
12
Frame=3 idx=009375 GeodesicLength=0.4387160199412148 rxn_smarts="[O:1]=[C:2]1[C:3]([H:8])([H:9])[C:4]([C:6]#[N:7])([H:10])[C:5]1([H:11])[H:12]>>[O-:1][N+:7]#[C:6][C:4]1([H:10])[C:3]([H:8])([H:9])[C:2][C:5]1([H:11])[H:12]"
O       -0.33054771       0.26226780       2.18117310
C       -1.17965102      -0.09258792       0.42823730
C       -0.54044520       0.93887778      -0.47641646
C        0.72052135       0.01426583      -0.56456994
C       -0.27183927      -1.13658418      -0.18580059
C        1.54455887       0.29557771       0.68264799
N        0.93408921       0.35620331       1.68616275
H       -1.04998105       0.94129038      -1.44439873
H       -0.43863967       1.96555237      -0.13000524
H        1.27131502      -0.04447940      -1.49970503
H        0.07032625      -1.97225791       0.42155542
H       -0.72970678      -1.52812576      -1.09888058
12
Frame=4 idx=009375 GeodesicLength=0.5849231861610249 rxn_smarts="[O:1]=[C:2]1[C:3]([H:8])([H:9])[C:4]([C:6]#[N:7])([H:10])[C:5]1([H:11])[H:12]>>[O-:1][N+:7]#[C:6][C:4]1([H:10])[C:3]([H:8])([H:9])[C:2][C:5]1([H:11])[H:12]"
O       -0.34221471       0.26339375       2.19830644
C       -1.17293741      -0.09200633       0.42640128
C       -0.54828748       0.94098393      -0.48347346
C        0.71433147       0.01470103      -0.55559499
C       -0.27861794      -1.14242110      -0.19176155
C        1.54710669       0.29564076       0.68061688
N        0.96885938       0.36282669       1.70170355
H       -1.04655966       0.94812541      -1.45691607
H       -0.44363823       1.96645557      -0.13452996
H        1.26025100      -0.04505462      -1.49294970
H        0.06596042      -1.97570273       0.41741815
H       -0.72425352      -1.53694236      -1.10922057
12
Frame=5 idx=009375 GeodesicLength=0.7311120122600173 rxn_smarts="[O:1]=[C:2]1[C:3]([H:8])([H:9])[C:4]([C:6]#[N:7])([H:10])[C:5]1([H:11])[H:12]>>[O-:1][N+:7]#[C:6][C:4]1([H:10])[C:3]([H:8])([H:9])[C:2][C:5]1([H:11])[H:12]"
O       -0.35471428       0.26444856       2.21566152
C       -1.16630614      -0.09143089       0.42461102
C       -0.55634829       0.94295692      -0.49060277
C        0.70795837       0.01514220      -0.54639723
C       -0.28563831      -1.14821151      -0.19782200
C        1.54953301       0.29569650       0.67866818
N        1.00530281       0.36962416       1.71690842
H       -1.04289065       0.95501286      -1.46955501
H       -0.44884637       1.96721338      -0.13910650
H        1.24913837      -0.04559108      -1.48588723
H        0.06135837      -1.97908356       0.41319638
H       -0.71854690      -1.54577753      -1.11967479
12
Frame=6 idx=009375 GeodesicLength=0.8772800623003654 rxn_smarts="[O:1]=[C:2]1[C:3]([H:8])([H:9])[C:4]([C:6]#[N:7])([H:10])[C:5]1([H:11])[H:12]>>[O-:1][N+:7]#[C:6][C:4]1([H:10])[C:3]([H:8])([H:9])[C:2][C:5]1([H:11])[H:12]"
O       -0.36817414       0.26542356       2.23323911
C       -1.15978596      -0.09086737       0.42285473
C       -0.56463183       0.94479050      -0.49779383
C        0.70139669       0.01558977      -0.53696855
C       -0.29290520      -1.15394774      -0.20397337
C        1.55182828       0.29574707       0.67680511
N        1.04356449       0.37659262       1.73169526
H       -1.03894428       0.96197210      -1.48230207
H       -0.45427478       1.96781889      -0.14371931
H        1.23796932      -0.04608902      -1.47851398
H        0.05650910      -1.98239229       0.40890349
H       -0.71255169      -1.55463810      -1.13022660
12
Frame=7 idx=009375 GeodesicLength=1.0234251265596765 rxn_smarts="[O:1]=[C:2]1[C:3]([H:8])([H:9])[C:4]([C:6]#[N:7])([H:10])[C:5]1([H:11])[H:12]>>[O-:1][N+:7]#[C:6][C:4]1([H:10])[C:3]([H:8])([H:9])[C:2][C:5]1([H:11])[H:12]"
O       -0.38274186       0.26629713       2.25103962
C       -1.15340838      -0.09032188       0.42111886
C       -0.57314075       0.94647921      -0.50503558
C        0.69464107       0.01604417      -0.52729980
C       -0.30042342      -1.15962277      -0.21020663
C        1.55398155       0.29579055       0.67503348
N        1.08380846       0.38374417       1.74596598
H       -1.03468753       0.96902501      -1.49514108
H       -0.45993312       1.96826508      -0.14834959
H        1.22673627      -0.04654870      -1.47082512
H        0.05140014      -1.98562015       0.40455589
H       -0.70623242      -1.56353184      -1.14085603
12
Frame=8 idx=009375 GeodesicLength=1.1695466615698715 rxn_smarts="[O:1]=[C:2]1[C:3]([H:8])([H:9])[C:4]([C:6]#[N:7])([H:10])[C:5]1([H:11])[H:12]>>[O-:1][N+:7]#[C:6][C:4]1([H:10])[C:3]([H:8])([H:9])[C:2][C:5]1([H:11])[H:12]"
O       -0.39859108       0.26704683       2.26906140
C       -1.14720792      -0.08980119       0.41938819
C       -0.58187714       0.94801859      -0.51231660
C        0.68768614       0.01650606      -0.51738049
C       -0.30819651      -1.16523013      -0.21651208
C        1.55597950       0.29582652       0.67336201
N        1.12622473       0.39108763       1.75960592
H       -1.03008635       0.97619578      -1.50805286
H       -0.46583158       1.96854502      -0.15297493
H        1.21543244      -0.04697016      -1.46281437
H        0.04601903      -1.98875746       0.40017351
H       -0.69955126      -1.57246748      -1.15153970
12
Frame=9 idx=009375 GeodesicLength=1.3156497515484895 rxn_smarts="[O:1]=[C:2]1[C:3]([H:8])([H:9])[C:4]([C:6]#[N:7])([H:10])[C:5]1([H:11])[H:12]>>[O-:1][N+:7]#[C:6][C:4]1([H:10])[C:3]([H:8])([H:9])[C:2][C:5]1([H:11])[H:12]"
O       -0.41592995       0.26764903       2.28730107
C       -1.14122117      -0.08931242       0.41764520
C       -0.59084173       0.94940577      -0.51962459
C        0.68052562       0.01697626      -0.50719717
C       -0.31622530      -1.17076358      -0.22287843
C        1.55780425       0.29585532       0.67180183
N        1.17103386       0.39862598       1.77247274
H       -1.02510431       0.98351158      -1.52101323
H       -0.47198053       1.96865202      -0.15756885
H        1.20404996      -0.04735323      -1.45447086
H        0.04035489      -1.99179279       0.39578069
H       -0.69246558      -1.58145395      -1.16224843
12
Frame=10 idx=009375 GeodesicLength=1.4617211465256412 rxn_smarts="[O:1]=[C:2]1[C:3]([H:8])([H:9])[C:4]([C:6]#[N:7])([H:10])[C:5]1([H:11])[H:12]>>[O-:1][N+:7]#[C:6][C:4]1([H:10])[C:3]([H:8])([H:9])[C:2][C:5]1([H:11])[H:12]"
O       -0.43499640       0.26806847       2.30575126
C       -1.13548817      -0.08886407       0.41587135
C       -0.60003369       0.95063864      -0.52694640
C        0.67315294       0.01745635      -0.49673319
C       -0.32451149      -1.17621870      -0.22929431
C        1.55943395       0.29587560       0.67037225
N        1.21849045       0.40637616       1.78439828
H       -1.01970057       0.99100131      -1.53399469
H       -0.47839050       1.96857913      -0.16209980
H        1.19258410      -0.04769581      -1.44577980
H        0.03439202      -1.99471547       0.39140550
H       -0.68493263      -1.59050161      -1.17295045
12
Frame=11 idx=009375 GeodesicLength=1.6077568540769287 rxn_smarts="[O:1]=[C:2]1[C:3]([H:8])([H:9])[C:4]([C:6]#[N:7])([H:10])[C:5]1([H:11])[H:12]>>[O-:1][N+:7]#[C:6][C:4]1([H:10])[C:3]([H:8])([H:9])[C:2][C:5]1([H:11])[H:12]"
O       -0.45607770       0.26827190       2.32439986
C       -1.13005332      -0.08846400       0.41404566
C       -0.60945278       0.95171745      -0.53426897
C        0.66556131       0.01794798      -0.48596715
C       -0.33305305      -1.18159063      -0.23574632
C        1.56084057       0.29588956       0.66910105
N        1.26890032       0.41433880       1.79517986
H       -1.01383542       0.99869677      -1.54696616
H       -0.48507611       1.96832017      -0.16653185
H        1.18103263      -0.04799636      -1.43672034
H        0.02811735      -1.99751176       0.38708263
H       -0.67690380      -1.59961988      -1.18360828
12
Frame=12 idx=009375 GeodesicLength=1.7537512641083193 rxn_smarts="[O:1]=[C:2]1[C:3]([H:8])([H:9])[C:4]([C:6]#[N:7])([H:10])[C:5]1([H:11])[H:12]>>[O-:1][N+:7]#[C:6][C:4]1([H:10])[C:3]([H:8])([H:9])[C:2][C:5]1([H:11])[H:12]"
O       -0.47951714       0.26820977       2.34323006
C       -1.12496471      -0.08812295       0.41214526
C       -0.61909435       0.95264367      -0.54157631
C        0.65774289       0.01845436      -0.47487051
C       -0.34184777      -1.18687724      -0.24221989
C        1.56198730       0.29589683       0.66802963
N        1.32262499       0.42253345       1.80456152
H       -1.00746146       1.00663176      -1.55988919
H       -0.49204870       1.96786863      -0.17082090
H        1.16939592      -0.04824940      -1.42726216
H        0.02151286      -2.00016899       0.38285166
H       -0.66832982      -1.60881989      -1.19417917
12
Frame=13 idx=009375 GeodesicLength=1.899702859354187 rxn_smarts="[O:1]=[C:2]1[C:3]([H:8])([H:9])[C:4]([C:6]#[N:7])([H:10])[C:5]1([H:11])[H:12]>>[O-:1][N+:7]#[C:6][C:4]1([H:10])[C:3]([H:8])([H:9])[C:2][C:5]1([H:11])[H:12]"
O       -0.50572980       0.26782955       2.36221741
C       -1.12027788      -0.08785075       0.41014513
C       -0.62895482       0.95342170      -0.54885237
C        0.64968981       0.01897953      -0.46340525
C       -0.35088979      -1.19207599      -0.24869766
C        1.56282580       0.29590212       0.66722052
N        1.38010674       0.43096354       1.81222828
H       -1.00053202       1.01484240      -1.57272232
H       -0.49932629       1.96721920      -0.17491711
H        1.15768196      -0.04844897      -1.41736320
H        0.01456137      -2.00267146       0.37876129
H       -0.65915506      -1.61811087      -1.20461472
12
Frame=14 idx=009375 GeodesicLength=2.045604720326184 rxn_smarts="[O:1]=[C:2]1[C:3]([H:8])([H:9])[C:4]([C:6]#[N:7])([H:10])[C:5]1([H:11])[H:12]>>[O-:1][N+:7]#[C:6][C:4]1([H:10])[C:3]([H:8])([H:9])[C:2][C:5]1([H:11])[H:12]"
O       -0.53522059       0.26706301       2.38132543
C       -1.11605465      -0.08765945       0.40801788
C       -0.63902666       0.95405839      -0.55607689
C        0.64139196       0.01952978      -0.45151812
C       -0.36017090      -1.19718606      -0.25515845
C        1.56328835       0.29591084       0.66676583
N        1.44188217       0.43963803       1.81776965
H       -0.99299105       1.02336705      -1.58541478
H       -0.50692800       1.96636720      -0.17876064
H        1.14590542      -0.04858401      -1.40696044
H        0.00724099      -2.00500352       0.37486886
H       -0.64931705      -1.62750127      -1.21485835
12
Frame=15 idx=009375 GeodesicLength=2.1914546972769826 rxn_smarts="[O:1]=[C:2]1[C:3]([H:8])([H:9])[C:4]([C:6]#[N:7])([H:10])[C:5]1([H:11])[H:12]>>[O-:1][N+:7]#[C:6][C:4]1([H:10])[C:3]([H:8])([H:9])[C:2][C:5]1([H:11])[H:12]"
O       -0.56860942       0.26581721       2.40050155
C       -1.11236934      -0.08756400       0.40573299
C       -0.64929875       0.95456247      -0.56322442
C        0.63283861       0.02011286      -0.43913399
C       -0.36968121      -1.20220787      -0.26157797
C        1.56328168       0.29592235       0.66680821
N        1.50861877       0.44858690       1.82064689
H       -0.98477181       1.03224626      -1.59790746
H       -0.51487710       1.96530691      -0.18227771
H        1.13409693      -0.04863807      -1.39596193
H       -0.00047818      -2.00714942       0.37124119
H       -0.63875018      -1.63699560      -1.22484737
12
Frame=16 idx=009375 GeodesicLength=2.337245959510946 rxn_smarts="[O:1]=[C:2]1[C:3]([H:8])([H:9])[C:4]([C:6]#[N:7])([H:10])[C:5]1([H:11])[H:12]>>[O-:1][N+:7]#[C:6][C:4]1([H:10])[C:3]([H:8])([H:9])[C:2][C:5]1([H:11])[H:12]"
O       -0.60667101       0.26399622       2.41966426
C       -1.10931141      -0.08757935       0.40325555
C       -0.65975839       0.95494763      -0.57026624
C        0.62401587       0.02074479      -0.42614448
C       -0.37940181      -1.20713989      -0.26792112
C        1.56266556       0.29596566       0.66756119
N        1.58116197       0.45777665       1.82013775
H       -0.97580263       1.04151809      -1.61013175
H       -0.52321154       1.96403728      -0.18538630
H        1.12230751      -0.04858396      -1.38422986
H       -0.00862920      -2.00908904       0.36796568
H       -0.62736492      -1.64659408      -1.23450468
