14
Frame=0 idx=001722 GeodesicLength=0.0 rxn_smarts="[O:1]([C@@:2]1([H:8])[C:3]([H:9])([H:10])[C:4]([H:11])([H:12])[O:5][C:6]1([H:13])[H:14])[H:7]>>[C@@:2]12([H:8])[C:3]([H:9])([H:10])[C@:4]1([H:12])[O:5][C:6]2([H:13])[H:14].[O:1]([H:7])[H:11]"
O        0.19498932      -1.75069285      -0.89070708
C        0.35053723       0.34496149      -0.69395817
C       -1.08505836       0.61571349      -0.38632111
C       -0.89991599      -0.16429880       0.89102567
O        0.17491419       0.50562209       1.57547042
C        1.10399538       0.64939563       0.54578446
H        0.98967546      -2.25564961      -0.68302763
H        0.81918048       0.34006357      -1.66926175
H       -1.76010052       0.13698912      -1.09404749
H       -1.31184446       1.69792801      -0.33197025
H       -0.27546695      -1.45318957       0.02267601
H       -1.74114911      -0.35797245       1.54949800
H        1.46644935       1.68702098       0.46406734
H        1.97379392       0.00410892       0.70077158
14
Frame=1 idx=001722 GeodesicLength=0.09723980680747521 rxn_smarts="[O:1]([C@@:2]1([H:8])[C:3]([H:9])([H:10])[C:4]([H:11])([H:12])[O:5][C:6]1([H:13])[H:14])[H:7]>>[C@@:2]12([H:8])[C:3]([H:9])([H:10])[C@:4]1([H:12])[O:5][C:6]2([H:13])[H:14].[O:1]([H:7])[H:11]"
O        0.21240042      -1.76116646      -0.88008854
C        0.34425578       0.33972096      -0.69738805
C       -1.08839582       0.63068600      -0.39109252
C       -0.90346930      -0.16134491       0.87736139
O        0.18745575       0.46322864       1.57297129
C        1.10591035       0.64682546       0.53818036
H        1.00277414      -2.26467457      -0.65490918
H        0.80522705       0.35060096      -1.67631810
H       -1.76734587       0.16131950      -1.10116649
H       -1.30579879       1.71247104      -0.32093527
H       -0.28129584      -1.46757920       0.04951249
H       -1.74717101      -0.35520762       1.53251246
H        1.44861062       1.69193568       0.47538835
H        1.98684254       0.01318453       0.67597182
14
Frame=2 idx=001722 GeodesicLength=0.19438816564499878 rxn_smarts="[O:1]([C@@:2]1([H:8])[C:3]([H:9])([H:10])[C:4]([H:11])([H:12])[O:5][C:6]1([H:13])[H:14])[H:7]>>[C@@:2]12([H:8])[C:3]([H:9])([H:10])[C@:4]1([H:12])[O:5][C:6]2([H:13])[H:14].[O:1]([H:7])[H:11]"
O        0.23030617      -1.77153367      -0.86952531
C        0.33786062       0.33449585      -0.70112868
C       -1.09158964       0.64572441      -0.39575130
C       -0.90651991      -0.15853708       0.86361033
O        0.19956763       0.42085490       1.56879513
C        1.10753866       0.64424225       0.53048227
H        1.01593045      -2.27350570      -0.62651437
H        0.79130121       0.36117576      -1.68330320
H       -1.77472370       0.18609331      -1.10798833
H       -1.29974609       1.72675519      -0.30983064
H       -0.28737598      -1.48195111       0.07674469
H       -1.75249396      -0.35229354       1.51576176
H        1.43083271       1.69599290       0.48730169
H        1.99911183       0.02248653       0.65134598
14
Frame=3 idx=001722 GeodesicLength=0.2914618194605368 rxn_smarts="[O:1]([C@@:2]1([H:8])[C:3]([H:9])([H:10])[C:4]([H:11])([H:12])[O:5][C:6]1([H:13])[H:14])[H:7]>>[C@@:2]12([H:8])[C:3]([H:9])([H:10])[C@:4]1([H:12])[O:5][C:6]2([H:13])[H:14].[O:1]([H:7])[H:11]"
O        0.24874478      -1.78175594      -0.85908206
C        0.33135418       0.32930459      -0.70517811
C       -1.09464390       0.66078686      -0.40027478
C       -0.90904549      -0.15593024       0.84978049
O        0.21116044       0.37883589       1.56297911
C        1.10888898       0.64163699       0.52269935
H        1.02912184      -2.28213057      -0.59788504
H        0.77740349       0.37184478      -1.69022007
H       -1.78221656       0.21125350      -1.11448346
H       -1.29373031       1.74073622      -0.29864957
H       -0.29374841      -1.49629467       0.10435130
H       -1.75709838      -0.34931291       1.49925049
H        1.41327362       1.69914152       0.49968441
H        2.01053573       0.03188397       0.62702796
14
Frame=4 idx=001722 GeodesicLength=0.3884693090538055 rxn_smarts="[O:1]([C@@:2]1([H:8])[C:3]([H:9])([H:10])[C:4]([H:11])([H:12])[O:5][C:6]1([H:13])[H:14])[H:7]>>[C@@:2]12([H:8])[C:3]([H:9])([H:10])[C@:4]1([H:12])[O:5][C:6]2([H:13])[H:14].[O:1]([H:7])[H:11]"
O        0.26775341      -1.79179793      -0.84881820
C        0.32473747       0.32416141      -0.70953281
C       -1.09756177       0.67583525      -0.40464091
C       -0.91104299      -0.15358143       0.83587038
O        0.22215965       0.33747303       1.55560006
C        1.10997193       0.63900217       0.51483569
H        1.04232706      -2.29053661      -0.56905354
H        0.76353015       0.38265803      -1.69706883
H       -1.78980330       0.23675179      -1.12062841
H       -1.28778553       1.75437671      -0.28737517
H       -0.30044719      -1.51059834       0.13232162
H       -1.76099026      -0.34634745       1.48296511
H        1.39607820       1.70134843       0.51240268
H        2.02107317       0.04125492       0.60312232
14
Frame=5 idx=001722 GeodesicLength=0.48550009105559633 rxn_smarts="[O:1]([C@@:2]1([H:8])[C:3]([H:9])([H:10])[C:4]([H:11])([H:12])[O:5][C:6]1([H:13])[H:14])[H:7]>>[C@@:2]12([H:8])[C:3]([H:9])([H:10])[C@:4]1([H:12])[O:5][C:6]2([H:13])[H:14].[O:1]([H:7])[H:11]"
O        0.28738217      -1.80162305      -0.83881010
C        0.31801590       0.31907121      -0.71418769
C       -1.10034568       0.69083117      -0.40883346
C       -0.91252150      -0.15154192       0.82187769
O        0.23250461       0.29704109       1.54676588
C        1.11080375       0.63632923       0.50689375
H        1.05549931      -2.29872808      -0.54007164
H        0.74967948       0.39366874      -1.70384508
H       -1.79745958       0.26253538      -1.12640711
H       -1.28193691       1.76763993      -0.27599332
H       -0.30749757      -1.52485312       0.16068122
H       -1.76419275      -0.34346460       1.46688711
H        1.37936327       1.70260542       0.52532448
H        2.03070552       0.05048858       0.57971827
14
Frame=6 idx=001722 GeodesicLength=0.5825503250157774 rxn_smarts="[O:1]([C@@:2]1([H:8])[C:3]([H:9])([H:10])[C:4]([H:11])([H:12])[O:5][C:6]1([H:13])[H:14])[H:7]>>[C@@:2]12([H:8])[C:3]([H:9])([H:10])[C@:4]1([H:12])[O:5][C:6]2([H:13])[H:14].[O:1]([H:7])[H:11]"
O        0.30766728      -1.81120135      -0.82910372
C        0.31119284       0.31403981      -0.71913808
C       -1.10299568       0.70574439      -0.41283715
C       -0.91350805      -0.14986584       0.80778380
O        0.24216279       0.25774064       1.53660184
C        1.11140112       0.63361661       0.49886737
H        1.06860124      -2.30670509      -0.51096266
H        0.73584769       0.40491308      -1.71054380
H       -1.80515630       0.28857106      -1.13181269
H       -1.27620338       1.78049573      -0.26447375
H       -0.31492441      -1.53904232       0.18945451
H       -1.76675040      -0.34072656       1.45097704
H        1.36321899       1.70292253       0.53832825
H        2.03944627       0.05949732       0.55685903
14
Frame=7 idx=001722 GeodesicLength=0.6796236872461112 rxn_smarts="[O:1]([C@@:2]1([H:8])[C:3]([H:9])([H:10])[C:4]([H:11])([H:12])[O:5][C:6]1([H:13])[H:14])[H:7]>>[C@@:2]12([H:8])[C:3]([H:9])([H:10])[C@:4]1([H:12])[O:5][C:6]2([H:13])[H:14].[O:1]([H:7])[H:11]"
O        0.32864681      -1.82050607      -0.81974051
C        0.30427679       0.30906716      -0.72437949
C       -1.10550990       0.72054723      -0.41664375
C       -0.91403498      -0.14860292       0.79356516
O        0.25112036       0.21971898       1.52524795
C        1.11178414       0.63086400       0.49075115
H        1.08157440      -2.31448075      -0.48176515
H        0.72203481       0.41641819      -1.71715696
H       -1.81286121       0.31482724      -1.13684756
H       -1.27059533       1.79291781      -0.25278768
H       -0.32274962      -1.55314459       0.21868739
H       -1.76871317      -0.33818013       1.43519453
H        1.34769739       1.70233398       0.55130511
H        2.04732950       0.06821987       0.53456983
14
Frame=8 idx=001722 GeodesicLength=0.7767436629626587 rxn_smarts="[O:1]([C@@:2]1([H:8])[C:3]([H:9])([H:10])[C:4]([H:11])([H:12])[O:5][C:6]1([H:13])[H:14])[H:7]>>[C@@:2]12([H:8])[C:3]([H:9])([H:10])[C@:4]1([H:12])[O:5][C:6]2([H:13])[H:14].[O:1]([H:7])[H:11]"
O        0.35036012      -1.82950917      -0.81077276
C        0.29727497       0.30415162      -0.72990988
C       -1.10788440       0.73521368      -0.42024696
C       -0.91414247      -0.14779485       0.77919371
O        0.25937830       0.18307393       1.51284128
C        1.11197160       0.62807000       0.48253527
H        1.09436186      -2.32206780      -0.45249976
H        0.70824001       0.42821046      -1.72367779
H       -1.82054013       0.34127704      -1.14151682
H       -1.26511820       1.80487603      -0.24090338
H       -0.33099712      -1.56713864       0.24844556
H       -1.77013848      -0.33585431       1.41949517
H        1.33283227       1.70087831       0.56416484
H        2.05440166       0.07661370       0.51285153
14
Frame=9 idx=001722 GeodesicLength=0.8742472871837766 rxn_smarts="[O:1]([C@@:2]1([H:8])[C:3]([H:9])([H:10])[C:4]([H:11])([H:12])[O:5][C:6]1([H:13])[H:14])[H:7]>>[C@@:2]12([H:8])[C:3]([H:9])([H:10])[C@:4]1([H:12])[O:5][C:6]2([H:13])[H:14].[O:1]([H:7])[H:11]"
O        0.37288519      -1.83815913      -0.80233716
C        0.29020878       0.29929529      -0.73571038
C       -1.11013595       0.74971309      -0.42368564
C       -0.91386513      -0.14742132       0.76467264
O        0.26698570       0.14779214       1.49950476
C        1.11199356       0.62522524       0.47422276
H        1.10683968      -2.32950287      -0.42325247
H        0.69448652       0.44035324      -1.73007091
H       -1.82817302       0.36782153      -1.14584580
H       -1.25978837       1.81634883      -0.22887714
H       -0.33965770      -1.58101168       0.27893255
H       -1.77107033      -0.33368998       1.40387436
H        1.31858676       1.69859102       0.57689251
H        2.06070430       0.08464459       0.49167995
14
Frame=10 idx=001722 GeodesicLength=0.9718045910210829 rxn_smarts="[O:1]([C@@:2]1([H:8])[C:3]([H:9])([H:10])[C:4]([H:11])([H:12])[O:5][C:6]1([H:13])[H:14])[H:7]>>[C@@:2]12([H:8])[C:3]([H:9])([H:10])[C@:4]1([H:12])[O:5][C:6]2([H:13])[H:14].[O:1]([H:7])[H:11]"
O        0.39625337      -1.84644523      -0.79438755
C        0.28308527       0.29449006      -0.74179358
C       -1.11224028       0.76402711      -0.42692537
C       -0.91324835      -0.14756968       0.74994273
O        0.27394055       0.11393295       1.48537605
C        1.11185752       0.62234968       0.46579625
H        1.11895819      -2.33680396      -0.39401983
H        0.68076769       0.45282033      -1.73634507
H       -1.83571390       0.39449658      -1.14983413
H       -1.25459907       1.82730593      -0.21661715
H       -0.34879652      -1.59470881       0.31012876
H       -1.77157040      -0.33176010       1.38826421
H        1.30498947       1.69554823       0.58936672
H        2.06631646       0.09231691       0.47104796
14
Frame=11 idx=001722 GeodesicLength=1.0693946762509265 rxn_smarts="[O:1]([C@@:2]1([H:8])[C:3]([H:9])([H:10])[C:4]([H:11])([H:12])[O:5][C:6]1([H:13])[H:14])[H:7]>>[C@@:2]12([H:8])[C:3]([H:9])([H:10])[C@:4]1([H:12])[O:5][C:6]2([H:13])[H:14].[O:1]([H:7])[H:11]"
O        0.42052271      -1.85433546      -0.78696080
C        0.27592412       0.28973553      -0.74815780
C       -1.11419214       0.77812776      -0.42997200
C       -0.91232793      -0.14826651       0.73497107
O        0.28028805       0.08145377       1.47056381
C        1.11158261       0.61945065       0.45725138
H        1.13061049      -2.34400728      -0.36484033
H        0.66710103       0.46562124      -1.74248661
H       -1.84312708       0.42126600      -1.15349835
H       -1.24955541       1.83771800      -0.20410977
H       -0.35846086      -1.60817931       0.34212933
H       -1.77167899      -0.33005116       1.37263914
H        1.29199858       1.69182104       0.60155148
H        2.07131483       0.09964572       0.45091945
14
Frame=12 idx=001722 GeodesicLength=1.1670129923553207 rxn_smarts="[O:1]([C@@:2]1([H:8])[C:3]([H:9])([H:10])[C:4]([H:11])([H:12])[O:5][C:6]1([H:13])[H:14])[H:7]>>[C@@:2]12([H:8])[C:3]([H:9])([H:10])[C@:4]1([H:12])[O:5][C:6]2([H:13])[H:14].[O:1]([H:7])[H:11]"
O        0.44575913      -1.86178968      -0.78011305
C        0.26874529       0.28503160      -0.75480410
C       -1.11598792       0.79198715      -0.43283658
C       -0.91113453      -0.14952773       0.71973188
O        0.28607273       0.05029619       1.45515514
C        1.11118484       0.61653615       0.44858406
H        1.14169070      -2.35115152      -0.33575813
H        0.65350496       0.47877368      -1.74848167
H       -1.85038040       0.44808242      -1.15685263
H       -1.24466618       1.84755378      -0.19135364
H       -0.36869776      -1.62137409       0.37505289
H       -1.77142880      -0.32853271       1.35698471
H        1.27957491       1.68746164       0.61342645
H        2.07576301       0.10665313       0.43126467
14
Frame=13 idx=001722 GeodesicLength=1.2646132252778535 rxn_smarts="[O:1]([C@@:2]1([H:8])[C:3]([H:9])([H:10])[C:4]([H:11])([H:12])[O:5][C:6]1([H:13])[H:14])[H:7]>>[C@@:2]12([H:8])[C:3]([H:9])([H:10])[C@:4]1([H:12])[O:5][C:6]2([H:13])[H:14].[O:1]([H:7])[H:11]"
O        0.47202714      -1.86876459      -0.77389663
C        0.26157138       0.28038275      -0.76173429
C       -1.11762116       0.80557274      -0.43552758
C       -0.90969308      -0.15137420       0.70419286
O        0.29134648       0.02038959       1.43922617
C        1.11068090       0.61361565       0.43979109
H        1.15208510      -2.35827506      -0.30681248
H        0.63999864       0.49228781      -1.75431987
H       -1.85743695       0.47489636      -1.15991323
H       -1.23994394       1.85677332      -0.17833981
H       -0.37957116      -1.63422823       0.40901713
H       -1.77084116      -0.32717160       1.34128480
H        1.26767368       1.68251911       0.62498350
H        2.07972414       0.11337636       0.41204833
14
Frame=14 idx=001722 GeodesicLength=1.3621807359227263 rxn_smarts="[O:1]([C@@:2]1([H:8])[C:3]([H:9])([H:10])[C:4]([H:11])([H:12])[O:5][C:6]1([H:13])[H:14])[H:7]>>[C@@:2]12([H:8])[C:3]([H:9])([H:10])[C@:4]1([H:12])[O:5][C:6]2([H:13])[H:14].[O:1]([H:7])[H:11]"
O        0.49941303      -1.87521218      -0.76837381
C        0.25443354       0.27579218      -0.76895063
C       -1.11909043       0.81884790      -0.43806365
C       -0.90802022      -0.15382553       0.68832544
O        0.29616905      -0.00836490       1.42283285
C        1.11008654       0.61070486       0.43087568
H        1.16164366      -2.36543747      -0.27807383
H        0.62661209       0.50617708      -1.75998427
H       -1.86426704       0.50164362      -1.16270423
H       -1.23540572       1.86533642      -0.16507740
H       -0.39115047      -1.64666274       0.44416965
H       -1.76992098      -0.32591563       1.32554707
H        1.25623051       1.67704729       0.63623515
H        2.08326644       0.11986909       0.39324199
14
Frame=15 idx=001722 GeodesicLength=1.4596629397333785 rxn_smarts="[O:1]([C@@:2]1([H:8])[C:3]([H:9])([H:10])[C:4]([H:11])([H:12])[O:5][C:6]1([H:13])[H:14])[H:7]>>[C@@:2]12([H:8])[C:3]([H:9])([H:10])[C@:4]1([H:12])[O:5][C:6]2([H:13])[H:14].[O:1]([H:7])[H:11]"
O        0.52800644      -1.88107792      -0.76361034
C        0.24736444       0.27126675      -0.77645590
C       -1.12039371       0.83177205      -0.44046225
C       -0.90612670      -0.15690201       0.67210103
O        0.30060106      -0.03606685       1.40601769
C        1.10941657       0.60782041       0.42184269
H        1.17021138      -2.37270238      -0.24962019
H        0.61337661       0.52045197      -1.76546097
H       -1.87084000       0.52825472      -1.16524747
H       -1.23107368       1.87319559      -0.15157639
H       -0.40351228      -1.65858620       0.48066749
H       -1.76866445      -0.32470852       1.30978023
H        1.24518265       1.67109128       0.64720306
H        2.08645165       0.12619113       0.37482132
14
Frame=16 idx=001722 GeodesicLength=1.5570295065164053 rxn_smarts="[O:1]([C@@:2]1([H:8])[C:3]([H:9])([H:10])[C:4]([H:11])([H:12])[O:5][C:6]1([H:13])[H:14])[H:7]>>[C@@:2]12([H:8])[C:3]([H:9])([H:10])[C@:4]1([H:12])[O:5][C:6]2([H:13])[H:14].[O:1]([H:7])[H:11]"
O        0.55792375      -1.88630345      -0.75968489
C        0.24040191       0.26681440      -0.78425215
C       -1.12153152       0.84430344      -0.44274709
C       -0.90401932      -0.16062887       0.65549138
O        0.30470638      -0.06282881       1.38880724
C        1.10868439       0.60498120       0.41270099
H        1.17760339      -2.38015044      -0.22155859
H        0.60032811       0.53512245      -1.77073352
H       -1.87713088       0.55465097      -1.16757274
H       -1.22697529       1.88030131      -0.13785494
H       -0.41673275      -1.66988936       0.51870511
H       -1.76705568      -0.32347878       1.29400620
H        1.23445787       1.66469171       0.65792339
H        2.08933963       0.13241423       0.35676962
