14
Frame=0 idx=002325 GeodesicLength=0.0 rxn_smarts="[O:1]=[C:2]([C:3]([C:4]1([H:10])[C:5]([H:11])([H:12])[C:6]1([H:13])[H:14])([H:8])[H:9])[H:7]>>[O:1]=[C:2]([C:3]([C:4][C:5]([C:6]([H:10])([H:13])[H:14])([H:11])[H:12])([H:8])[H:9])[H:7]"
O        1.82745730       1.27265874      -1.05393540
C        2.01071843       0.63485083      -0.05373590
C        1.00410063      -0.31371126       0.54430812
C       -0.02461076      -0.86731491      -0.40738672
C       -1.37359890      -0.87827563       0.16741742
C       -1.32398016       0.45886402      -0.58020965
H        2.95100257       0.75542153       0.52183467
H        1.54529011      -1.19127665       0.91719988
H        0.61461532       0.19194934       1.45000033
H       -0.32389938       0.43143207      -1.17378632
H       -2.08205270      -1.59028114      -0.24376071
H       -1.49225863      -0.75287551       1.24536970
H       -2.02903953       0.52012235      -1.40216130
H       -1.30374430       1.32843621       0.06884586
14
Frame=1 idx=002325 GeodesicLength=0.058387218943917414 rxn_smarts="[O:1]=[C:2]([C:3]([C:4]1([H:10])[C:5]([H:11])([H:12])[C:6]1([H:13])[H:14])([H:8])[H:9])[H:7]>>[O:1]=[C:2]([C:3]([C:4][C:5]([C:6]([H:10])([H:13])[H:14])([H:11])[H:12])([H:8])[H:9])[H:7]"
O        1.83879911       1.27390127      -1.05192169
C        2.01673959       0.63454848      -0.05187526
C        1.00523646      -0.31008346       0.54413313
C       -0.02697887      -0.85550830      -0.40669069
C       -1.37575726      -0.87855268       0.16869979
C       -1.32770137       0.45887106      -0.57880563
H        2.95545451       0.75258896       0.52697661
H        1.54282326      -1.19081281       0.91532916
H        0.61661335       0.19506131       1.45002488
H       -0.32280168       0.41948400      -1.19355847
H       -2.07909088      -1.59371884      -0.24553778
H       -1.49441252      -0.75587724       1.24679905
H       -2.04053221       0.52163105      -1.39387137
H       -1.30839148       1.32846721       0.07029827
14
Frame=2 idx=002325 GeodesicLength=0.11674664577931569 rxn_smarts="[O:1]=[C:2]([C:3]([C:4]1([H:10])[C:5]([H:11])([H:12])[C:6]1([H:13])[H:14])([H:8])[H:9])[H:7]>>[O:1]=[C:2]([C:3]([C:4][C:5]([C:6]([H:10])([H:13])[H:14])([H:11])[H:12])([H:8])[H:9])[H:7]"
O        1.85000869       1.27512956      -1.04991275
C        2.02274013       0.63421671      -0.05007697
C        1.00636796      -0.30641011       0.54397522
C       -0.02938143      -0.84361634      -0.40589091
C       -1.37790977      -0.87879445       0.16994778
C       -1.33140372       0.45900752      -0.57729040
H        2.95988544       0.74977000       0.53201252
H        1.54033365      -1.19029735       0.91344765
H        0.61865105       0.19822976       1.45007875
H       -0.32173158       0.40699897      -1.21340371
H       -2.07607805      -1.59704333      -0.24745085
H       -1.49657936      -0.75896522       1.24819957
H       -2.05164069       0.52326104      -1.38566130
H       -1.31326234       1.32851323       0.07202540
14
Frame=3 idx=002325 GeodesicLength=0.1750835448861551 rxn_smarts="[O:1]=[C:2]([C:3]([C:4]1([H:10])[C:5]([H:11])([H:12])[C:6]1([H:13])[H:14])([H:8])[H:9])[H:7]>>[O:1]=[C:2]([C:3]([C:4][C:5]([C:6]([H:10])([H:13])[H:14])([H:11])[H:12])([H:8])[H:9])[H:7]"
O        1.86108052       1.27635029      -1.04790450
C        2.02871583       0.63386062      -0.04833883
C        1.00749644      -0.30269516       0.54383147
C       -0.03182168      -0.83163040      -0.40499137
C       -1.38005674      -0.87899579       0.17116300
C       -1.33509106       0.45927962      -0.57565916
H        2.96428948       0.74697587       0.53694704
H        1.53782520      -1.18973689       0.91153968
H        0.62073264       0.20144119       1.45016493
H       -0.32068276       0.39394144      -1.23330939
H       -2.07301962      -1.60024517      -0.24949390
H       -1.49875523      -0.76213467       1.24957193
H       -2.06235899       0.52500986      -1.37755215
H       -1.31835401       1.32857918       0.07403126
14
Frame=4 idx=002325 GeodesicLength=0.23341086358096608 rxn_smarts="[O:1]=[C:2]([C:3]([C:4]1([H:10])[C:5]([H:11])([H:12])[C:6]1([H:13])[H:14])([H:8])[H:9])[H:7]>>[O:1]=[C:2]([C:3]([C:4][C:5]([C:6]([H:10])([H:13])[H:14])([H:11])[H:12])([H:8])[H:9])[H:7]"
O        1.87200840       1.27757401      -1.04589040
C        2.03466248       0.63348565      -0.04665829
C        1.00862300      -0.29894298       0.54369811
C       -0.03430317      -0.81954024      -0.40399799
C       -1.38219821      -0.87915104       0.17234696
C       -1.33876917       0.45969465      -0.57390736
H        2.96866064       0.74421723       0.54178573
H        1.53530156      -1.18913949       0.90958736
H        0.62286218       0.20468084       1.45028644
H       -0.31964704       0.38026951      -1.25326026
H       -2.06992023      -1.60331556      -0.25166038
H       -1.50093591      -0.76537977       1.25091726
H       -2.07268484       0.52687355      -1.36956406
H       -1.32365970       1.32867365       0.07631688
14
Frame=5 idx=002325 GeodesicLength=0.2917588282877552 rxn_smarts="[O:1]=[C:2]([C:3]([C:4]1([H:10])[C:5]([H:11])([H:12])[C:6]1([H:13])[H:14])([H:8])[H:9])[H:7]>>[O:1]=[C:2]([C:3]([C:4][C:5]([C:6]([H:10])([H:13])[H:14])([H:11])[H:12])([H:8])[H:9])[H:7]"
O        1.88278381       1.27881858      -1.04386583
C        2.04057606       0.63309680      -0.04503245
C        1.00974902      -0.29516002       0.54357217
C       -0.03683001      -0.80733609      -0.40291636
C       -1.38433411      -0.87925506       0.17350248
C       -1.34244406       0.46026040      -0.57203063
H        2.97299142       0.74150727       0.54653723
H        1.53276687      -1.18851717       0.90757226
H        0.62504467       0.20793113       1.45044963
H       -0.31861391       0.36593403      -1.27324994
H       -2.06678508      -1.60624803      -0.25394183
H       -1.50311670      -0.76869410       1.25223904
H       -2.08261889       0.52885465      -1.36171736
H       -1.32916907       1.32880761       0.07888159
14
Frame=6 idx=002325 GeodesicLength=0.35012354802568324 rxn_smarts="[O:1]=[C:2]([C:3]([C:4]1([H:10])[C:5]([H:11])([H:12])[C:6]1([H:13])[H:14])([H:8])[H:9])[H:7]>>[O:1]=[C:2]([C:3]([C:4][C:5]([C:6]([H:10])([H:13])[H:14])([H:11])[H:12])([H:8])[H:9])[H:7]"
O        1.89338808       1.28010927      -1.04181177
C        2.04645138       0.63269855      -0.04346114
C        1.01087635      -0.29135399       0.54344717
C       -0.03940598      -0.79500878      -0.40175892
C       -1.38646405      -0.87930062       0.17463078
C       -1.34612216       0.46098926      -0.57003180
H        2.97727565       0.73885506       0.55120584
H        1.53022771      -1.18788472       0.90547127
H        0.62728537       0.21117332       1.45065817
H       -0.31757094       0.35087729      -1.29324424
H       -2.06361898      -1.60903471      -0.25633096
H       -1.50529317      -0.77206647       1.25354253
H       -2.09216212       0.53094275      -1.35403185
H       -1.33486714       1.32900379       0.08171491
14
Frame=7 idx=002325 GeodesicLength=0.40848252136952856 rxn_smarts="[O:1]=[C:2]([C:3]([C:4]1([H:10])[C:5]([H:11])([H:12])[C:6]1([H:13])[H:14])([H:8])[H:9])[H:7]>>[O:1]=[C:2]([C:3]([C:4][C:5]([C:6]([H:10])([H:13])[H:14])([H:11])[H:12])([H:8])[H:9])[H:7]"
O        1.90379557       1.28148165      -1.03973091
C        2.05228300       0.63229447      -0.04194847
C        1.01201075      -0.28754134       0.54332123
C       -0.04203694      -0.78255907      -0.40055298
C       -1.38858548      -0.87928969       0.17573603
C       -1.34981953       0.46190872      -0.56793037
H        2.98150909       0.73627118       0.55580660
H        1.52770253      -1.18728452       0.90327171
H        0.62959395       0.21439232       1.45093707
H       -0.31650269       0.33504931      -1.31319813
H       -2.06042442      -1.61168973      -0.25882395
H       -1.50745351      -0.77549091       1.25485922
H       -2.10132423       0.53313941      -1.34654605
H       -1.34074807       1.32931820       0.08479901
14
Frame=8 idx=002325 GeodesicLength=0.4664026163295619 rxn_smarts="[O:1]=[C:2]([C:3]([C:4]1([H:10])[C:5]([H:11])([H:12])[C:6]1([H:13])[H:14])([H:8])[H:9])[H:7]>>[O:1]=[C:2]([C:3]([C:4][C:5]([C:6]([H:10])([H:13])[H:14])([H:11])[H:12])([H:8])[H:9])[H:7]"
O        1.91402877       1.28281930      -1.03765785
C        2.05807773       0.63184119      -0.04052403
C        1.01314379      -0.28370112       0.54320456
C       -0.04469544      -0.77005705      -0.39915052
C       -1.39071186      -0.87920374       0.17680070
C       -1.35340059       0.46290164      -0.56567274
H        2.98566281       0.73380103       0.56027741
H        1.52515186      -1.18658026       0.90103654
H        0.63195885       0.21760663       1.45119956
H       -0.31546387       0.31866724      -1.33321647
H       -2.05724747      -1.61411484      -0.26141844
H       -1.50964142      -0.77895368       1.25605379
H       -2.10993420       0.53553405      -1.33918655
H       -1.34692896       1.32943961       0.08825405
14
Frame=9 idx=002325 GeodesicLength=0.5242041861973912 rxn_smarts="[O:1]=[C:2]([C:3]([C:4]1([H:10])[C:5]([H:11])([H:12])[C:6]1([H:13])[H:14])([H:8])[H:9])[H:7]>>[O:1]=[C:2]([C:3]([C:4][C:5]([C:6]([H:10])([H:13])[H:14])([H:11])[H:12])([H:8])[H:9])[H:7]"
O        1.92406183       1.28424639      -1.03555609
C        2.06382555       0.63138723      -0.03915530
C        1.01428525      -0.27986098       0.54307941
C       -0.04740856      -0.75742430      -0.39770161
C       -1.39282795      -0.87905541       0.17784300
C       -1.35700193       0.46409192      -0.56330751
H        2.98975993       0.73140922       0.56468340
H        1.52261913      -1.18591490       0.89868139
H        0.63439743       0.22077545       1.45153240
H       -0.31440235       0.30148811      -1.35314967
H       -2.05404249      -1.61639874      -0.26411304
H       -1.51181305      -0.78245825       1.25725771
H       -2.11815812       0.53803228      -1.33205552
H       -1.35329466       1.32968198       0.09196144
14
Frame=10 idx=002325 GeodesicLength=0.5820808007686243 rxn_smarts="[O:1]=[C:2]([C:3]([C:4]1([H:10])[C:5]([H:11])([H:12])[C:6]1([H:13])[H:14])([H:8])[H:9])[H:7]>>[O:1]=[C:2]([C:3]([C:4][C:5]([C:6]([H:10])([H:13])[H:14])([H:11])[H:12])([H:8])[H:9])[H:7]"
O        1.93388620       1.28579924      -1.03338255
C        2.06952488       0.63094649      -0.03783391
C        1.01542993      -0.27600794       0.54294063
C       -0.05018013      -0.74462581      -0.39619849
C       -1.39493534      -0.87882467       0.17885683
C       -1.36062229       0.46547501      -0.56080489
H        2.99380802       0.72908606       0.56901030
H        1.52008587      -1.18526414       0.89617866
H        0.63690865       0.22388909       1.45192134
H       -0.31329085       0.28336710      -1.37302606
H       -2.05081790      -1.61850743      -0.26690201
H       -1.51396670      -0.78600238       1.25843891
H       -2.12599517       0.54065823      -1.32514147
H       -1.35983515       1.33001115       0.09594269
14
Frame=11 idx=002325 GeodesicLength=0.6399533603729901 rxn_smarts="[O:1]=[C:2]([C:3]([C:4]1([H:10])[C:5]([H:11])([H:12])[C:6]1([H:13])[H:14])([H:8])[H:9])[H:7]>>[O:1]=[C:2]([C:3]([C:4][C:5]([C:6]([H:10])([H:13])[H:14])([H:11])[H:12])([H:8])[H:9])[H:7]"
O        1.94352830       1.28745825      -1.03115638
C        2.07517855       0.63052538      -0.03655454
C        1.01657383      -0.27212959       0.54279039
C       -0.05300655      -0.73164848      -0.39463609
C       -1.39703025      -0.87851319       0.17983636
C       -1.36426208       0.46704857      -0.55815899
H        2.99782311       0.72680579       0.57324530
H        1.51754025      -1.18461126       0.89353661
H        0.63948725       0.22696042       1.45236228
H       -0.31213182       0.26432059      -1.39281934
H       -2.04755982      -1.62044497      -0.26979870
H       -1.51610274      -0.78959486       1.25958550
H       -2.13345369       0.54341637      -1.31844783
H       -1.36658434       1.33040698       0.10021543
14
Frame=12 idx=002325 GeodesicLength=0.697826542248951 rxn_smarts="[O:1]=[C:2]([C:3]([C:4]1([H:10])[C:5]([H:11])([H:12])[C:6]1([H:13])[H:14])([H:8])[H:9])[H:7]>>[O:1]=[C:2]([C:3]([C:4][C:5]([C:6]([H:10])([H:13])[H:14])([H:11])[H:12])([H:8])[H:9])[H:7]"
O        1.95299907       1.28922927      -1.02887655
C        2.08079182       0.63012591      -0.03531764
C        1.01771556      -0.26821879       0.54262470
C       -0.05588830      -0.71847146      -0.39302142
C       -1.39911000      -0.87811622       0.18077641
C       -1.36793053       0.46882216      -0.55536483
H        3.00181333       0.72455777       0.57738678
H        1.51497343      -1.18395258       0.89074772
H        0.64213460       0.22999565       1.45285246
H       -0.31091735       0.24429424      -1.41250093
H       -2.04425998      -1.62220747      -0.27281168
H       -1.51821686      -0.79324342       1.26069134
H       -2.14053830       0.54631774      -1.31197841
H       -1.37356649       1.33086721       0.10479206
14
Frame=13 idx=002325 GeodesicLength=0.7557002691961183 rxn_smarts="[O:1]=[C:2]([C:3]([C:4]1([H:10])[C:5]([H:11])([H:12])[C:6]1([H:13])[H:14])([H:8])[H:9])[H:7]>>[O:1]=[C:2]([C:3]([C:4][C:5]([C:6]([H:10])([H:13])[H:14])([H:11])[H:12])([H:8])[H:9])[H:7]"
O        1.96230822       1.29112178      -1.02654216
C        2.08636382       0.62976114      -0.03411778
C        1.01885069      -0.26426429       0.54244266
C       -0.05882700      -0.70507330      -0.39136002
C       -1.40117148      -0.87763012       0.18167088
C       -1.37163731       0.47080379      -0.55241604
H        3.00579793       0.72231093       0.58141849
H        1.51237755      -1.18327937       0.88780598
H        0.64484711       0.23300110       1.45339330
H       -0.30963374       0.22323904      -1.43203601
H       -2.04090931      -1.62379339      -0.27595057
H       -1.52030430      -0.79695605       1.26174958
H       -2.14725303       0.54936936      -1.30574467
H       -1.38080915       1.33138939       0.10968635
14
Frame=14 idx=002325 GeodesicLength=0.8135626698630004 rxn_smarts="[O:1]=[C:2]([C:3]([C:4]1([H:10])[C:5]([H:11])([H:12])[C:6]1([H:13])[H:14])([H:8])[H:9])[H:7]>>[O:1]=[C:2]([C:3]([C:4][C:5]([C:6]([H:10])([H:13])[H:14])([H:11])[H:12])([H:8])[H:9])[H:7]"
O        1.97148444       1.29312388      -1.02416844
C        2.09190053       0.62943310      -0.03295510
C        1.01997589      -0.26025450       0.54223958
C       -0.06182265      -0.69142726      -0.38966182
C       -1.40320965      -0.87705486       0.18251137
C       -1.37539594       0.47300484      -0.54930438
H        3.00978173       0.72005564       0.58534337
H        1.50973904      -1.18258387       0.88470653
H        0.64762316       0.23599069       1.45397956
H       -0.30827523       0.20110905      -1.45138165
H       -2.03749331      -1.62520624      -0.27923210
H       -1.52236003      -0.80074682       1.26275132
H       -2.15360933       0.55258518      -1.29974756
H       -1.38833864       1.33197116       0.11491933
14
Frame=15 idx=002325 GeodesicLength=0.8713890927803806 rxn_smarts="[O:1]=[C:2]([C:3]([C:4]1([H:10])[C:5]([H:11])([H:12])[C:6]1([H:13])[H:14])([H:8])[H:9])[H:7]>>[O:1]=[C:2]([C:3]([C:4][C:5]([C:6]([H:10])([H:13])[H:14])([H:11])[H:12])([H:8])[H:9])[H:7]"
O        1.98050892       1.29526407      -1.02173242
C        2.09739949       0.62913565      -0.03183830
C        1.02108955      -0.25619795       0.54200328
C       -0.06488164      -0.67752425      -0.38793562
C       -1.40522231      -0.87637821       0.18329842
C       -1.37921447       0.47543029      -0.54602572
H        3.01375185       0.71779764       0.58916694
H        1.50705761      -1.18187785       0.88141679
H        0.65046577       0.23895016       1.45460049
H       -0.30681212       0.17785876      -1.47048366
H       -2.03401419      -1.62643169      -0.28264142
H       -1.52437489      -0.80460415       1.26369357
H       -2.15959669       0.55596052      -1.29400605
H       -1.39615688       1.33261700       0.12048371
14
Frame=16 idx=002325 GeodesicLength=0.9292081745683495 rxn_smarts="[O:1]=[C:2]([C:3]([C:4]1([H:10])[C:5]([H:11])([H:12])[C:6]1([H:13])[H:14])([H:8])[H:9])[H:7]>>[O:1]=[C:2]([C:3]([C:4][C:5]([C:6]([H:10])([H:13])[H:14])([H:11])[H:12])([H:8])[H:9])[H:7]"
O        1.98944525       1.29749851      -1.01927901
C        2.10286829       0.62888328      -0.03076054
C        1.02218627      -0.25207681       0.54172688
C       -0.06800905      -0.66332425      -0.38619771
C       -1.40720552      -0.87560266       0.18402141
C       -1.38311775       0.47809665      -0.54256217
H        3.01770961       0.71554373       0.59290878
H        1.50431301      -1.18115223       0.87792423
H        0.65337322       0.24189460       1.45525398
H       -0.30523529       0.15343082      -1.48929586
H       -2.03045959      -1.62747466      -0.28620320
H       -1.52633552      -0.80856155       1.26456890
H       -2.16523346       0.55951777      -1.28851990
H       -1.40429947       1.33332681       0.12641422
