14
Frame=0 idx=006049 GeodesicLength=0.0 rxn_smarts="[C:1]([O:2][C:3]([C:4]#[C:5][C:6]([H:12])([H:13])[H:14])([H:10])[H:11])([H:7])([H:8])[H:9]>>[C:1]([O:2]/[C:3](=[C:4](\[C:5][C:6]([H:12])([H:13])[H:14])[H:10])[H:11])([H:7])([H:8])[H:9]"
C       -2.13567650       0.34272204       0.31289280
O       -1.93703362      -0.94462366      -0.27326098
C       -0.76015689      -1.18327635      -0.83773739
C        0.39623996      -0.44212432      -0.67590192
C        1.11985319       0.61998463      -0.53718124
C        2.28389492       0.76579081       0.37396056
H       -2.05823885       1.12362080      -0.44184140
H       -3.13601500       0.31956682       0.73677820
H       -1.39419153       0.52502131       1.09305682
H        0.56504595      -1.53520156      -0.13809713
H       -0.77052072      -2.10670231      -1.40587215
H        2.43217980      -0.05428252       1.09066827
H        3.19268603       0.86565430      -0.22531340
H        2.20193323       1.70384998       0.92784900
14
Frame=1 idx=006049 GeodesicLength=0.04412027747856706 rxn_smarts="[C:1]([O:2][C:3]([C:4]#[C:5][C:6]([H:12])([H:13])[H:14])([H:10])[H:11])([H:7])([H:8])[H:9]>>[C:1]([O:2]/[C:3](=[C:4](\[C:5][C:6]([H:12])([H:13])[H:14])[H:10])[H:11])([H:7])([H:8])[H:9]"
C       -2.14352032       0.34521043       0.30676538
O       -1.93213682      -0.95364472      -0.24675988
C       -0.75707133      -1.19090168      -0.81763112
C        0.40122838      -0.44863586      -0.66401590
C        1.11280323       0.61945250      -0.51186821
C        2.29282873       0.76755786       0.37645332
H       -2.06968637       1.11045550      -0.46452821
H       -3.14538084       0.32440394       0.72753474
H       -1.40665314       0.55109089       1.08544202
H        0.56645068      -1.56261904      -0.14282252
H       -0.78268480      -2.08498867      -1.43069720
H        2.46602525      -0.06120562       1.07707923
H        3.18713471       0.88759052      -0.24082752
H        2.21066264       1.69623394       0.94587586
14
Frame=2 idx=006049 GeodesicLength=0.08822389522357456 rxn_smarts="[C:1]([O:2][C:3]([C:4]#[C:5][C:6]([H:12])([H:13])[H:14])([H:10])[H:11])([H:7])([H:8])[H:9]>>[C:1]([O:2]/[C:3](=[C:4](\[C:5][C:6]([H:12])([H:13])[H:14])[H:10])[H:11])([H:7])([H:8])[H:9]"
C       -2.15155716       0.34735978       0.30021863
O       -1.92711346      -0.96201633      -0.22044576
C       -0.75388451      -1.19865777      -0.79750381
C        0.40625746      -0.45525555      -0.65139311
C        1.10605703       0.61829449      -0.48560997
C        2.30210848       0.76928894       0.37882989
H       -2.08096619       1.09663638      -0.48722656
H       -3.15506589       0.32862297       0.71750750
H       -1.41968608       0.57674822       1.07704168
H        0.56734043      -1.59024222      -0.14754026
H       -0.79532844      -2.06117130      -1.45378579
H        2.50079301      -0.06785032       1.06219262
H        3.18077101       0.91019547      -0.25642103
H        2.22027431       1.68804723       0.96413599
14
Frame=3 idx=006049 GeodesicLength=0.13233951771477814 rxn_smarts="[C:1]([O:2][C:3]([C:4]#[C:5][C:6]([H:12])([H:13])[H:14])([H:10])[H:11])([H:7])([H:8])[H:9]>>[C:1]([O:2]/[C:3](=[C:4](\[C:5][C:6]([H:12])([H:13])[H:14])[H:10])[H:11])([H:7])([H:8])[H:9]"
C       -2.15983757       0.34918627       0.29319572
O       -1.92205228      -0.96967678      -0.19451777
C       -0.75064274      -1.20643687      -0.77750493
C        0.41131251      -0.46194986      -0.63795091
C        1.09957839       0.61654887      -0.45821384
C        2.31179706       0.77096713       0.38105196
H       -2.09204768       1.08227255      -0.50991711
H       -3.16513580       0.33221569       0.70659595
H       -1.43337290       0.60190471       1.06785825
H        0.56750285      -1.61797801      -0.15203989
H       -0.80819594      -2.03552248      -1.47483284
H        2.53671980      -0.07431699       1.04565774
H        3.17345099       0.93368861      -0.27219584
H        2.23092331       1.67909716       0.98281352
14
Frame=4 idx=006049 GeodesicLength=0.17642845308262892 rxn_smarts="[C:1]([O:2][C:3]([C:4]#[C:5][C:6]([H:12])([H:13])[H:14])([H:10])[H:11])([H:7])([H:8])[H:9]>>[C:1]([O:2]/[C:3](=[C:4](\[C:5][C:6]([H:12])([H:13])[H:14])[H:10])[H:11])([H:7])([H:8])[H:9]"
C       -2.16815031       0.35073064       0.28579663
O       -1.91695728      -0.97654930      -0.16912391
C       -0.74740859      -1.21416498      -0.75790651
C        0.41643116      -0.46878764      -0.62394075
C        1.09344837       0.61412240      -0.42991974
C        2.32168963       0.77263866       0.38315319
H       -2.10273665       1.06753398      -0.53240410
H       -3.17532414       0.33525397       0.69502421
H       -1.44737063       0.62642022       1.05794563
H        0.56680659      -1.64584565      -0.15645210
H       -0.82119562      -2.00842762      -1.49371917
H        2.57331711      -0.08038619       1.02764917
H        3.16509254       0.95793759      -0.28782597
H        2.24235784       1.66952392       1.00172340
14
Frame=5 idx=006049 GeodesicLength=0.22053075552397267 rxn_smarts="[C:1]([O:2][C:3]([C:4]#[C:5][C:6]([H:12])([H:13])[H:14])([H:10])[H:11])([H:7])([H:8])[H:9]>>[C:1]([O:2]/[C:3](=[C:4](\[C:5][C:6]([H:12])([H:13])[H:14])[H:10])[H:11])([H:7])([H:8])[H:9]"
C       -2.17667661       0.35201798       0.27789188
O       -1.91204122      -0.98255908      -0.14460016
C       -0.74422803      -1.22170720      -0.73872882
C        0.42158089      -0.47571932      -0.60903585
C        1.08754127       0.61107592      -0.40022210
C        2.33197817       0.77427563       0.38503510
H       -2.11297617       1.05259963      -0.55468298
H       -3.18589460       0.33775649       0.68244946
H       -1.46199867       0.65013513       1.04738013
H        0.56497947      -1.67372138      -0.16025767
H       -0.83390950      -1.98025324      -1.51022273
H        2.61123300      -0.08624729       1.00744760
H        3.15542529       0.98339860      -0.30365934
H        2.25498671       1.65894813       1.02120549
14
Frame=6 idx=006049 GeodesicLength=0.2644486895619221 rxn_smarts="[C:1]([O:2][C:3]([C:4]#[C:5][C:6]([H:12])([H:13])[H:14])([H:10])[H:11])([H:7])([H:8])[H:9]>>[C:1]([O:2]/[C:3](=[C:4](\[C:5][C:6]([H:12])([H:13])[H:14])[H:10])[H:11])([H:7])([H:8])[H:9]"
C       -2.18463468       0.35313304       0.26997124
O       -1.90708406      -0.98766493      -0.12094349
C       -0.74117849      -1.22912880      -0.72051488
C        0.42688881      -0.48301346      -0.59429751
C        1.08219573       0.60709410      -0.37053143
C        2.34187111       0.77605315       0.38689433
H       -2.12227308       1.03776445      -0.57618218
H       -3.19584117       0.33995084       0.66992010
H       -1.47597622       0.67281171       1.03637612
H        0.56209439      -1.70183300      -0.16439782
H       -0.84661306      -1.95151239      -1.52470008
H        2.64827519      -0.09099087       0.98672363
H        3.14471009       1.00893376      -0.31847456
H        2.26756543       1.64840241       1.04015652
14
Frame=7 idx=006049 GeodesicLength=0.30817245572467555 rxn_smarts="[C:1]([O:2][C:3]([C:4]#[C:5][C:6]([H:12])([H:13])[H:14])([H:10])[H:11])([H:7])([H:8])[H:9]>>[C:1]([O:2]/[C:3](=[C:4](\[C:5][C:6]([H:12])([H:13])[H:14])[H:10])[H:11])([H:7])([H:8])[H:9]"
C       -2.19197914       0.35413223       0.26206213
O       -1.90212362      -0.99187594      -0.09827243
C       -0.73826776      -1.23640800      -0.70331360
C        0.43236690      -0.49069525      -0.57978216
C        1.07739800       0.60217564      -0.34091112
C        2.35131260       0.77798003       0.38872366
H       -2.13057114       1.02317835      -0.59685087
H       -3.20511442       0.34193551       0.65747735
H       -1.48921304       0.69441650       1.02502996
H        0.55806472      -1.73014181      -0.16875512
H       -0.85915904      -1.92253497      -1.53719325
H        2.68440335      -0.09462563       0.96541736
H        3.13290182       1.03461308      -0.33224027
H        2.27998077       1.63785026       1.05860837
14
Frame=8 idx=006049 GeodesicLength=0.3516187999464648 rxn_smarts="[C:1]([O:2][C:3]([C:4]#[C:5][C:6]([H:12])([H:13])[H:14])([H:10])[H:11])([H:7])([H:8])[H:9]>>[C:1]([O:2]/[C:3](=[C:4](\[C:5][C:6]([H:12])([H:13])[H:14])[H:10])[H:11])([H:7])([H:8])[H:9]"
C       -2.19831030       0.35506565       0.25447699
O       -1.89705432      -0.99521326      -0.07662012
C       -0.73552961      -1.24357797      -0.68738904
C        0.43807875      -0.49890385      -0.56608113
C        1.07327208       0.59622777      -0.31227032
C        2.35988991       0.78015645       0.39063276
H       -2.13764357       1.00905282      -0.61632147
H       -3.21320510       0.34385617       0.64572612
H       -1.50102382       0.71478899       1.01356251
H        0.55293790      -1.75876601      -0.17386171
H       -0.87166303      -1.89365725      -1.54807000
H        2.71845946      -0.09669184       0.94479951
H        3.12035085       1.05960809      -0.34446829
H        2.29144080       1.62805424       1.07588417
14
Frame=9 idx=006049 GeodesicLength=0.394884046770152 rxn_smarts="[C:1]([O:2][C:3]([C:4]#[C:5][C:6]([H:12])([H:13])[H:14])([H:10])[H:11])([H:7])([H:8])[H:9]>>[C:1]([O:2]/[C:3](=[C:4](\[C:5][C:6]([H:12])([H:13])[H:14])[H:10])[H:11])([H:7])([H:8])[H:9]"
C       -2.20380672       0.35597508       0.24712907
O       -1.89198945      -0.99775884      -0.05606460
C       -0.73296460      -1.25064272      -0.67260945
C        0.44399187      -0.50760981      -0.55292600
C        1.06969668       0.58935275      -0.28430230
C        2.36777196       0.78255605       0.39256662
H       -2.14358491       0.99547087      -0.63472719
H       -3.22035059       0.34576699       0.63444503
H       -1.51167335       0.73400045       1.00206026
H        0.54663519      -1.78767337      -0.17939899
H       -0.88388338      -1.86502693      -1.55742851
H        2.75100816      -0.09743595       0.92448022
H        3.10697558       1.08422732      -0.35551646
H        2.30217355       1.61879812       1.09229230
14
Frame=10 idx=006049 GeodesicLength=0.43805702248538964 rxn_smarts="[C:1]([O:2][C:3]([C:4]#[C:5][C:6]([H:12])([H:13])[H:14])([H:10])[H:11])([H:7])([H:8])[H:9]>>[C:1]([O:2]/[C:3](=[C:4](\[C:5][C:6]([H:12])([H:13])[H:14])[H:10])[H:11])([H:7])([H:8])[H:9]"
C       -2.20845723       0.35692993       0.24007741
O       -1.88687187      -0.99959352      -0.03651964
C       -0.73053199      -1.25765417      -0.65894790
C        0.45012268      -0.51685644      -0.54039622
C        1.06665454       0.58157800      -0.25718616
C        2.37490884       0.78518221       0.39455116
H       -2.14849304       0.98249530      -0.65210953
H       -3.22652071       0.34778148       0.62377315
H       -1.52110114       0.75218786       0.99059182
H        0.53923194      -1.81694075      -0.18548424
H       -0.89578178      -1.83679005      -1.56547456
H        2.78200036      -0.09689704       0.90468971
H        3.09286738       1.10838660      -0.36541130
H        2.31197204       1.61019060       1.10784631
14
Frame=11 idx=006049 GeodesicLength=0.48099918350331694 rxn_smarts="[C:1]([O:2][C:3]([C:4]#[C:5][C:6]([H:12])([H:13])[H:14])([H:10])[H:11])([H:7])([H:8])[H:9]>>[C:1]([O:2]/[C:3](=[C:4](\[C:5][C:6]([H:12])([H:13])[H:14])[H:10])[H:11])([H:7])([H:8])[H:9]"
C       -2.21279890       0.35793064       0.23279881
O       -1.88204085      -1.00059864      -0.01797934
C       -0.72831972      -1.26436611      -0.64583678
C        0.45635632      -0.52649017      -0.52751435
C        1.06395160       0.57291502      -0.22947924
C        2.38188082       0.78792078       0.39637593
H       -2.15261499       0.96982983      -0.66901568
H       -3.23240782       0.34988163       0.61272182
H       -1.53015636       0.76959203       0.97873201
H        0.53048409      -1.84629224      -0.19113092
H       -0.90691934      -1.80909833      -1.57179970
H        2.81332133      -0.09552356       0.88290309
H        3.07720328       1.13373536      -0.37461323
H        2.32206054       1.60056377       1.12383758
14
Frame=12 idx=006049 GeodesicLength=0.5237456656573012 rxn_smarts="[C:1]([O:2][C:3]([C:4]#[C:5][C:6]([H:12])([H:13])[H:14])([H:10])[H:11])([H:7])([H:8])[H:9]>>[C:1]([O:2]/[C:3](=[C:4](\[C:5][C:6]([H:12])([H:13])[H:14])[H:10])[H:11])([H:7])([H:8])[H:9]"
C       -2.21631803       0.35890647       0.22583890
O       -1.87732930      -1.00111655      -0.00070446
C       -0.72626923      -1.27110909      -0.63374181
C        0.46275834      -0.53672966      -0.51483542
C        1.06166820       0.56334001      -0.20230004
C        2.38817588       0.79090563       0.39820216
H       -2.15547094       0.95794906      -0.68477777
H       -3.23742088       0.35204829       0.60203460
H       -1.53809286       0.78569091       0.96729177
H        0.52044759      -1.87600509      -0.19713946
H       -0.91752913      -1.78142463      -1.57729165
H        2.84306741      -0.09267498       0.86197942
H        3.06078544       1.15819373      -0.38302400
H        2.33152753       1.59202590       1.13846776
14
Frame=13 idx=006049 GeodesicLength=0.566473645479234 rxn_smarts="[C:1]([O:2][C:3]([C:4]#[C:5][C:6]([H:12])([H:13])[H:14])([H:10])[H:11])([H:7])([H:8])[H:9]>>[C:1]([O:2]/[C:3](=[C:4](\[C:5][C:6]([H:12])([H:13])[H:14])[H:10])[H:11])([H:7])([H:8])[H:9]"
C       -2.21883337       0.35997735       0.21943791
O       -1.87248096      -1.00114917       0.01568081
C       -0.72432533      -1.27788596      -0.62279598
C        0.46942641      -0.54764308      -0.50299751
C        1.05993299       0.55291841      -0.17658178
C        2.39351285       0.79418460       0.40014142
H       -2.15732044       0.94683379      -0.69936166
H       -3.24126002       0.35445415       0.59239044
H       -1.54445881       0.80079663       0.95621238
H        0.50940831      -1.90624211      -0.20412553
H       -0.92777552      -1.75418350      -1.58221198
H        2.87054903      -0.08829451       0.84288726
H        3.04408385       1.18126002      -0.39031023
H        2.33954099       1.58497338       1.15163445
14
Frame=14 idx=006049 GeodesicLength=0.6092785405761003 rxn_smarts="[C:1]([O:2][C:3]([C:4]#[C:5][C:6]([H:12])([H:13])[H:14])([H:10])[H:11])([H:7])([H:8])[H:9]>>[C:1]([O:2]/[C:3](=[C:4](\[C:5][C:6]([H:12])([H:13])[H:14])[H:10])[H:11])([H:7])([H:8])[H:9]"
C       -2.22124431       0.36122898       0.21267423
O       -1.86812560      -1.00065560       0.03095682
C       -0.72255718      -1.28461480      -0.61211756
C        0.47615497      -0.55911406      -0.49012534
C        1.05831240       0.54164290      -0.14955145
C        2.39885634       0.79758268       0.40183197
H       -2.15826300       0.93632703      -0.71377095
H       -3.24515549       0.35718388       0.58189524
H       -1.55087066       0.81527210       0.94509945
H        0.49689276      -1.93681894      -0.21014739
H       -0.93679076      -1.72746263      -1.58592942
H        2.89930288      -0.08337775       0.82102759
H        3.02523284       1.20608811      -0.39761361
H        2.34825481       1.57671812       1.16577042
14
Frame=15 idx=006049 GeodesicLength=0.6518228652211882 rxn_smarts="[C:1]([O:2][C:3]([C:4]#[C:5][C:6]([H:12])([H:13])[H:14])([H:10])[H:11])([H:7])([H:8])[H:9]>>[C:1]([O:2]/[C:3](=[C:4](\[C:5][C:6]([H:12])([H:13])[H:14])[H:10])[H:11])([H:7])([H:8])[H:9]"
C       -2.22296920       0.36250193       0.20604572
O       -1.86400728      -0.99973298       0.04509356
C       -0.72097211      -1.29131448      -0.60210043
C        0.48302843      -0.57130933      -0.47688584
C        1.05708594       0.52927180      -0.12238563
C        2.40366034       0.80120547       0.40343368
H       -2.15797160       0.92649885      -0.72729446
H       -3.24838559       0.36012215       0.57134987
H       -1.55636970       0.82861437       0.93432023
H        0.48297833      -1.96776447      -0.21633129
H       -0.94502220      -1.70072127      -1.58895309
H        2.92702751      -0.07687953       0.79904527
H        3.00511004       1.23054259      -0.40417030
H        2.35680708       1.56896490       1.17883272
14
Frame=16 idx=006049 GeodesicLength=0.694397791029387 rxn_smarts="[C:1]([O:2][C:3]([C:4]#[C:5][C:6]([H:12])([H:13])[H:14])([H:10])[H:11])([H:7])([H:8])[H:9]>>[C:1]([O:2]/[C:3](=[C:4](\[C:5][C:6]([H:12])([H:13])[H:14])[H:10])[H:11])([H:7])([H:8])[H:9]"
C       -2.22400642       0.36393979       0.19964311
O       -1.86003996      -0.99847515       0.05824975
C       -0.71949478      -1.29811222      -0.59278172
C        0.49009349      -0.58431437      -0.46345392
C        1.05618976       0.51597100      -0.09543682
C        2.40783422       0.80507637       0.40497208
H       -2.15655667       0.91750614      -0.74003685
H       -3.25093432       0.36345503       0.56099628
H       -1.56092244       0.84108754       0.92399166
H        0.46779754      -1.99929397      -0.22277642
H       -0.95236196      -1.67425271      -1.59151997
H        2.95387455      -0.06912379       0.77723256
H        2.98379235       1.25463362      -0.41028378
H        2.36473465       1.56190272       1.19120405
