11
Frame=0 idx=004388 GeodesicLength=0.0 rxn_smarts="[O:1]=[C:2]1[N:3]([H:7])[C:4]([H:8])([H:9])[C:5]([H:10])=[C:6]1[H:11]>>[O:1]=[C:2]=[N:3][C:4]([C:5](=[C:6]([H:7])[H:11])[H:10])([H:8])[H:9]"
O        2.17021045      -1.27507109      -0.43023672
C        1.08619000      -0.82482036      -0.20682056
N       -0.14898308      -1.37455147      -0.04326066
C       -1.13128510      -0.34387028      -0.21821636
C       -0.46389871       0.97135570       0.02128547
C        0.83905553       0.72089933       0.24045574
H        0.47220571      -0.35301049       1.00310002
H       -2.00695349      -0.50005862       0.41653217
H       -1.49497562      -0.35132647      -1.25646486
H       -0.96756284       1.92844248       0.00944578
H        1.64599720       1.40201126       0.46418001
11
Frame=1 idx=004388 GeodesicLength=0.10375140523116123 rxn_smarts="[O:1]=[C:2]1[N:3]([H:7])[C:4]([H:8])([H:9])[C:5]([H:10])=[C:6]1[H:11]>>[O:1]=[C:2]=[N:3][C:4]([C:5](=[C:6]([H:7])[H:11])[H:10])([H:8])[H:9]"
O        2.17152649      -1.28854554      -0.44308860
C        1.08969845      -0.83399909      -0.21984753
N       -0.14451295      -1.36848424      -0.03841136
C       -1.13121721      -0.34165239      -0.22039396
C       -0.46392968       0.97406160       0.02333555
C        0.83629619       0.72735955       0.25833414
H        0.47334011      -0.37090587       1.02424101
H       -2.00613660      -0.49653541       0.41573973
H       -1.49528915      -0.35158907      -1.25797630
H       -0.96863997       1.93020170      -0.00372141
H        1.63886433       1.42008876       0.46178873
11
Frame=2 idx=004388 GeodesicLength=0.20746297350556592 rxn_smarts="[O:1]=[C:2]1[N:3]([H:7])[C:4]([H:8])([H:9])[C:5]([H:10])=[C:6]1[H:11]>>[O:1]=[C:2]=[N:3][C:4]([C:5](=[C:6]([H:7])[H:11])[H:10])([H:8])[H:9]"
O        2.17279276      -1.30230329      -0.45596434
C        1.09315383      -0.84315736      -0.23359076
N       -0.13972296      -1.36213257      -0.03355574
C       -1.13102693      -0.33937898      -0.22249348
C       -0.46381073       0.97694435       0.02479998
C        0.83343556       0.73405066       0.27626986
H        0.47439280      -0.38913473       1.04551982
H       -2.00498705      -0.49285313       0.41533975
H       -1.49584781      -0.35211864      -1.25927978
H       -0.96944427       1.93197350      -0.01724534
H        1.63106479       1.43811019       0.46020004
11
Frame=3 idx=004388 GeodesicLength=0.31114227021882257 rxn_smarts="[O:1]=[C:2]1[N:3]([H:7])[C:4]([H:8])([H:9])[C:5]([H:10])=[C:6]1[H:11]>>[O:1]=[C:2]=[N:3][C:4]([C:5](=[C:6]([H:7])[H:11])[H:10])([H:8])[H:9]"
O        2.17400046      -1.31635090      -0.46888265
C        1.09653812      -0.85230058      -0.24812185
N       -0.13457914      -1.35546741      -0.02866437
C       -1.13071343      -0.33705721      -0.22450899
C       -0.46352887       0.98001072       0.02560148
C        0.83045034       0.74099892       0.29415058
H        0.47535791      -0.40765269       1.06694009
H       -2.00348082      -0.48899270       0.41536630
H       -1.49668580      -0.35297309      -1.26034757
H       -0.96998622       1.93375781      -0.03115281
H        1.62262743       1.45602713       0.45961981
11
Frame=4 idx=004388 GeodesicLength=0.4148093839592358 rxn_smarts="[O:1]=[C:2]1[N:3]([H:7])[C:4]([H:8])([H:9])[C:5]([H:10])=[C:6]1[H:11]>>[O:1]=[C:2]=[N:3][C:4]([C:5](=[C:6]([H:7])[H:11])[H:10])([H:8])[H:9]"
O        2.17513159      -1.33069597      -0.48187139
C        1.09983141      -0.86144343      -0.26349998
N       -0.12904611      -1.34846053      -0.02370936
C       -1.13027289      -0.33469591      -0.22643826
C       -0.46307257       0.98326601       0.02568224
C        0.82732089       0.74822594       0.31190203
H        0.47621067      -0.42642917       1.08852789
H       -2.00160047      -0.48494219       0.41583666
H       -1.49781743      -0.35420198      -1.26116102
H       -0.97028651       1.93555684      -0.04546134
H        1.61360140       1.47382040       0.46019253
11
Frame=5 idx=004388 GeodesicLength=0.5184681891967643 rxn_smarts="[O:1]=[C:2]1[N:3]([H:7])[C:4]([H:8])([H:9])[C:5]([H:10])=[C:6]1[H:11]>>[O:1]=[C:2]=[N:3][C:4]([C:5](=[C:6]([H:7])[H:11])[H:10])([H:8])[H:9]"
O        2.17616757      -1.34534547      -0.49495366
C        1.10301707      -0.87061173      -0.27975882
N       -0.12309702      -1.34108933      -0.01866972
C       -1.12969715      -0.33230126      -0.22828338
C       -0.46243114       0.98671387       0.02500844
C        0.82402944       0.75574944       0.32949401
H        0.47691855      -0.44545730       1.11032271
H       -1.99933592      -0.48069508       0.41674822
H       -1.49923735      -0.35583737      -1.26171599
H       -0.97037898       1.93737558      -0.06016494
H        1.60404494       1.49149864       0.46197311
11
Frame=6 idx=004388 GeodesicLength=0.6221440604690572 rxn_smarts="[O:1]=[C:2]1[N:3]([H:7])[C:4]([H:8])([H:9])[C:5]([H:10])=[C:6]1[H:11]>>[O:1]=[C:2]=[N:3][C:4]([C:5](=[C:6]([H:7])[H:11])[H:10])([H:8])[H:9]"
O        2.17708591      -1.36028662      -0.50815673
C        1.10606818      -0.87983143      -0.29693754
N       -0.11668945      -1.33332310      -0.01352705
C       -1.12897498      -0.32987983      -0.23004551
C       -0.46158824       0.99034894       0.02356869
C        0.82054757       0.76358139       0.34691663
H        0.47741622      -0.46474588       1.13238516
H       -1.99667429      -0.47625137       0.41808918
H       -1.50093250      -0.35789761      -1.26199778
H       -0.97026221       1.93920584      -0.07527010
H        1.59400380       1.50907965       0.46497506
11
Frame=7 idx=004388 GeodesicLength=0.7258311941258085 rxn_smarts="[O:1]=[C:2]1[N:3]([H:7])[C:4]([H:8])([H:9])[C:5]([H:10])=[C:6]1[H:11]>>[O:1]=[C:2]=[N:3][C:4]([C:5](=[C:6]([H:7])[H:11])[H:10])([H:8])[H:9]"
O        2.17787099      -1.37551680      -0.52150081
C        1.10896044      -0.88913704      -0.31505711
N       -0.10979145      -1.32513653      -0.00826779
C       -1.12809312      -0.32743661      -0.23172611
C       -0.46053244       0.99417222       0.02136204
C        0.81686024       0.77173780       0.36419031
H        0.47764261      -0.48432388       1.15476511
H       -1.99360896      -0.47161312       0.41984304
H       -1.50287741      -0.36039471      -1.26200570
H       -0.96996123       1.94105070      -0.09076715
H        1.58353033       1.52659797       0.46916416
11
Frame=8 idx=004388 GeodesicLength=0.8295435551042778 rxn_smarts="[O:1]=[C:2]1[N:3]([H:7])[C:4]([H:8])([H:9])[C:5]([H:10])=[C:6]1[H:11]>>[O:1]=[C:2]=[N:3][C:4]([C:5](=[C:6]([H:7])[H:11])[H:10])([H:8])[H:9]"
O        2.17851683      -1.39101964      -0.53499624
C        1.11166604      -0.89856927      -0.33414411
N       -0.10236107      -1.31649769      -0.00288651
C       -1.12703473      -0.32497357      -0.23332818
C       -0.45924040       0.99817363       0.01840480
C        0.81293532       0.78023134       0.38134053
H        0.47751219      -0.50422822       1.17752946
H       -1.99012740      -0.46678281       0.42198627
H       -1.50504599      -0.36332225      -1.26173013
H       -0.96947223       1.94289923      -0.10663886
H        1.57265144       1.54408925       0.47446297
11
Frame=9 idx=004388 GeodesicLength=0.9332324939560446 rxn_smarts="[O:1]=[C:2]1[N:3]([H:7])[C:4]([H:8])([H:9])[C:5]([H:10])=[C:6]1[H:11]>>[O:1]=[C:2]=[N:3][C:4]([C:5](=[C:6]([H:7])[H:11])[H:10])([H:8])[H:9]"
O        2.17896520      -1.40677392      -0.54872639
C        1.11416809      -0.90815891      -0.35420397
N       -0.09436768      -1.30738681       0.00265243
C       -1.12577412      -0.32250019      -0.23485140
C       -0.45769955       1.00235328       0.01470016
C        0.80877208       0.78907113       0.39840166
H        0.47694681      -0.52447870       1.20076526
H       -1.98622213      -0.46176187       0.42449157
H       -1.50738319      -0.36670283      -1.26117657
H       -0.96881976       1.94475182      -0.12289479
H        1.56141425       1.56158699       0.48084205
11
Frame=10 idx=004388 GeodesicLength=1.036950892501354 rxn_smarts="[O:1]=[C:2]1[N:3]([H:7])[C:4]([H:8])([H:9])[C:5]([H:10])=[C:6]1[H:11]>>[O:1]=[C:2]=[N:3][C:4]([C:5](=[C:6]([H:7])[H:11])[H:10])([H:8])[H:9]"
O        2.17923663      -1.42274529      -0.56268053
C        1.11641039      -0.91797511      -0.37527254
N       -0.08574386      -1.29775329       0.00834818
C       -1.12428894      -0.32001431      -0.23629311
C       -0.45588106       1.00670166       0.01027561
C        0.80433734       0.79828512       0.41541948
H        0.47581683      -0.54515122       1.22451597
H       -1.98187375      -0.45655734       0.42734112
H       -1.50986407      -0.37052156      -1.26032212
H       -0.96798531       1.94659635      -0.13951496
H        1.54983580       1.57913499       0.48818289
11
Frame=11 idx=004388 GeodesicLength=1.140686045584484 rxn_smarts="[O:1]=[C:2]1[N:3]([H:7])[C:4]([H:8])([H:9])[C:5]([H:10])=[C:6]1[H:11]>>[O:1]=[C:2]=[N:3][C:4]([C:5](=[C:6]([H:7])[H:11])[H:10])([H:8])[H:9]"
O        2.17931688      -1.43889712      -0.57690301
C        1.11835326      -0.92808391      -0.39735917
N       -0.07643389      -1.28755876       0.01420496
C       -1.12255104      -0.31752005      -0.23764759
C       -0.45375979       1.01121937       0.00515055
C        0.79961418       0.80789817       0.43243930
H        0.47400180      -0.56630174       1.24884289
H       -1.97706206      -0.45117923       0.43052629
H       -1.51245065      -0.37477884      -1.25915673
H       -0.96696975       1.94843056      -0.15650774
H        1.53794105       1.59677155       0.49641024
11
Frame=12 idx=004388 GeodesicLength=1.2444367921495132 rxn_smarts="[O:1]=[C:2]1[N:3]([H:7])[C:4]([H:8])([H:9])[C:5]([H:10])=[C:6]1[H:11]>>[O:1]=[C:2]=[N:3][C:4]([C:5](=[C:6]([H:7])[H:11])[H:10])([H:8])[H:9]"
O        2.17919174      -1.45517593      -0.59145573
C        1.11994220      -0.93856545      -0.42047079
N       -0.06637028      -1.27675352       0.02025157
C       -1.12052475      -0.31501844      -0.23890669
C       -0.45130441       1.01589747      -0.00065255
C        0.79457978       0.81794459       0.44950328
H        0.47135644      -0.58800633       1.27379926
H       -1.97176442      -0.44562609       0.43402600
H       -1.51509239      -0.37947769      -1.25765832
H       -0.96575896       1.95023755      -0.17387790
H        1.52574505       1.61454385       0.50544187
11
Frame=13 idx=004388 GeodesicLength=1.3481639620516155 rxn_smarts="[O:1]=[C:2]1[N:3]([H:7])[C:4]([H:8])([H:9])[C:5]([H:10])=[C:6]1[H:11]>>[O:1]=[C:2]=[N:3][C:4]([C:5](=[C:6]([H:7])[H:11])[H:10])([H:8])[H:9]"
O        2.17885411      -1.47153452      -0.60638868
C        1.12112313      -0.94949037      -0.44461926
N       -0.05548602      -1.26528932       0.02650071
C       -1.11817516      -0.31251377      -0.24005393
C       -0.44849160       1.02074147      -0.00711182
C        0.78922400       0.82846194       0.46666559
H        0.46773390      -0.61035499       1.29942154
H       -1.96595528      -0.43990788       0.43784174
H       -1.51774790      -0.38462476      -1.25580645
H       -0.96434943       1.95201676      -0.19165508
H        1.51327025       1.63249544       0.51520563
11
Frame=14 idx=004388 GeodesicLength=1.4518742063841683 rxn_smarts="[O:1]=[C:2]1[N:3]([H:7])[C:4]([H:8])([H:9])[C:5]([H:10])=[C:6]1[H:11]>>[O:1]=[C:2]=[N:3][C:4]([C:5](=[C:6]([H:7])[H:11])[H:10])([H:8])[H:9]"
O        2.17830674      -1.48789609      -0.62176288
C        1.12181904      -0.96097356      -0.46980468
N       -0.04368961      -1.25310094       0.03296893
C       -1.11545680      -0.31000679      -0.24107447
C       -0.44528021       1.02574267      -0.01419148
C        0.78351663       0.83949851       0.48396771
H        0.46293938      -0.63344344       1.32574813
H       -1.95959755      -0.43403052       0.44196403
H       -1.52036739      -0.39021327      -1.25356589
H       -0.96271004       1.95374514      -0.20984674
H        1.50051982       1.65067832       0.52559733
11
Frame=15 idx=004388 GeodesicLength=1.555544545539912 rxn_smarts="[O:1]=[C:2]1[N:3]([H:7])[C:4]([H:8])([H:9])[C:5]([H:10])=[C:6]1[H:11]>>[O:1]=[C:2]=[N:3][C:4]([C:5](=[C:6]([H:7])[H:11])[H:10])([H:8])[H:9]"
O        2.17754903      -1.50417868      -0.63765907
C        1.12194564      -0.97313196      -0.49601695
N       -0.03088536      -1.24011799       0.03967604
C       -1.11232194      -0.30750132      -0.24194255
C       -0.44163747       1.03090572      -0.02186724
C        0.77743819       0.85111428       0.50146434
H        0.45677546      -0.65739208       1.35278978
H       -1.95265107      -0.42800274       0.44640423
H       -1.52290515      -0.39625354      -1.25089588
H       -0.96081896       1.95541162      -0.22850562
H        1.48751162       1.66914669       0.53655292
11
Frame=16 idx=004388 GeodesicLength=1.6591547470477683 rxn_smarts="[O:1]=[C:2]1[N:3]([H:7])[C:4]([H:8])([H:9])[C:5]([H:10])=[C:6]1[H:11]>>[O:1]=[C:2]=[N:3][C:4]([C:5](=[C:6]([H:7])[H:11])[H:10])([H:8])[H:9]"
O        2.17659020      -1.52028903      -0.65416407
C        1.12139845      -0.98610698      -0.52323262
N       -0.01696502      -1.22625888       0.04664452
C       -1.10871489      -0.30499867      -0.24262825
C       -0.43752582       1.03623138      -0.03010845
C        0.77096230       0.86338166       0.51921098
H        0.44902438      -0.68234187       1.38053873
H       -1.94506712      -0.42183048       0.45117316
H       -1.52531042      -0.40274940      -1.24774506
H       -0.95864530       1.95699529      -0.24768494
H        1.47425325       1.68796698       0.54799599
