16
Frame=0 idx=006459 GeodesicLength=0.0 rxn_smarts="[C:1]([O:2][C:3]([C:4]([H:11])([H:12])[H:13])([C:5]([H:14])([H:15])[H:16])[C:6]#[N:7])([H:8])([H:9])[H:10]>>[C:1]([O:2][N:7]=[C:6]=[C:3]([C:4]([H:11])([H:12])[H:13])[C:5]([H:14])([H:15])[H:16])([H:8])([H:9])[H:10]"
C        2.56202265       0.86103173      -0.32892733
O        1.20228478       0.82235997      -0.10085469
C       -1.07099630      -0.08369417       0.17133819
C       -1.45964796      -0.65775518      -1.14627258
C       -1.04676474      -0.95374387       1.37911259
C       -0.93643476       1.26188321       0.30621525
N       -0.28122349       2.24312894       0.31093101
H        3.13083726       1.21548227       0.54294882
H        2.90751218      -0.16370724      -0.54299134
H        2.82645335       1.47337203      -1.20328124
H       -0.88897397      -1.57006433      -1.32538259
H       -1.28011293       0.04700249      -1.95460360
H       -2.52016086      -0.93152514      -1.13914001
H       -2.06501915      -1.26057726       1.64104674
H       -0.60023778      -0.44361460       2.22927208
H       -0.47953824      -1.85957881       1.16058875
16
Frame=1 idx=006459 GeodesicLength=0.05365296281764813 rxn_smarts="[C:1]([O:2][C:3]([C:4]([H:11])([H:12])[H:13])([C:5]([H:14])([H:15])[H:16])[C:6]#[N:7])([H:8])([H:9])[H:10]>>[C:1]([O:2][N:7]=[C:6]=[C:3]([C:4]([H:11])([H:12])[H:13])[C:5]([H:14])([H:15])[H:16])([H:8])([H:9])[H:10]"
C        2.56159570       0.86716803      -0.32897808
O        1.19204797       0.79448706      -0.16383156
C       -1.04592067      -0.08977621       0.16821607
C       -1.46828922      -0.65805474      -1.14299283
C       -1.04280639      -0.95830852       1.37904828
C       -0.92316542       1.25885220       0.30764840
N       -0.25427408       2.23211359       0.30230240
H        3.07971780       1.23911993       0.56653269
H        2.94335785      -0.14756434      -0.52495060
H        2.84519404       1.48728458      -1.19132507
H       -0.91663806      -1.58069040      -1.32913399
H       -1.28870591       0.04250550      -1.95514493
H       -2.53340262      -0.91144596      -1.11956475
H       -2.06711481      -1.24426827       1.64025538
H       -0.58832780      -0.45592341       2.22977136
H       -0.49326838      -1.87549906       1.16214724
16
Frame=2 idx=006459 GeodesicLength=0.10453457242706449 rxn_smarts="[C:1]([O:2][C:3]([C:4]([H:11])([H:12])[H:13])([C:5]([H:14])([H:15])[H:16])[C:6]#[N:7])([H:8])([H:9])[H:10]>>[C:1]([O:2][N:7]=[C:6]=[C:3]([C:4]([H:11])([H:12])[H:13])[C:5]([H:14])([H:15])[H:16])([H:8])([H:9])[H:10]"
C        2.55841633       0.87201745      -0.32701189
O        1.18434425       0.76853303      -0.20860285
C       -1.02021042      -0.09565048       0.16410731
C       -1.47538719      -0.65607068      -1.14092060
C       -1.03727003      -0.96384292       1.37673487
C       -0.90960030       1.25567047       0.31001960
N       -0.22871256       2.22161767       0.29577978
H        3.03446727       1.27615788       0.57736091
H        2.97223954      -0.13522159      -0.48998789
H        2.85181505       1.48458894      -1.19065474
H       -0.94241630      -1.58801553      -1.33501901
H       -1.29621261       0.04132905      -1.95591451
H       -2.54430090      -0.88962928      -1.10180567
H       -2.06694218      -1.22976187       1.63701026
H       -0.57515638      -0.47035034       2.22858086
H       -0.50507356      -1.89137182       1.16032356
16
Frame=3 idx=006459 GeodesicLength=0.15574482992989946 rxn_smarts="[C:1]([O:2][C:3]([C:4]([H:11])([H:12])[H:13])([C:5]([H:14])([H:15])[H:16])[C:6]#[N:7])([H:8])([H:9])[H:10]>>[C:1]([O:2][N:7]=[C:6]=[C:3]([C:4]([H:11])([H:12])[H:13])[C:5]([H:14])([H:15])[H:16])([H:8])([H:9])[H:10]"
C        2.55301698       0.87569283      -0.32487316
O        1.17576016       0.74643225      -0.25234426
C       -0.99446972      -0.10112002       0.15983851
C       -1.48058416      -0.65416466      -1.13881320
C       -1.03062871      -0.96849807       1.37451440
C       -0.89660237       1.25299622       0.31205019
N       -0.20532345       2.21260328       0.28878049
H        2.98887889       1.30514944       0.58788655
H        2.99277315      -0.12413052      -0.45819724
H        2.85867604       1.48309517      -1.18757035
H       -0.96521710      -1.59447587      -1.34022258
H       -1.30232366       0.04010566      -1.95681156
H       -2.55247557      -0.86928080      -1.08459940
H       -2.06499264      -1.21571561       1.63379528
H       -0.56186665      -0.48326515       2.22759370
H       -0.51462117      -1.90542414       1.15897263
16
Frame=4 idx=006459 GeodesicLength=0.21066786089155903 rxn_smarts="[C:1]([O:2][C:3]([C:4]([H:11])([H:12])[H:13])([C:5]([H:14])([H:15])[H:16])[C:6]#[N:7])([H:8])([H:9])[H:10]>>[C:1]([O:2][N:7]=[C:6]=[C:3]([C:4]([H:11])([H:12])[H:13])[C:5]([H:14])([H:15])[H:16])([H:8])([H:9])[H:10]"
C        2.54285217       0.87664808      -0.32219807
O        1.16364663       0.73151344      -0.30651073
C       -0.96780363      -0.10535034       0.15514313
C       -1.48354454      -0.65299507      -1.13604327
C       -1.02015198      -0.97059657       1.37267319
C       -0.88453972       1.25172449       0.31235980
N       -0.18534622       2.20646969       0.27851989
H        2.93471439       1.31368355       0.60598248
H        3.00063614      -0.11656097      -0.43685051
H        2.87095105       1.48899942      -1.17201311
H       -0.98390063      -1.60042625      -1.34380796
H       -1.30805894       0.03768231      -1.95777035
H       -2.55740788      -0.85197608      -1.06631405
H       -2.05814846      -1.20118313       1.63185626
H       -0.54547446      -0.49194720       2.22627897
H       -0.51842393      -1.91568537       1.15869432
16
Frame=5 idx=006459 GeodesicLength=0.26576638537356106 rxn_smarts="[C:1]([O:2][C:3]([C:4]([H:11])([H:12])[H:13])([C:5]([H:14])([H:15])[H:16])[C:6]#[N:7])([H:8])([H:9])[H:10]>>[C:1]([O:2][N:7]=[C:6]=[C:3]([C:4]([H:11])([H:12])[H:13])[C:5]([H:14])([H:15])[H:16])([H:8])([H:9])[H:10]"
C        2.53093964       0.87621296      -0.31683033
O        1.15163218       0.71915558      -0.35619752
C       -0.94132942      -0.10889077       0.14887363
C       -1.48753780      -0.65127884      -1.13380225
C       -1.00625697      -0.97221424       1.36920395
C       -0.87303259       1.25104433       0.31134042
N       -0.16760761       2.20193557       0.26557372
H        2.88066449       1.32242593       0.62324107
H        3.00268096      -0.11200849      -0.40919976
H        2.88198721       1.48995202      -1.15565095
H       -1.00289995      -1.60494928      -1.34865557
H       -1.31699197       0.03615820      -1.95940478
H       -2.56256777      -0.83549079      -1.04708435
H       -2.04684855      -1.18761523       1.63020525
H       -0.52478723      -0.49987529       2.22263178
H       -0.51804462      -1.92456165       1.15575567
16
Frame=6 idx=006459 GeodesicLength=0.31911508543753075 rxn_smarts="[C:1]([O:2][C:3]([C:4]([H:11])([H:12])[H:13])([C:5]([H:14])([H:15])[H:16])[C:6]#[N:7])([H:8])([H:9])[H:10]>>[C:1]([O:2][N:7]=[C:6]=[C:3]([C:4]([H:11])([H:12])[H:13])[C:5]([H:14])([H:15])[H:16])([H:8])([H:9])[H:10]"
C        2.51988476       0.87620388      -0.31010222
O        1.14227809       0.70507407      -0.39382253
C       -0.91586481      -0.11270770       0.14178450
C       -1.49234145      -0.64876816      -1.13215635
C       -0.99257411      -0.97473576       1.36442689
C       -0.86129765       1.24977602       0.31042707
N       -0.15008036       2.19690280       0.25273529
H        2.83291957       1.34039946       0.63375147
H        3.00497009      -0.10704034      -0.37362103
H        2.88747002       1.48407573      -1.14541052
H       -1.02301729      -1.60840145      -1.35449584
H       -1.32682903       0.03584771      -1.96122291
H       -2.56808075      -0.81810164      -1.02850179
H       -2.03539667      -1.17502553       1.62768869
H       -0.50391626      -0.50944675       2.21772766
H       -0.51812415      -1.93405235       1.15079163
16
Frame=7 idx=006459 GeodesicLength=0.3734489299306338 rxn_smarts="[C:1]([O:2][C:3]([C:4]([H:11])([H:12])[H:13])([C:5]([H:14])([H:15])[H:16])[C:6]#[N:7])([H:8])([H:9])[H:10]>>[C:1]([O:2][N:7]=[C:6]=[C:3]([C:4]([H:11])([H:12])[H:13])[C:5]([H:14])([H:15])[H:16])([H:8])([H:9])[H:10]"
C        2.50767481       0.87529938      -0.30204054
O        1.13296778       0.69260290      -0.43016582
C       -0.89070431      -0.11607650       0.13376029
C       -1.49737813      -0.64626459      -1.13055820
C       -0.97712356      -0.97660135       1.35897491
C       -0.84978925       1.24886751       0.30845770
N       -0.13401871       2.19289658       0.23773757
H        2.78477675       1.35492514       0.64490374
H        3.00310161      -0.10339237      -0.33796074
H        2.89296558       1.47809408      -1.13236502
H       -1.04294147      -1.61135742      -1.36024669
H       -1.33796563       0.03548596      -1.96329089
H       -2.57317916      -0.80151812      -1.00937693
H       -2.02153815      -1.16261403       1.62555780
H       -0.48092842      -0.51798871       2.21163966
H       -0.51591973      -1.94235843       1.14497316
16
Frame=8 idx=006459 GeodesicLength=0.4285319877496284 rxn_smarts="[C:1]([O:2][C:3]([C:4]([H:11])([H:12])[H:13])([C:5]([H:14])([H:15])[H:16])[C:6]#[N:7])([H:8])([H:9])[H:10]>>[C:1]([O:2][N:7]=[C:6]=[C:3]([C:4]([H:11])([H:12])[H:13])[C:5]([H:14])([H:15])[H:16])([H:8])([H:9])[H:10]"
C        2.49463273       0.87388727      -0.29356411
O        1.12393193       0.68112730      -0.46451136
C       -0.86586076      -0.11920824       0.12538047
C       -1.50187395      -0.64367985      -1.12891904
C       -0.96117528      -0.97815097       1.35326187
C       -0.83830402       1.24806010       0.30622930
N       -0.11893060       2.18945109       0.22197736
H        2.73738336       1.36749441       0.65521087
H        2.99815982      -0.10051390      -0.30298623
H        2.89736629       1.47198942      -1.11832499
H       -1.06201973      -1.61387050      -1.36556879
H       -1.34877901       0.03519867      -1.96529228
H       -2.57723898      -0.78531583      -0.99045795
H       -2.00683679      -1.15040079       1.62338005
H       -0.45760771      -0.52609587       2.20520335
H       -0.51284730      -1.94997232       1.13898145
16
Frame=9 idx=006459 GeodesicLength=0.486140298753944 rxn_smarts="[C:1]([O:2][C:3]([C:4]([H:11])([H:12])[H:13])([C:5]([H:14])([H:15])[H:16])[C:6]#[N:7])([H:8])([H:9])[H:10]>>[C:1]([O:2][N:7]=[C:6]=[C:3]([C:4]([H:11])([H:12])[H:13])[C:5]([H:14])([H:15])[H:16])([H:8])([H:9])[H:10]"
C        2.47986186       0.87086058      -0.28180369
O        1.11483157       0.67169117      -0.50001213
C       -0.84117917      -0.12144337       0.11468725
C       -1.50849570      -0.64123461      -1.12736604
C       -0.94085687      -0.97841489       1.34586314
C       -0.82709898       1.24809075       0.30128032
N       -0.10591642       2.18772532       0.20088320
H        2.68650123       1.37490177       0.66956931
H        2.98814345      -0.10016892      -0.26576289
H        2.90383107       1.46566418      -1.09750197
H       -1.08291087      -1.61600070      -1.37133473
H       -1.36448224       0.03457147      -1.96794762
H       -2.58248121      -0.77032996      -0.96912297
H       -1.98663491      -1.13801224       1.62244177
H       -0.42818181      -0.53217547       2.19553420
H       -0.50493100      -1.95572507       1.13059286
16
Frame=10 idx=006459 GeodesicLength=0.5444614974818264 rxn_smarts="[C:1]([O:2][C:3]([C:4]([H:11])([H:12])[H:13])([C:5]([H:14])([H:15])[H:16])[C:6]#[N:7])([H:8])([H:9])[H:10]>>[C:1]([O:2][N:7]=[C:6]=[C:3]([C:4]([H:11])([H:12])[H:13])[C:5]([H:14])([H:15])[H:16])([H:8])([H:9])[H:10]"
C        2.46560614       0.86773239      -0.26714227
O        1.10773540       0.66103139      -0.53098262
C       -0.81741108      -0.12361835       0.10184847
C       -1.51790434      -0.63871280      -1.12601302
C       -0.91832661      -0.97858064       1.33662492
C       -0.81565959       1.24803757       0.29435696
N       -0.09365167       2.18613483       0.17585852
H        2.63667955       1.38461375       0.68397632
H        2.97781998      -0.09956978      -0.22319620
H        2.90998692       1.45728474      -1.07504073
H       -1.10715685      -1.61789776      -1.37772690
H       -1.38473475       0.03396945      -1.97099450
H       -2.58966106      -0.75533705      -0.94601345
H       -1.96336074      -1.12568189       1.62204699
H       -0.39475272      -0.53820909       2.18280255
H       -0.49520857      -1.96119676       1.11959494
16
Frame=11 idx=006459 GeodesicLength=0.6039449224374785 rxn_smarts="[C:1]([O:2][C:3]([C:4]([H:11])([H:12])[H:13])([C:5]([H:14])([H:15])[H:16])[C:6]#[N:7])([H:8])([H:9])[H:10]>>[C:1]([O:2][N:7]=[C:6]=[C:3]([C:4]([H:11])([H:12])[H:13])[C:5]([H:14])([H:15])[H:16])([H:8])([H:9])[H:10]"
C        2.45152120       0.86448043      -0.25040594
O        1.10227824       0.64949477      -0.55880178
C       -0.79440136      -0.12573874       0.08734212
C       -1.52911987      -0.63615450      -1.12464153
C       -0.89424580      -0.97859213       1.32600533
C       -0.80389311       1.24792554       0.28592086
N       -0.08194970       2.18458638       0.14776526
H        2.58743371       1.39507978       0.69841431
H        2.96670569      -0.09869531      -0.17754391
H        2.91578673       1.44802829      -1.05074285
H       -1.13368859      -1.61963533      -1.38413604
H       -1.40801868       0.03330852      -1.97410282
H       -2.59781340      -0.74031629      -0.92160224
H       -1.93782047      -1.11330687       1.62196674
H       -0.35854273      -0.54410810       2.16772155
H       -0.48423186      -1.96635645       1.10684095
16
Frame=12 idx=006459 GeodesicLength=0.6657243697403059 rxn_smarts="[C:1]([O:2][C:3]([C:4]([H:11])([H:12])[H:13])([C:5]([H:14])([H:15])[H:16])[C:6]#[N:7])([H:8])([H:9])[H:10]>>[C:1]([O:2][N:7]=[C:6]=[C:3]([C:4]([H:11])([H:12])[H:13])[C:5]([H:14])([H:15])[H:16])([H:8])([H:9])[H:10]"
C        2.43760419       0.86094004      -0.23033044
O        1.09886512       0.63677128      -0.58388885
C       -0.77224517      -0.12771491       0.07020507
C       -1.54347548      -0.63361722      -1.12321939
C       -0.86731834      -0.97824938       1.31323095
C       -0.79167543       1.24790593       0.27491327
N       -0.07089932       2.18316120       0.11462440
H        2.53752049       1.40617069       0.71425315
H        2.95469342      -0.09761105      -0.12681939
H        2.92227412       1.43768899      -1.02276037
H       -1.16411359      -1.62129681      -1.39078869
H       -1.43665716       0.03246919      -1.97737492
H       -2.60793449      -0.72534218      -0.89471028
H       -1.90833614      -1.10068619       1.62254509
H       -0.31737944      -0.54955891       2.14883507
H       -0.47092277      -1.97103068       1.09128534
16
Frame=13 idx=006459 GeodesicLength=0.7349384705930966 rxn_smarts="[C:1]([O:2][C:3]([C:4]([H:11])([H:12])[H:13])([C:5]([H:14])([H:15])[H:16])[C:6]#[N:7])([H:8])([H:9])[H:10]>>[C:1]([O:2][N:7]=[C:6]=[C:3]([C:4]([H:11])([H:12])[H:13])[C:5]([H:14])([H:15])[H:16])([H:8])([H:9])[H:10]"
C        2.41982711       0.85455314      -0.20609768
O        1.09523493       0.62681871      -0.61439071
C       -0.74960280      -0.12814875       0.04970101
C       -1.55983862      -0.63126108      -1.12123612
C       -0.83411452      -0.97556789       1.29798457
C       -0.77911269       1.24941686       0.25993034
N       -0.06184955       2.18384865       0.07416139
H        2.47933866       1.40795914       0.73674641
H        2.93425008      -0.10121958      -0.07469333
H        2.93122606       1.42833144      -0.98300673
H       -1.19638581      -1.62272323      -1.39683466
H       -1.47105544       0.03090626      -1.98058875
H       -2.61839392      -0.71169568      -0.86392504
H       -1.87096425      -1.08690494       1.62436103
H       -0.26773004      -0.55146348       2.12497740
H       -0.45082920      -1.97284958       1.07291088
16
Frame=14 idx=006459 GeodesicLength=0.8045828182956334 rxn_smarts="[C:1]([O:2][C:3]([C:4]([H:11])([H:12])[H:13])([C:5]([H:14])([H:15])[H:16])[C:6]#[N:7])([H:8])([H:9])[H:10]>>[C:1]([O:2][N:7]=[C:6]=[C:3]([C:4]([H:11])([H:12])[H:13])[C:5]([H:14])([H:15])[H:16])([H:8])([H:9])[H:10]"
C        2.40422169       0.84966889      -0.17978827
O        1.09527275       0.61276562      -0.63737792
C       -0.72855326      -0.12946483       0.02732312
C       -1.57895589      -0.62870063      -1.11903404
C       -0.80108329      -0.97390360       1.28079231
C       -0.76557572       1.24999145       0.24366803
N       -0.05176141       2.18260913       0.03126305
H        2.42483356       1.41656134       0.75625483
H        2.91719173      -0.10114509      -0.01651281
H        2.93858177       1.41730090      -0.94494363
H       -1.23293856      -1.62415643      -1.40265673
H       -1.50884695       0.02959810      -1.98319130
H       -2.63044112      -0.69682995      -0.83184295
H       -1.83294941      -1.07327512       1.62568532
H       -0.21681710      -0.55513130       2.09810684
H       -0.43217879      -1.97588848       1.05225416
16
Frame=15 idx=006459 GeodesicLength=0.8754152762038886 rxn_smarts="[C:1]([O:2][C:3]([C:4]([H:11])([H:12])[H:13])([C:5]([H:14])([H:15])[H:16])[C:6]#[N:7])([H:8])([H:9])[H:10]>>[C:1]([O:2][N:7]=[C:6]=[C:3]([C:4]([H:11])([H:12])[H:13])[C:5]([H:14])([H:15])[H:16])([H:8])([H:9])[H:10]"
C        2.38896603       0.84534122      -0.15279094
O        1.09718270       0.59691965      -0.65692287
C       -0.70838857      -0.13115717       0.00403865
C       -1.59856566      -0.62596122      -1.11633665
C       -0.76838123      -0.97259075       1.26262166
C       -0.75129070       1.25017061       0.22680005
N       -0.04104639       2.18019243      -0.01267428
H        2.37168957       1.42680772       0.77389160
H        2.90027665      -0.09939061       0.04296465
H        2.94444027       1.40634240      -0.90694835
H       -1.27068080      -1.62541494      -1.40742911
H       -1.54726817       0.02846661      -1.98486366
H       -2.64196223      -0.68133588      -0.79928451
H       -1.79466645      -1.05962019       1.62640382
H       -0.16592875      -0.55949022       2.06965710
H       -0.41437628      -1.97927967       1.03087286
16
Frame=16 idx=006459 GeodesicLength=0.9479514666367092 rxn_smarts="[C:1]([O:2][C:3]([C:4]([H:11])([H:12])[H:13])([C:5]([H:14])([H:15])[H:16])[C:6]#[N:7])([H:8])([H:9])[H:10]>>[C:1]([O:2][N:7]=[C:6]=[C:3]([C:4]([H:11])([H:12])[H:13])[C:5]([H:14])([H:15])[H:16])([H:8])([H:9])[H:10]"
C        2.37302165       0.84098136      -0.12568908
O        1.10002389       0.58057103      -0.67521801
C       -0.68871173      -0.13290076      -0.01972620
C       -1.61762713      -0.62304685      -1.11304816
C       -0.73585679      -0.97122987       1.24391959
C       -0.73639007       1.25030772       0.20956971
N       -0.02995548       2.17710208      -0.05704783
H        2.31853032       1.43615200       0.79036181
H        2.88165864      -0.09727863       0.10166496
H        2.94887593       1.39606096      -0.86808227
H       -1.30809035      -1.62638878      -1.41085705
H       -1.58517102       0.02749228      -1.98551467
H       -2.65200827      -0.66557740      -0.76658574
H       -1.75605960      -1.04584293       1.62653276
H       -0.11539757      -0.56388750       2.04027152
H       -0.39684242      -1.98251472       1.00944869
