12
Frame=0 idx=009617 GeodesicLength=0.0 rxn_smarts="[C:1]([O:2][c:3]1[n:4][o:5][c:6]([H:11])[c:7]1[H:12])([H:8])([H:9])[H:10]>>[C:1]([O:2][C:3]1=[C:7]=[C:6]([H:11])[O:5][N:4]1[H:12])([H:8])([H:9])[H:10]"
C       -0.49285037      -1.89813008      -0.65509841
O       -0.33168281      -0.58183003      -1.17292324
C        0.05629259       0.37102476      -0.32917198
N        0.05044912       0.10977557       1.07649005
O        0.20585212       1.28812576       1.61049875
C        0.29895172       2.25047509       0.60256904
C        0.22830741       1.76421022      -0.65884428
H        0.44523373      -2.27266456      -0.23612831
H       -1.26545461      -1.92499822       0.11478802
H       -0.78584977      -2.51274741      -1.50178755
H        0.41173238       3.23943656       1.02086056
H        1.17901847       0.16732230       0.12874735
12
Frame=1 idx=009617 GeodesicLength=0.09624786174381206 rxn_smarts="[C:1]([O:2][c:3]1[n:4][o:5][c:6]([H:11])[c:7]1[H:12])([H:8])([H:9])[H:10]>>[C:1]([O:2][C:3]1=[C:7]=[C:6]([H:11])[O:5][N:4]1[H:12])([H:8])([H:9])[H:10]"
C       -0.49652948      -1.89942372      -0.65542376
O       -0.34035540      -0.58248221      -1.17256543
C        0.04291509       0.36978988      -0.32695787
N        0.06222217       0.10901194       1.07104192
O        0.19493905       1.29104996       1.61244382
C        0.28296710       2.25153592       0.60525338
C        0.25623282       1.75564930      -0.65382136
H        0.44327124      -2.27302176      -0.23963673
H       -1.26678006      -1.92829034       0.11692737
H       -0.79099158      -2.51444613      -1.50134626
H        0.40831716       3.24047351       1.01997873
H        1.20379189       0.18015365       0.12410619
12
Frame=2 idx=009617 GeodesicLength=0.19212294343781824 rxn_smarts="[C:1]([O:2][c:3]1[n:4][o:5][c:6]([H:11])[c:7]1[H:12])([H:8])([H:9])[H:10]>>[C:1]([O:2][C:3]1=[C:7]=[C:6]([H:11])[O:5][N:4]1[H:12])([H:8])([H:9])[H:10]"
C       -0.50028680      -1.90056220      -0.65574964
O       -0.34862616      -0.58308049      -1.17228360
C        0.02969468       0.36872261      -0.32481299
N        0.07411154       0.10843134       1.06532121
O        0.18411837       1.29378666       1.61415170
C        0.26885030       2.25220613       0.60747094
C        0.28266570       1.74676278      -0.64785948
H        0.44105237      -2.27336944      -0.24289955
H       -1.26835901      -1.93115822       0.11888306
H       -0.79615275      -2.51600281      -1.50091416
H        0.40365509       3.24134755       1.01883093
H        1.22927666       0.19291611       0.11986159
12
Frame=3 idx=009617 GeodesicLength=0.2877804850320086 rxn_smarts="[C:1]([O:2][c:3]1[n:4][o:5][c:6]([H:11])[c:7]1[H:12])([H:8])([H:9])[H:10]>>[C:1]([O:2][C:3]1=[C:7]=[C:6]([H:11])[O:5][N:4]1[H:12])([H:8])([H:9])[H:10]"
C       -0.50408070      -1.90158803      -0.65607985
O       -0.35659902      -0.58364268      -1.17207860
C        0.01634164       0.36785798      -0.32273374
N        0.08599188       0.10803388       1.05930517
O        0.17331631       1.29631620       1.61562134
C        0.25657306       2.25252479       0.60931856
C        0.30764109       1.73756466      -0.64113949
H        0.43867026      -2.27365057      -0.24594169
H       -1.27013602      -1.93374437       0.12066594
H       -0.80123966      -2.51748312      -1.50049489
H        0.39811086       3.24213928       1.01748353
H        1.25541032       0.20567199       0.11607370
12
Frame=4 idx=009617 GeodesicLength=0.38334956943931264 rxn_smarts="[C:1]([O:2][c:3]1[n:4][o:5][c:6]([H:11])[c:7]1[H:12])([H:8])([H:9])[H:10]>>[C:1]([O:2][C:3]1=[C:7]=[C:6]([H:11])[O:5][N:4]1[H:12])([H:8])([H:9])[H:10]"
C       -0.50783636      -1.90254959      -0.65642468
O       -0.36438845      -0.58418463      -1.17194295
C        0.00251539       0.36723644      -0.32069342
N        0.09768333       0.10783111       1.05297989
O        0.16237141       1.29864725       1.61686849
C        0.24585858       2.25255559       0.61087029
C        0.33109910       1.72806900      -0.63381795
H        0.43626130      -2.27378310      -0.24878633
H       -1.27203026      -1.93623003       0.12227297
H       -0.80609332      -2.51896087      -1.50010887
H        0.39246859       3.24282615       1.01596330
H        1.28209068       0.21854268       0.11281926
12
Frame=5 idx=009617 GeodesicLength=0.47892575789425756 rxn_smarts="[C:1]([O:2][c:3]1[n:4][o:5][c:6]([H:11])[c:7]1[H:12])([H:8])([H:9])[H:10]>>[C:1]([O:2][C:3]1=[C:7]=[C:6]([H:11])[O:5][N:4]1[H:12])([H:8])([H:9])[H:10]"
C       -0.51150578      -1.90347846      -0.65679172
O       -0.37210624      -0.58471802      -1.17187450
C       -0.01207030       0.36689563      -0.31867352
N        0.10904637       0.10784300       1.04632550
O        0.15123479       1.30079146       1.61787946
C        0.23649297       2.25235810       0.61217658
C        0.35306698       1.71825768      -0.62602521
H        0.43392635      -2.27368793      -0.25145733
H       -1.27398048      -1.93874576       0.12370871
H       -0.81060234      -2.52049297      -1.49976908
H        0.38723673       3.24334827       1.01430648
H        1.30926096       0.23162900       0.11019463
12
Frame=6 idx=009617 GeodesicLength=0.574532196185305 rxn_smarts="[C:1]([O:2][c:3]1[n:4][o:5][c:6]([H:11])[c:7]1[H:12])([H:8])([H:9])[H:10]>>[C:1]([O:2][C:3]1=[C:7]=[C:6]([H:11])[O:5][N:4]1[H:12])([H:8])([H:9])[H:10]"
C       -0.51505377      -1.90439642      -0.65719337
O       -0.37985438      -0.58523665      -1.17184603
C       -0.02764657       0.36685891      -0.31662919
N        0.11996691       0.10807592       1.03933136
O        0.13988205       1.30276281       1.61866849
C        0.22830135       2.25197397       0.61326568
C        0.37358203       1.70809149      -0.61786589
H        0.43174681      -2.27330557      -0.25399728
H       -1.27593576      -1.94141575       0.12497556
H       -0.81468666      -2.52210130      -1.49950409
H        0.38279834       3.24368217       1.01249626
H        1.33689964       0.24501042       0.10829849
12
Frame=7 idx=009617 GeodesicLength=0.6702785267338374 rxn_smarts="[C:1]([O:2][c:3]1[n:4][o:5][c:6]([H:11])[c:7]1[H:12])([H:8])([H:9])[H:10]>>[C:1]([O:2][C:3]1=[C:7]=[C:6]([H:11])[O:5][N:4]1[H:12])([H:8])([H:9])[H:10]"
C       -0.51846099      -1.90531002      -0.65764332
O       -0.38774884      -0.58572006      -1.17182242
C       -0.04444072       0.36715541      -0.31451637
N        0.13034772       0.10854041       1.03197341
O        0.12837035       1.30457963       1.61922903
C        0.22118169       2.25143165       0.61414343
C        0.39273116       1.69747232      -0.60942524
H        0.42979025      -2.27256470      -0.25646600
H       -1.27784665      -1.94434134       0.12608333
H       -0.81829799      -2.52378381      -1.49934430
H        0.37934255       3.24379208       1.01050346
H        1.36503146       0.25874843       0.10728499
12
Frame=8 idx=009617 GeodesicLength=0.7661927028903482 rxn_smarts="[C:1]([O:2][c:3]1[n:4][o:5][c:6]([H:11])[c:7]1[H:12])([H:8])([H:9])[H:10]>>[C:1]([O:2][C:3]1=[C:7]=[C:6]([H:11])[O:5][N:4]1[H:12])([H:8])([H:9])[H:10]"
C       -0.52171514      -1.90621855      -0.65815878
O       -0.39591250      -0.58613699      -1.17175560
C       -0.06263276       0.36779805      -0.31227677
N        0.14010760       0.10922930       1.02424123
O        0.11674906       1.30626697       1.61956569
C        0.21501543       2.25073461       0.61479751
C        0.41060166       1.68630845      -0.60077460
H        0.42811587      -2.27140376      -0.25894084
H       -1.27966236      -1.94762347       0.12704562
H       -0.82140752      -2.52552058      -1.49932750
H        0.37703099       3.24366342       1.00826597
H        1.39370967       0.27290253       0.10731806
12
Frame=9 idx=009617 GeodesicLength=0.8627270170631772 rxn_smarts="[C:1]([O:2][c:3]1[n:4][o:5][c:6]([H:11])[c:7]1[H:12])([H:8])([H:9])[H:10]>>[C:1]([O:2][C:3]1=[C:7]=[C:6]([H:11])[O:5][N:4]1[H:12])([H:8])([H:9])[H:10]"
C       -0.52479991      -1.90708281      -0.65876227
O       -0.40452515      -0.58639312      -1.17153826
C       -0.08249199       0.36882793      -0.30983189
N        0.14912235       0.11016031       1.01606657
O        0.10515432       1.30786167       1.61963151
C        0.20976739       2.24984726       0.61515100
C        0.42722309       1.67431117      -0.59196017
H        0.42680642      -2.26969253      -0.26155817
H       -1.28128729      -1.95135977       0.12788973
H       -0.82399507      -2.52722010      -1.49951529
H        0.37593181       3.24321504       1.00566022
H        1.42309404       0.28752496       0.10876702
12
Frame=10 idx=009617 GeodesicLength=0.9594889409046237 rxn_smarts="[C:1]([O:2][c:3]1[n:4][o:5][c:6]([H:11])[c:7]1[H:12])([H:8])([H:9])[H:10]>>[C:1]([O:2][C:3]1=[C:7]=[C:6]([H:11])[O:5][N:4]1[H:12])([H:8])([H:9])[H:10]"
C       -0.52772636      -1.90791460      -0.65948370
O       -0.41377902      -0.58648606      -1.17114825
C       -0.10403861       0.37023771      -0.30713097
N        0.15736750       0.11128641       1.00748275
O        0.09356956       1.30939820       1.61945348
C        0.20537076       2.24877617       0.61517962
C        0.44277132       1.66141844      -0.58303256
H        0.42591923      -2.26737924      -0.26447491
H       -1.28263516      -1.95565232       0.12866122
H       -0.82612063      -2.52888147      -1.49993075
H        0.37609536       3.24247207       1.00259111
H        1.45320605       0.30272470       0.11183296
12
Frame=11 idx=009617 GeodesicLength=1.0563370392478022 rxn_smarts="[C:1]([O:2][c:3]1[n:4][o:5][c:6]([H:11])[c:7]1[H:12])([H:8])([H:9])[H:10]>>[C:1]([O:2][C:3]1=[C:7]=[C:6]([H:11])[O:5][N:4]1[H:12])([H:8])([H:9])[H:10]"
C       -0.53050268      -1.90870862      -0.66035269
O       -0.42388332      -0.58636388      -1.17051509
C       -0.12730898       0.37200851      -0.30411430
N        0.16478938       0.11257261       0.99849303
O        0.08199759       1.31090128       1.61902731
C        0.20177118       2.24750559       0.61482290
C        0.45735876       1.64748480      -0.57402791
H        0.42552305      -2.26440369      -0.26787214
H       -1.28361154      -1.96061622       0.12941943
H       -0.82784529      -2.53045488      -1.50061672
H        0.37757268       3.24145597       0.99893318
H        1.48413917       0.31861854       0.11680300
12
Frame=12 idx=009617 GeodesicLength=1.1531936666058415 rxn_smarts="[C:1]([O:2][c:3]1[n:4][o:5][c:6]([H:11])[c:7]1[H:12])([H:8])([H:9])[H:10]>>[C:1]([O:2][C:3]1=[C:7]=[C:6]([H:11])[O:5][N:4]1[H:12])([H:8])([H:9])[H:10]"
C       -0.53314697      -1.90944418      -0.66140403
O       -0.43508353      -0.58598122      -1.16956558
C       -0.15231303       0.37412293      -0.30071852
N        0.17134509       0.11398356       0.98910372
O        0.07048817       1.31241492       1.61832290
C        0.19892610       2.24598945       0.61399110
C        0.47112706       1.63232894      -0.56496733
H        0.42567938      -2.26067264      -0.27197112
H       -1.28409073      -1.96634454       0.13023287
H       -0.82926660      -2.53187755      -1.50161065
H        0.38033269       3.24012573       0.99453382
H        1.51600237       0.33535461       0.12405282
12
Frame=13 idx=009617 GeodesicLength=1.2499659954038649 rxn_smarts="[C:1]([O:2][c:3]1[n:4][o:5][c:6]([H:11])[c:7]1[H:12])([H:8])([H:9])[H:10]>>[C:1]([O:2][C:3]1=[C:7]=[C:6]([H:11])[O:5][N:4]1[H:12])([H:8])([H:9])[H:10]"
C       -0.53568912      -1.91010351      -0.66267380
O       -0.44764374      -0.58527302      -1.16821289
C       -0.17897504       0.37654136      -0.29687865
N        0.17701576       0.11546226       0.97932828
O        0.05903332       1.31396097       1.61732148
C        0.19681272       2.24418768       0.61258612
C        0.48422110       1.61576441      -0.55586487
H        0.42645406      -2.25611966      -0.27703008
H       -1.28394174      -1.97294038       0.13119454
H       -0.83052675      -2.53307112      -1.50295344
H        0.38431598       3.23847398       0.98920583
H        1.54892343       0.35311701       0.13397748
12
Frame=14 idx=009617 GeodesicLength=1.346539422309275 rxn_smarts="[C:1]([O:2][c:3]1[n:4][o:5][c:6]([H:11])[c:7]1[H:12])([H:8])([H:9])[H:10]>>[C:1]([O:2][C:3]1=[C:7]=[C:6]([H:11])[O:5][N:4]1[H:12])([H:8])([H:9])[H:10]"
C       -0.53816416      -1.91067158      -0.66420177
O       -0.46182338      -0.58420688      -1.16638773
C       -0.20716583       0.37922018      -0.29254379
N        0.18179659       0.11694376       0.96919795
O        0.04765588       1.31557276       1.61598715
C        0.19539064       2.24203662       0.61050164
C        0.49678245       1.59761176      -0.54672036
H        0.42789304      -2.25067032      -0.28331376
H       -1.28302444      -1.98047963       0.13238762
H       -0.83178642      -2.53397822      -1.50467273
H        0.38946239       3.23648282       0.98277683
H        1.58298324       0.37213874       0.14698893
12
Frame=15 idx=009617 GeodesicLength=1.4428254380549324 rxn_smarts="[C:1]([O:2][c:3]1[n:4][o:5][c:6]([H:11])[c:7]1[H:12])([H:8])([H:9])[H:10]>>[C:1]([O:2][C:3]1=[C:7]=[C:6]([H:11])[O:5][N:4]1[H:12])([H:8])([H:9])[H:10]"
C       -0.54061820      -1.91114014      -0.66602917
O       -0.47786429      -0.58275585      -1.16401813
C       -0.23668646       0.38209430      -0.28765713
N        0.18571058       0.11834684       0.95875803
O        0.03636045       1.31726724       1.61429334
C        0.19463895       2.23948029       0.60763163
C        0.50895930       1.57771363      -0.53752527
H        0.43002836      -2.24428734      -0.29109295
H       -1.28121085      -1.98903510       0.13390021
H       -0.83323561      -2.53453572      -1.50680030
H        0.39567819       3.23415715       0.97505853
H        1.61823958       0.39269470       0.16348121
12
Frame=16 idx=009617 GeodesicLength=1.5387902042010204 rxn_smarts="[C:1]([O:2][c:3]1[n:4][o:5][c:6]([H:11])[c:7]1[H:12])([H:8])([H:9])[H:10]>>[C:1]([O:2][C:3]1=[C:7]=[C:6]([H:11])[O:5][N:4]1[H:12])([H:8])([H:9])[H:10]"
C       -0.54310525      -1.91149994      -0.66819418
O       -0.49595857      -0.58091314      -1.16104274
C       -0.26727883       0.38508980      -0.28217442
N        0.18881000       0.11957815       0.94806957
O        0.02518141       1.31905739       1.61221226
C        0.19453246       2.23644821       0.60387473
C        0.52090537       1.55593593      -0.52825753
H        0.43285639      -2.23694818      -0.30061819
H       -1.27838919      -1.99863646       0.13580758
H       -0.83508370      -2.53468792      -1.50935522
H        0.40282001       3.23147816       0.96586993
H        1.65470989       0.41509799       0.18380820
