13
Frame=0 idx=011625 GeodesicLength=0.0 rxn_smarts="[C:1]([O:2][c:3]1[n:4][n:5]([H:11])[c:6]([H:12])[c:7]1[H:13])([H:8])([H:9])[H:10]>>[C:1]([O:2][C:3]1=[N:4][C@:7]1(/[C:6](=[N:5]/[H:11])[H:12])[H:13])([H:8])([H:9])[H:10]"
C       -2.53124710       0.24757912       0.19294583
O       -1.36878159      -0.48666127       0.57140073
C       -0.22177647      -0.05040326       0.01890166
N       -0.05198189       0.91352344      -0.76185793
N        2.38216128       0.71720681      -0.78495438
C        2.21131958      -0.28363243       0.00532196
C        0.94728233      -0.86862288       0.18843365
H       -3.35240441      -0.17747046       0.76439195
H       -2.41319541       1.30668333       0.43452452
H       -2.72213249       0.14430303      -0.87609611
H        3.26980868       1.19101685      -0.60840961
H        3.03329569      -0.71012706       0.58944875
H        0.81765174      -1.94339523       0.26594901
13
Frame=1 idx=011625 GeodesicLength=0.06872177308584337 rxn_smarts="[C:1]([O:2][c:3]1[n:4][n:5]([H:11])[c:6]([H:12])[c:7]1[H:13])([H:8])([H:9])[H:10]>>[C:1]([O:2][C:3]1=[N:4][C@:7]1(/[C:6](=[N:5]/[H:11])[H:12])[H:13])([H:8])([H:9])[H:10]"
C       -2.52472606       0.25697090       0.19453237
O       -1.36707690      -0.47163354       0.59828949
C       -0.21861684      -0.05809715       0.03625026
N       -0.03808468       0.86405637      -0.79319569
N        2.35203452       0.74602352      -0.74620793
C        2.20784414      -0.28277469       0.01472643
C        0.94680474      -0.88492558       0.17004226
H       -3.34906397      -0.14381606       0.77879236
H       -2.40050114       1.32284460       0.40020208
H       -2.71474308       0.11889624      -0.87078373
H        3.24113488       1.22114497      -0.58707607
H        3.04332415      -0.72864854       0.56257549
H        0.82167024      -1.96004104       0.24185268
13
Frame=2 idx=011625 GeodesicLength=0.13768643937671576 rxn_smarts="[C:1]([O:2][c:3]1[n:4][n:5]([H:11])[c:6]([H:12])[c:7]1[H:13])([H:8])([H:9])[H:10]>>[C:1]([O:2][C:3]1=[N:4][C@:7]1(/[C:6](=[N:5]/[H:11])[H:12])[H:13])([H:8])([H:9])[H:10]"
C       -2.51795506       0.26691015       0.19559104
O       -1.36624420      -0.46029954       0.61879451
C       -0.21639934      -0.06981367       0.04782566
N       -0.02398206       0.81534866      -0.82047153
N        2.32044489       0.77190490      -0.70794058
C        2.20387313      -0.28091166       0.02634793
C        0.94686609      -0.90076432       0.15441958
H       -3.34557207      -0.11120292       0.79024221
H       -2.38494976       1.33688197       0.37196228
H       -2.70876084       0.10141915      -0.86572286
H        3.21083748       1.24930770      -0.57067716
H        3.05348845      -0.74247380       0.53663427
H        0.82835330      -1.97630662       0.22299466
13
Frame=3 idx=011625 GeodesicLength=0.20693528707145872 rxn_smarts="[C:1]([O:2][c:3]1[n:4][n:5]([H:11])[c:6]([H:12])[c:7]1[H:13])([H:8])([H:9])[H:10]>>[C:1]([O:2][C:3]1=[N:4][C@:7]1(/[C:6](=[N:5]/[H:11])[H:12])[H:13])([H:8])([H:9])[H:10]"
C       -2.51109064       0.27708170       0.19582003
O       -1.36613238      -0.45102154       0.63585293
C       -0.21475188      -0.08361913       0.05722632
N       -0.00960706       0.76798756      -0.84323581
N        2.28746911       0.79569061      -0.66908517
C        2.19957509      -0.27832081       0.04017842
C        0.94743959      -0.91593264       0.14202514
H       -3.34229404      -0.07967901       0.79861569
H       -2.36823924       1.34952780       0.34719095
H       -2.70291611       0.08877575      -0.86155716
H        3.17931143       1.27534616      -0.55906892
H        3.06444245      -0.75379952       0.50878661
H        0.83679368      -1.99203691       0.20725097
13
Frame=4 idx=011625 GeodesicLength=0.27637357047747413 rxn_smarts="[C:1]([O:2][c:3]1[n:4][n:5]([H:11])[c:6]([H:12])[c:7]1[H:13])([H:8])([H:9])[H:10]>>[C:1]([O:2][C:3]1=[N:4][C@:7]1(/[C:6](=[N:5]/[H:11])[H:12])[H:13])([H:8])([H:9])[H:10]"
C       -2.50397334       0.28749534       0.19548931
O       -1.36654994      -0.44371339       0.65000679
C       -0.21362475      -0.09948300       0.06467304
N        0.00520805       0.72223341      -0.86203067
N        2.25355643       0.81710937      -0.63030418
C        2.19494346      -0.27536162       0.05566920
C        0.94851421      -0.93096724       0.13137941
H       -3.33899703      -0.04904366       0.80460864
H       -2.35020184       1.36111467       0.32579744
H       -2.69705302       0.08050465      -0.85821582
H        3.14618169       1.29944864      -0.55184035
H        3.07510072      -0.76165715       0.48114125
H        0.84689536      -2.00768002       0.19362593
13
Frame=5 idx=011625 GeodesicLength=0.3462057165351908 rxn_smarts="[C:1]([O:2][c:3]1[n:4][n:5]([H:11])[c:6]([H:12])[c:7]1[H:13])([H:8])([H:9])[H:10]>>[C:1]([O:2][C:3]1=[N:4][C@:7]1(/[C:6](=[N:5]/[H:11])[H:12])[H:13])([H:8])([H:9])[H:10]"
C       -2.49653333       0.29830366       0.19459268
O       -1.36764235      -0.43833811       0.66173020
C       -0.21296540      -0.11729407       0.07104402
N        0.02034962       0.67704803      -0.87776618
N        2.21835980       0.83691070      -0.59020889
C        2.19002728      -0.27203501       0.07330003
C        0.95020144      -0.94590926       0.12325072
H       -3.33571854      -0.01883872       0.80838298
H       -2.33070609       1.37203603       0.30722417
H       -2.69102141       0.07621987      -0.85582133
H        3.11112053       1.32161667      -0.54938702
H        3.08582596      -0.76636318       0.45280162
H        0.85870248      -2.02335661       0.18085700
13
Frame=6 idx=011625 GeodesicLength=0.4162098228495267 rxn_smarts="[C:1]([O:2][c:3]1[n:4][n:5]([H:11])[c:6]([H:12])[c:7]1[H:13])([H:8])([H:9])[H:10]>>[C:1]([O:2][C:3]1=[N:4][C@:7]1(/[C:6](=[N:5]/[H:11])[H:12])[H:13])([H:8])([H:9])[H:10]"
C       -2.48883752       0.30901728       0.19312101
O       -1.36894477      -0.43369415       0.67242288
C       -0.21248062      -0.13578772       0.07738660
N        0.03609653       0.63446313      -0.88927860
N        2.18265559       0.85515377      -0.54889891
C        2.18498528      -0.26895966       0.09192155
C        0.95221273      -0.96057844       0.11641269
H       -3.33249418       0.01012247       0.80993789
H       -2.31096414       1.38222128       0.29058638
H       -2.68404511       0.07414452      -0.85442789
H        3.07474393       1.34088231      -0.55216672
H        3.09579074      -0.76822183       0.42479128
H        0.87128154      -2.03876295       0.16819184
13
Frame=7 idx=011625 GeodesicLength=0.4866282739521334 rxn_smarts="[C:1]([O:2][c:3]1[n:4][n:5]([H:11])[c:6]([H:12])[c:7]1[H:13])([H:8])([H:9])[H:10]>>[C:1]([O:2][C:3]1=[N:4][C@:7]1(/[C:6](=[N:5]/[H:11])[H:12])[H:13])([H:8])([H:9])[H:10]"
C       -2.48038825       0.32032838       0.19138929
O       -1.37045640      -0.43047675       0.68138194
C       -0.21217231      -0.15611187       0.08275820
N        0.05225437       0.59202475      -0.89897656
N        2.14612141       0.87103659      -0.50768417
C        2.17985986      -0.26649878       0.11098331
C        0.95481509      -0.97573777       0.11097091
H       -3.32871562       0.03926199       0.81018627
H       -2.28930497       1.39224751       0.27624122
H       -2.67662138       0.07537794      -0.85371087
H        3.03419728       1.35968065      -0.55727283
H        3.10516391      -0.76648070       0.39800111
H        0.88524701      -2.05465195       0.15573218
13
Frame=8 idx=011625 GeodesicLength=0.5572020643203387 rxn_smarts="[C:1]([O:2][c:3]1[n:4][n:5]([H:11])[c:6]([H:12])[c:7]1[H:13])([H:8])([H:9])[H:10]>>[C:1]([O:2][C:3]1=[N:4][C@:7]1(/[C:6](=[N:5]/[H:11])[H:12])[H:13])([H:8])([H:9])[H:10]"
C       -2.47163208       0.33127886       0.18914178
O       -1.37153558      -0.42632307       0.69092251
C       -0.21162018      -0.17580947       0.08910326
N        0.06909716       0.55300939      -0.90459848
N        2.11000705       0.88496357      -0.46607103
C        2.17493574      -0.26501772       0.12969934
C        0.95747233      -0.99043238       0.10622677
H       -3.32480198       0.06710360       0.80872895
H       -2.26837857       1.40174877       0.26208415
H       -2.66769239       0.07644745      -0.85367818
H        2.99158715       1.37613807      -0.56526332
H        3.11360636      -0.76315231       0.37122935
H        0.89895500      -2.06995477       0.14247490
13
Frame=9 idx=011625 GeodesicLength=0.6283511797332636 rxn_smarts="[C:1]([O:2][c:3]1[n:4][n:5]([H:11])[c:6]([H:12])[c:7]1[H:13])([H:8])([H:9])[H:10]>>[C:1]([O:2][C:3]1=[N:4][C@:7]1(/[C:6](=[N:5]/[H:11])[H:12])[H:13])([H:8])([H:9])[H:10]"
C       -2.46190474       0.34297403       0.18684876
O       -1.37249595      -0.42307337       0.69919711
C       -0.21112937      -0.19721100       0.09443903
N        0.08609080       0.51337731      -0.90963072
N        2.07338001       0.89577669      -0.42669212
C        2.16999974      -0.26436889       0.14786090
C        0.96065370      -1.00582338       0.10245293
H       -3.31993741       0.09569556       0.80669546
H       -2.24531978       1.41138465       0.24957345
H       -2.65835196       0.08013551      -0.85395645
H        2.94376849       1.39355929      -0.57228398
H        3.12136238      -0.75659363       0.34608155
H        0.91388409      -2.08583278       0.12941409
13
Frame=10 idx=011625 GeodesicLength=0.6997012590869042 rxn_smarts="[C:1]([O:2][c:3]1[n:4][n:5]([H:11])[c:6]([H:12])[c:7]1[H:13])([H:8])([H:9])[H:10]>>[C:1]([O:2][C:3]1=[N:4][C@:7]1(/[C:6](=[N:5]/[H:11])[H:12])[H:13])([H:8])([H:9])[H:10]"
C       -2.45174982       0.35450050       0.18433120
O       -1.37272130      -0.41846550       0.70827219
C       -0.21037068      -0.21801544       0.10036020
N        0.10328034       0.47592529      -0.91235765
N        2.03751108       0.90379223      -0.38973513
C        2.16531362      -0.26477085       0.16471927
C        0.96380500      -1.02098114       0.09903550
H       -3.31453551       0.12374381       0.80395409
H       -2.22267734       1.42077863       0.23658110
H       -2.64800291       0.08301894      -0.85433947
H        2.89355583       1.41055207      -0.57776419
H        3.12815464      -0.74879242       0.32123054
H        0.92843706      -2.10128612       0.11571235
13
Frame=11 idx=011625 GeodesicLength=0.7715037458150964 rxn_smarts="[C:1]([O:2][c:3]1[n:4][n:5]([H:11])[c:6]([H:12])[c:7]1[H:13])([H:8])([H:9])[H:10]>>[C:1]([O:2][C:3]1=[N:4][C@:7]1(/[C:6](=[N:5]/[H:11])[H:12])[H:13])([H:8])([H:9])[H:10]"
C       -2.44076343       0.36657101       0.18194835
O       -1.37260554      -0.41426127       0.71651672
C       -0.20977119      -0.24013951       0.10523248
N        0.12016919       0.43796590      -0.91506030
N        2.00128559       0.90902514      -0.35620176
C        2.16047036      -0.26568013       0.18045611
C        0.96726578      -1.03668220       0.09590024
H       -3.30807088       0.15247466       0.80124280
H       -2.19837947       1.43023934       0.22465831
H       -2.63752535       0.08753256      -0.85467200
H        2.83996657       1.42828940      -0.58078805
H        3.13400086      -0.73824134       0.29869238
H        0.94395753      -2.11709356       0.10207471
13
Frame=12 idx=011625 GeodesicLength=0.843563880128573 rxn_smarts="[C:1]([O:2][c:3]1[n:4][n:5]([H:11])[c:6]([H:12])[c:7]1[H:13])([H:8])([H:9])[H:10]>>[C:1]([O:2][C:3]1=[N:4][C@:7]1(/[C:6](=[N:5]/[H:11])[H:12])[H:13])([H:8])([H:9])[H:10]"
C       -2.42939146       0.37855543       0.17945191
O       -1.37182443      -0.40893251       0.72528852
C       -0.20910791      -0.26197844       0.11034290
N        0.13685794       0.40126225      -0.91646533
N        1.96553684       0.91195016      -0.32540138
C        2.15574406      -0.26722194       0.19489671
C        0.97067485      -1.05220848       0.09312418
H       -3.30099418       0.18096902       0.79820639
H       -2.17423503       1.43949445       0.21227173
H       -2.62649345       0.09138699      -0.85493107
H        2.78497117       1.44586429      -0.58123862
H        3.13891981      -0.72664742       0.27627941
H        0.95934178      -2.13249379       0.08817464
13
Frame=13 idx=011625 GeodesicLength=0.915945929135997 rxn_smarts="[C:1]([O:2][c:3]1[n:4][n:5]([H:11])[c:6]([H:12])[c:7]1[H:13])([H:8])([H:9])[H:10]>>[C:1]([O:2][C:3]1=[N:4][C@:7]1(/[C:6](=[N:5]/[H:11])[H:12])[H:13])([H:8])([H:9])[H:10]"
C       -2.41751209       0.39067699       0.17706780
O       -1.37063854      -0.40360504       0.73363292
C       -0.20859992      -0.28428655       0.11499825
N        0.15314694       0.36512054      -0.91729228
N        1.92983492       0.91293107      -0.29725398
C        2.15082741      -0.26892642       0.20853063
C        0.97417866      -1.06778132       0.09040270
H       -3.29318653       0.20928421       0.79503470
H       -2.14944854       1.44858154       0.20077896
H       -2.61521433       0.09612103      -0.85517094
H        2.72852623       1.46267408      -0.58085145
H        3.14282075      -0.71309795       0.25640520
H        0.97526505      -2.14769219       0.07371748
13
Frame=14 idx=011625 GeodesicLength=0.9885821356591653 rxn_smarts="[C:1]([O:2][c:3]1[n:4][n:5]([H:11])[c:6]([H:12])[c:7]1[H:13])([H:8])([H:9])[H:10]>>[C:1]([O:2][C:3]1=[N:4][C@:7]1(/[C:6](=[N:5]/[H:11])[H:12])[H:13])([H:8])([H:9])[H:10]"
C       -2.40527776       0.40274542       0.17472060
O       -1.36890836      -0.39774474       0.74198268
C       -0.20819406      -0.30658576       0.11951883
N        0.16903724       0.32994866      -0.91735625
N        1.89442041       0.91222950      -0.27146738
C        2.14580321      -0.27082776       0.22126180
C        0.97764959      -1.08319507       0.08773138
H       -3.28476150       0.23724321       0.79173980
H       -2.12457812       1.45743935       0.18952061
H       -2.60365906       0.10087453      -0.85532196
H        2.67134378       1.47864673      -0.57920661
H        3.14576609      -0.69832158       0.23810585
H        0.99135853      -2.16245249       0.05877065
13
Frame=15 idx=011625 GeodesicLength=1.061612297482661 rxn_smarts="[C:1]([O:2][c:3]1[n:4][n:5]([H:11])[c:6]([H:12])[c:7]1[H:13])([H:8])([H:9])[H:10]>>[C:1]([O:2][C:3]1=[N:4][C@:7]1(/[C:6](=[N:5]/[H:11])[H:12])[H:13])([H:8])([H:9])[H:10]"
C       -2.39246543       0.41504237       0.17253977
O       -1.36681597      -0.39220376       0.74963465
C       -0.20810202      -0.32972481       0.12322532
N        0.18439536       0.29482321      -0.91740964
N        1.85866490       0.91008428      -0.24796738
C        2.14037547      -0.27258867       0.23339590
C        0.98124956      -1.09874182       0.08500071
H       -3.27546099       0.26530159       0.78857110
H       -2.09871333       1.46616666       0.17925937
H       -2.59204867       0.10676513      -0.85542016
H        2.61289000       1.49384212      -0.57678933
H        3.14774248      -0.68172436       0.22234402
H        1.00828866      -2.17704195       0.04361569
13
Frame=16 idx=011625 GeodesicLength=1.1351427721567835 rxn_smarts="[C:1]([O:2][c:3]1[n:4][n:5]([H:11])[c:6]([H:12])[c:7]1[H:13])([H:8])([H:9])[H:10]>>[C:1]([O:2][C:3]1=[N:4][C@:7]1(/[C:6](=[N:5]/[H:11])[H:12])[H:13])([H:8])([H:9])[H:10]"
C       -2.37895154       0.42767006       0.17052018
O       -1.36438168      -0.38716572       0.75644865
C       -0.20841712      -0.35401527       0.12591191
N        0.19918306       0.25933782      -0.91774468
N        1.82221821       0.90664479      -0.22659094
C        2.13441918      -0.27410062       0.24497378
C        0.98501749      -1.11453274       0.08224593
H       -3.26512060       0.29375678       0.78564013
H       -2.07150976       1.47480114       0.16998466
H       -2.58041403       0.11397004      -0.85547957
H        2.55293791       1.50848099      -0.57331328
H        3.14875187      -0.66329695       0.20877507
H        1.02626701      -2.19155031       0.02862815
