12
Frame=0 idx=005837 GeodesicLength=0.0 rxn_smarts="[N:1]([C@@:2]([C:3]([O:4][H:12])([H:10])[H:11])([C:5]#[N:6])[H:9])([H:7])[H:8]>>[C:3](=[O:4])([H:10])[H:11].[H:8][H:12].[N:1](=[C:2](\[C:5]#[N:6])[H:9])\[H:7]"
N        0.57076549       0.68108354       1.27999609
C        0.74768870      -0.39896330       0.54472429
C       -1.14465102      -0.51194202      -0.81391360
O       -1.90869589       0.37471489      -0.39090393
C        1.64688606      -0.39659683      -0.57547948
N        2.38222705      -0.38791004      -1.45935542
H        1.03143017       1.48938918       0.86392965
H       -0.69324157       1.19450962       1.18271727
H        0.52980498      -1.35928523       0.99564345
H       -0.53755223      -0.33389692      -1.70663063
H       -1.28394278      -1.54813868      -0.48742707
H       -1.34071900       1.19703582       0.56669942
12
Frame=1 idx=005837 GeodesicLength=0.07728381325734553 rxn_smarts="[N:1]([C@@:2]([C:3]([O:4][H:12])([H:10])[H:11])([C:5]#[N:6])[H:9])([H:7])[H:8]>>[C:3](=[O:4])([H:10])[H:11].[H:8][H:12].[N:1](=[C:2](\[C:5]#[N:6])[H:9])\[H:7]"
N        0.58056759       0.69128907       1.28575339
C        0.73970154      -0.39276311       0.54823541
C       -1.14346324      -0.52740099      -0.81548905
O       -1.92542678       0.33058597      -0.35939243
C        1.64305984      -0.40278534      -0.57023479
N        2.37030263      -0.38592956      -1.46056848
H        1.07932078       1.48687929       0.89092949
H       -0.68649902       1.23066355       1.17402428
H        0.51519244      -1.34709281       1.00907932
H       -0.55216627      -0.31087270      -1.71080812
H       -1.27748549      -1.57855258      -0.53789350
H       -1.34310400       1.20597922       0.54636446
12
Frame=2 idx=005837 GeodesicLength=0.15433911608462353 rxn_smarts="[N:1]([C@@:2]([C:3]([O:4][H:12])([H:10])[H:11])([C:5]#[N:6])[H:9])([H:7])[H:8]>>[C:3](=[O:4])([H:10])[H:11].[H:8][H:12].[N:1](=[C:2](\[C:5]#[N:6])[H:9])\[H:7]"
N        0.58961269       0.70096144       1.29202686
C        0.73188011      -0.38627249       0.55153189
C       -1.14255284      -0.54366551      -0.81694441
O       -1.93846075       0.28813122      -0.32973728
C        1.63896098      -0.40714693      -0.56546355
N        2.35755071      -0.38066333      -1.46254261
H        1.12886039       1.48143218       0.92255707
H       -0.67908339       1.26817315       1.16183238
H        0.50135644      -1.33502103       1.02144405
H       -0.56784810      -0.29260015      -1.71458592
H       -1.27347627      -1.60643908      -0.58531135
H       -1.34679997       1.21311053       0.52519287
12
Frame=3 idx=005837 GeodesicLength=0.23127402875269742 rxn_smarts="[N:1]([C@@:2]([C:3]([O:4][H:12])([H:10])[H:11])([C:5]#[N:6])[H:9])([H:7])[H:8]>>[C:3](=[O:4])([H:10])[H:11].[H:8][H:12].[N:1](=[C:2](\[C:5]#[N:6])[H:9])\[H:7]"
N        0.59814913       0.71046229       1.29849324
C        0.72425624      -0.37934885       0.55459465
C       -1.14173866      -0.56050967      -0.81829462
O       -1.94839662       0.24730077      -0.30180638
C        1.63472710      -0.40986308      -0.56110720
N        2.34423788      -0.37288220      -1.46508424
H        1.17947363       1.47300947       0.95812216
H       -0.67086846       1.30672616       1.14634898
H        0.48825848      -1.32279285       1.03295493
H       -0.58431241      -0.27833461      -1.71813989
H       -1.27173292      -1.63209335      -0.63008877
H       -1.35205339       1.21832594       0.50400714
12
Frame=4 idx=005837 GeodesicLength=0.30823064527745325 rxn_smarts="[N:1]([C@@:2]([C:3]([O:4][H:12])([H:10])[H:11])([C:5]#[N:6])[H:9])([H:7])[H:8]>>[C:3](=[O:4])([H:10])[H:11].[H:8][H:12].[N:1](=[C:2](\[C:5]#[N:6])[H:9])\[H:7]"
N        0.60639956       0.72011923       1.30486898
C        0.71688659      -0.37188108       0.55743703
C       -1.14086692      -0.57773760      -0.81953689
O       -1.95575381       0.20794626      -0.27540452
C        1.63051531      -0.41113072      -0.55710281
N        2.33058875      -0.36336140      -1.46804276
H        1.23057376       1.46165623       0.99691891
H       -0.66182947       1.34598836       1.12783048
H        0.47586792      -1.31018945       1.04384316
H       -0.60134811      -0.26728125      -1.72153643
H       -1.27202134      -1.65576937      -0.67272275
H       -1.35901224       1.22164081       0.48344760
12
Frame=5 idx=005837 GeodesicLength=0.38467645158320907 rxn_smarts="[N:1]([C@@:2]([C:3]([O:4][H:12])([H:10])[H:11])([C:5]#[N:6])[H:9])([H:7])[H:8]>>[C:3](=[O:4])([H:10])[H:11].[H:8][H:12].[N:1](=[C:2](\[C:5]#[N:6])[H:9])\[H:7]"
N        0.61451492       0.73035721       1.31076253
C        0.70983384      -0.36376200       0.56011788
C       -1.13978785      -0.59511728      -0.82070944
O       -1.96102377       0.16970443      -0.25017928
C        1.62650881      -0.41128000      -0.55331008
N        2.31675824      -0.35301223      -1.47130723
H        1.28171760       1.44738520       1.03831978
H       -0.65191249       1.38591560       1.10595466
H        0.46406385      -1.29695285       1.05444616
H       -0.61878507      -0.25833433      -1.72472050
H       -1.27389662      -1.67767403      -0.71395616
H       -1.36799147       1.22277029       0.46458168
12
Frame=6 idx=005837 GeodesicLength=0.4609679060902778 rxn_smarts="[N:1]([C@@:2]([C:3]([O:4][H:12])([H:10])[H:11])([C:5]#[N:6])[H:9])([H:7])[H:8]>>[C:3](=[O:4])([H:10])[H:11].[H:8][H:12].[N:1](=[C:2](\[C:5]#[N:6])[H:9])\[H:7]"
N        0.62276731       0.74142803       1.31599015
C        0.70316085      -0.35492978       0.56262024
C       -1.13836612      -0.61253852      -0.82179584
O       -1.96443912       0.13254174      -0.22609130
C        1.62281789      -0.41045120      -0.54972787
N        2.30286988      -0.34240072      -1.47483390
H        1.33219842       1.43037563       1.08174291
H       -0.64140043       1.42580049       1.08140720
H        0.45285907      -1.28291818       1.06488401
H       -0.63647435      -0.25111781      -1.72768385
H       -1.27724830      -1.69781794      -0.75402434
H       -1.37874509       1.22202827       0.44751259
12
Frame=7 idx=005837 GeodesicLength=0.5370072387018618 rxn_smarts="[N:1]([C@@:2]([C:3]([O:4][H:12])([H:10])[H:11])([C:5]#[N:6])[H:9])([H:7])[H:8]>>[C:3](=[O:4])([H:10])[H:11].[H:8][H:12].[N:1](=[C:2](\[C:5]#[N:6])[H:9])\[H:7]"
N        0.63138643       0.75358453       1.32031181
C        0.69693583      -0.34531536       0.56492445
C       -1.13648618      -0.62990298      -0.82280646
O       -1.96620527       0.09638700      -0.20306716
C        1.61955219      -0.40880616      -0.54633958
N        2.28901848      -0.33212028      -1.47861429
H        1.38145476       1.41079851       1.12672790
H       -0.63063975       1.46512369       1.05470714
H        0.44224112      -1.26789734       1.07530196
H       -0.65429066      -0.24520648      -1.73039216
H       -1.28192096      -1.71619871      -0.79320446
H       -1.39104599       1.21955359       0.43245084
12
Frame=8 idx=005837 GeodesicLength=0.6128244662823733 rxn_smarts="[N:1]([C@@:2]([C:3]([O:4][H:12])([H:10])[H:11])([C:5]#[N:6])[H:9])([H:7])[H:8]>>[C:3](=[O:4])([H:10])[H:11].[H:8][H:12].[N:1](=[C:2](\[C:5]#[N:6])[H:9])\[H:7]"
N        0.64063119       0.76701209       1.32354128
C        0.69119742      -0.33485169       0.56698918
C       -1.13405190      -0.64717663      -0.82372610
O       -1.96642741       0.06120202      -0.18102802
C        1.61676794      -0.40642591      -0.54316442
N        2.27525075      -0.32260449      -1.48270125
H        1.42897621       1.38879598       1.17299233
H       -0.62010016       1.50335768       1.02668873
H        0.43223447      -1.25173314       1.08576782
H       -0.67216135      -0.24040372      -1.73284029
H       -1.28784509      -1.73288016      -0.83166089
H       -1.40447206       1.21570798       0.41914165
12
Frame=9 idx=005837 GeodesicLength=0.6878331396796759 rxn_smarts="[N:1]([C@@:2]([C:3]([O:4][H:12])([H:10])[H:11])([C:5]#[N:6])[H:9])([H:7])[H:8]>>[C:3](=[O:4])([H:10])[H:11].[H:8][H:12].[N:1](=[C:2](\[C:5]#[N:6])[H:9])\[H:7]"
N        0.65053047       0.78176762       1.32567227
C        0.68594107      -0.32367337       0.56882511
C       -1.13106150      -0.66445813      -0.82453357
O       -1.96538375       0.02714522      -0.16009136
C        1.61456411      -0.40356195      -0.54009831
N        2.26163823      -0.31367353      -1.48695878
H        1.47475056       1.36457771       1.21996013
H       -0.60995549       1.54045422       0.99732453
H        0.42273733      -1.23450515       1.09645092
H       -0.69001592      -0.23656274      -1.73492702
H       -1.29498579      -1.74779772      -0.86959987
H       -1.41875930       1.21028781       0.40797594
12
Frame=10 idx=005837 GeodesicLength=0.7627546656609866 rxn_smarts="[N:1]([C@@:2]([C:3]([O:4][H:12])([H:10])[H:11])([C:5]#[N:6])[H:9])([H:7])[H:8]>>[C:3](=[O:4])([H:10])[H:11].[H:8][H:12].[N:1](=[C:2](\[C:5]#[N:6])[H:9])\[H:7]"
N        0.66140370       0.79785996       1.32657554
C        0.68120727      -0.31157934       0.57033765
C       -1.12745182      -0.68174787      -0.82521186
O       -1.96298128      -0.00606851      -0.14001500
C        1.61288602      -0.39995812      -0.53730600
N        2.24816025      -0.30580095      -1.49164015
H        1.51829298       1.33804931       1.26803581
H       -0.60069914       1.57605080       0.96803426
H        0.41394435      -1.21602158       1.10718893
H       -0.70789123      -0.23377181      -1.73677619
H       -1.30340851      -1.76115287      -0.90685091
H       -1.43346259       1.20414097       0.39762793
12
Frame=11 idx=005837 GeodesicLength=0.8375293180716996 rxn_smarts="[N:1]([C@@:2]([C:3]([O:4][H:12])([H:10])[H:11])([C:5]#[N:6])[H:9])([H:7])[H:8]>>[C:3](=[O:4])([H:10])[H:11].[H:8][H:12].[N:1](=[C:2](\[C:5]#[N:6])[H:9])\[H:7]"
N        0.67344861       0.81534432       1.32614042
C        0.67700453      -0.29853664       0.57146519
C       -1.12316574      -0.69907426      -0.82579031
O       -1.95926748      -0.03861106      -0.12067318
C        1.61178034      -0.39570057      -0.53481023
N        2.23480659      -0.29927222      -1.49680193
H        1.55930852       1.30923656       1.31722363
H       -0.59247844       1.61030613       0.93916677
H        0.40587331      -1.19620434       1.11798614
H       -0.72577272      -0.23185182      -1.73835294
H       -1.31300699      -1.77294334      -0.94352167
H       -1.44853054       1.19730722       0.38796810
12
Frame=12 idx=005837 GeodesicLength=0.9123355377165966 rxn_smarts="[N:1]([C@@:2]([C:3]([O:4][H:12])([H:10])[H:11])([C:5]#[N:6])[H:9])([H:7])[H:8]>>[C:3](=[O:4])([H:10])[H:11].[H:8][H:12].[N:1](=[C:2](\[C:5]#[N:6])[H:9])\[H:7]"
N        0.68690312       0.83416913       1.32437072
C        0.67327869      -0.28455771       0.57211759
C       -1.11812028      -0.71646341      -0.82630973
O       -1.95427017      -0.07064028      -0.10193247
C        1.61122780      -0.39091806      -0.53265319
N        2.22157087      -0.29439247      -1.50236704
H        1.59726803       1.27836515       1.36727353
H       -0.58519674       1.64342696       0.91114121
H        0.39850931      -1.17501533       1.12872645
H       -0.74360242      -0.23065530      -1.73956757
H       -1.32361416      -1.78309682      -0.97973188
H       -1.46395406       1.18977813       0.37893238
12
Frame=13 idx=005837 GeodesicLength=0.9870202451602798 rxn_smarts="[N:1]([C@@:2]([C:3]([O:4][H:12])([H:10])[H:11])([C:5]#[N:6])[H:9])([H:7])[H:8]>>[C:3](=[O:4])([H:10])[H:11].[H:8][H:12].[N:1](=[C:2](\[C:5]#[N:6])[H:9])\[H:7]"
N        0.70178739       0.85418418       1.32133570
C        0.67003394      -0.26975030       0.57236906
C       -1.11237854      -0.73399645      -0.82670628
O       -1.94809667      -0.10225275      -0.08364579
C        1.61128197      -0.38574571      -0.53070662
N        2.20854108      -0.29071635      -1.50841508
H        1.63202575       1.24535473       1.41806757
H       -0.57859157       1.67574276       0.88347971
H        0.39176512      -1.15255911       1.13956161
H       -0.76141202      -0.23001273      -1.74030294
H       -1.33527914      -1.79166342      -1.01555124
H       -1.47967731       1.18141516       0.37051429
12
Frame=14 idx=005837 GeodesicLength=1.0617142507473099 rxn_smarts="[N:1]([C@@:2]([C:3]([O:4][H:12])([H:10])[H:11])([C:5]#[N:6])[H:9])([H:7])[H:8]>>[C:3](=[O:4])([H:10])[H:11].[H:8][H:12].[N:1](=[C:2](\[C:5]#[N:6])[H:9])\[H:7]"
N        0.71840130       0.87523891       1.31699819
C        0.66731299      -0.25414468       0.57211118
C       -1.10581050      -0.75156074      -0.82710696
O       -1.94065643      -0.13363373      -0.06569991
C        1.61200567      -0.38038089      -0.52903075
N        2.19567838      -0.28894537      -1.51488945
H        1.66261987       1.21081747       1.46932622
H       -0.57255410       1.70736980       0.85653940
H        0.38570230      -1.12886292       1.15027951
H       -0.77912515      -0.22965096      -1.74050224
H       -1.34779977      -1.79842305      -1.05103801
H       -1.49577456       1.17217617       0.36301282
12
Frame=15 idx=005837 GeodesicLength=1.1364111974328113 rxn_smarts="[N:1]([C@@:2]([C:3]([O:4][H:12])([H:10])[H:11])([C:5]#[N:6])[H:9])([H:7])[H:8]>>[C:3](=[O:4])([H:10])[H:11].[H:8][H:12].[N:1](=[C:2](\[C:5]#[N:6])[H:9])\[H:7]"
N        0.73680028       0.89705829       1.31145832
C        0.66515170      -0.23787267       0.57136917
C       -1.09845586      -0.76914994      -0.82752480
O       -1.93197277      -0.16484015      -0.04801517
C        1.61346420      -0.37497738      -0.52755917
N        2.18306727      -0.28881221      -1.52185860
H        1.68861568       1.17499859       1.52089475
H       -0.56676776       1.73849712       0.83001182
H        0.38027277      -1.10407453       1.16090052
H       -0.79675003      -0.22945094      -1.74010855
H       -1.36122610      -1.80334119      -1.08609057
H       -1.51219938       1.16196500       0.35652229
12
Frame=16 idx=005837 GeodesicLength=1.2111481973711695 rxn_smarts="[N:1]([C@@:2]([C:3]([O:4][H:12])([H:10])[H:11])([C:5]#[N:6])[H:9])([H:7])[H:8]>>[C:3](=[O:4])([H:10])[H:11].[H:8][H:12].[N:1](=[C:2](\[C:5]#[N:6])[H:9])\[H:7]"
N        0.75698863       0.91917879       1.30504725
C        0.66350446      -0.22116457       0.57016671
C       -1.09034420      -0.78674764      -0.82800750
O       -1.92207397      -0.19587166      -0.03055703
C        1.61561786      -0.36972572      -0.52624505
N        2.17073944      -0.29011362      -1.52914961
H        1.70956111       1.13860636       1.57215484
H       -0.56084375       1.76921663       0.80381793
H        0.37541437      -1.07851984       1.17126508
H       -0.81423292      -0.22931145      -1.73903343
H       -1.37548832      -1.80631755      -1.12060337
H       -1.52884272       1.15077027       0.35114419
