14
Frame=0 idx=005614 GeodesicLength=0.0 rxn_smarts="[C:1]([C:2]1([H:10])[O:3][C:4]([H:11])([H:12])[C:5]([H:13])([H:14])[O:6]1)([H:7])([H:8])[H:9]>>[C:1]([C:2]1=[O+:3][C-:4]([H:12])[C:5]([H:13])([H:14])[O:6]1)([H:7])([H:8])[H:9].[H:10][H:11]"
C       -1.99127290      -0.37245313       0.46217347
C       -0.58269636      -0.06520150       0.13694194
O       -0.20846042       1.05972624      -0.35180282
C        1.16446041       0.93582070      -0.62807408
C        1.64048940      -0.00782278       0.45992144
O        0.39483235      -0.70025646       0.77601554
H       -2.16220074      -1.44331517       0.37105934
H       -2.64878465       0.16151814      -0.21897806
H       -2.21203932      -0.07645242       1.49182764
H       -0.03543417      -0.80394384      -1.59502361
H        0.64562207      -0.28376601      -1.65445416
H        1.62084664       1.90983229      -0.74845969
H        2.01498695       0.43502212       1.39386431
H        2.35965072      -0.74870814       0.10498872
14
Frame=1 idx=005614 GeodesicLength=0.07039688519307243 rxn_smarts="[C:1]([C:2]1([H:10])[O:3][C:4]([H:11])([H:12])[C:5]([H:13])([H:14])[O:6]1)([H:7])([H:8])[H:9]>>[C:1]([C:2]1=[O+:3][C-:4]([H:12])[C:5]([H:13])([H:14])[O:6]1)([H:7])([H:8])[H:9].[H:10][H:11]"
C       -1.99060843      -0.37456614       0.46110496
C       -0.58220795      -0.07370205       0.12761088
O       -0.20785399       1.06079885      -0.34796843
C        1.16734399       0.93169005      -0.63355461
C        1.63944880      -0.00692117       0.46177197
O        0.39435088      -0.69622774       0.78314661
H       -2.16407491      -1.44556824       0.37467937
H       -2.64969716       0.15910042      -0.21885284
H       -2.20627405      -0.07432386       1.49036983
H       -0.04694014      -0.80155639      -1.59093707
H        0.65157429      -0.27540794      -1.66859779
H        1.62285796       1.90796516      -0.74203454
H        2.01576163       0.44072832       1.39244221
H        2.35631907      -0.75200925       0.11081944
14
Frame=2 idx=005614 GeodesicLength=0.14079270415869866 rxn_smarts="[C:1]([C:2]1([H:10])[O:3][C:4]([H:11])([H:12])[C:5]([H:13])([H:14])[O:6]1)([H:7])([H:8])[H:9]>>[C:1]([C:2]1=[O+:3][C-:4]([H:12])[C:5]([H:13])([H:14])[O:6]1)([H:7])([H:8])[H:9].[H:10][H:11]"
C       -1.98987757      -0.37666670       0.46004104
C       -0.58164346      -0.08206275       0.11859733
O       -0.20729569       1.06174321      -0.34417406
C        1.17019966       0.92759689      -0.63890550
C        1.63838832      -0.00605129       0.46362083
O        0.39376807      -0.69202836       0.79033449
H       -2.16578908      -1.44779718       0.37829773
H       -2.65049784       0.15660621      -0.21883124
H       -2.20067021      -0.07219796       1.48883208
H       -0.05851832      -0.79938124      -1.58678957
H        0.65765185      -0.26666812      -1.68283889
H        1.62478111       1.90599029      -0.73574061
H        2.01665962       0.44629424       1.39097352
H        2.35284354      -0.75537724       0.11658284
14
Frame=3 idx=005614 GeodesicLength=0.21118727328304832 rxn_smarts="[C:1]([C:2]1([H:10])[O:3][C:4]([H:11])([H:12])[C:5]([H:13])([H:14])[O:6]1)([H:7])([H:8])[H:9]>>[C:1]([C:2]1=[O+:3][C-:4]([H:12])[C:5]([H:13])([H:14])[O:6]1)([H:7])([H:8])[H:9].[H:10][H:11]"
C       -1.98908497      -0.37875320       0.45898817
C       -0.58100561      -0.09029678       0.10988415
O       -0.20678744       1.06255759      -0.34044672
C        1.17303382       0.92354059      -0.64413013
C        1.63730678      -0.00521386       0.46546910
O        0.39308909      -0.68767469       0.79755897
H       -2.16735753      -1.45000044       0.38193147
H       -2.65119676       0.15403782      -0.21890165
H       -2.19521484      -0.07006272       1.48722471
H       -0.07019691      -0.79744791      -1.58257622
H        0.66389929      -0.25752141      -1.69719599
H        1.62661837       1.90392095      -0.72955844
H        2.01766289       0.45171868       1.38946685
H        2.34923381      -0.75880461       0.12228574
14
Frame=4 idx=005614 GeodesicLength=0.2815809051681465 rxn_smarts="[C:1]([C:2]1([H:10])[O:3][C:4]([H:11])([H:12])[C:5]([H:13])([H:14])[O:6]1)([H:7])([H:8])[H:9]>>[C:1]([C:2]1=[O+:3][C-:4]([H:12])[C:5]([H:13])([H:14])[O:6]1)([H:7])([H:8])[H:9].[H:10][H:11]"
C       -1.98823829      -0.38082483       0.45795384
C       -0.58029793      -0.09841818       0.10145356
O       -0.20633051       1.06324007      -0.33681364
C        1.17585554       0.91952190      -0.64923271
C        1.63620483      -0.00440908       0.46731831
O        0.39231810      -0.68318288       0.80480235
H       -2.16879993      -1.45217744       0.38559902
H       -2.65180761       0.15139640      -0.21905269
H       -2.18989734      -0.06790658       1.48556074
H       -0.08200286      -0.79579028      -1.57829362
H        0.67036255      -0.24793828      -1.71169331
H        1.62837567       1.90177152      -0.72346909
H        2.01875702       0.45700126       1.38793289
H        2.34550077      -0.76228360       0.12793434
14
Frame=5 idx=005614 GeodesicLength=0.35196908537594757 rxn_smarts="[C:1]([C:2]1([H:10])[O:3][C:4]([H:11])([H:12])[C:5]([H:13])([H:14])[O:6]1)([H:7])([H:8])[H:9]>>[C:1]([C:2]1=[O+:3][C-:4]([H:12])[C:5]([H:13])([H:14])[O:6]1)([H:7])([H:8])[H:9].[H:10][H:11]"
C       -1.98733170      -0.38287562       0.45694322
C       -0.57952408      -0.10644422       0.09328464
O       -0.20593243       1.06378392      -0.33329975
C        1.17866154       0.91553670      -0.65421148
C        1.63507376      -0.00363971       0.46916793
O        0.39146059      -0.67857326       0.81203566
H       -2.17011667      -1.45431849       0.38932053
H       -2.65233047       0.14868967      -0.21926737
H       -2.18468989      -0.06571178       1.48384021
H       -0.09397116      -0.79443279      -1.57393662
H        0.67710310      -0.23789321      -1.72633482
H        1.63003744       1.89954705      -0.71745343
H        2.01990910       0.46213749       1.38637551
H        2.34165087      -0.76580575       0.13353577
14
Frame=6 idx=005614 GeodesicLength=0.42230903017724614 rxn_smarts="[C:1]([C:2]1([H:10])[O:3][C:4]([H:11])([H:12])[C:5]([H:13])([H:14])[O:6]1)([H:7])([H:8])[H:9]>>[C:1]([C:2]1=[O+:3][C-:4]([H:12])[C:5]([H:13])([H:14])[O:6]1)([H:7])([H:8])[H:9].[H:10][H:11]"
C       -1.98637795      -0.38490502       0.45596480
C       -0.57868607      -0.11438389       0.08536578
O       -0.20559264       1.06419041      -0.32993196
C        1.18146599       0.91158732      -0.65907430
C        1.63391676      -0.00290298       0.47102050
O        0.39051888      -0.67385809       0.81925038
H       -2.17133766      -1.45642356       0.39309127
H       -2.65278295       0.14593223      -0.21952672
H       -2.17959028      -0.06348697       1.48208744
H       -0.10611537      -0.79342859      -1.56949060
H        0.68415634      -0.22735388      -1.74115622
H        1.63161763       1.89726276      -0.71150329
H        2.02111184       0.46713113       1.38480820
H        2.33769547      -0.76936087       0.13909471
14
Frame=7 idx=005614 GeodesicLength=0.49272830076075114 rxn_smarts="[C:1]([C:2]1([H:10])[O:3][C:4]([H:11])([H:12])[C:5]([H:13])([H:14])[O:6]1)([H:7])([H:8])[H:9]>>[C:1]([C:2]1=[O+:3][C-:4]([H:12])[C:5]([H:13])([H:14])[O:6]1)([H:7])([H:8])[H:9].[H:10][H:11]"
C       -1.98538004      -0.38690601       0.45502698
C       -0.57779194      -0.12225328       0.07767439
O       -0.20531676       1.06444753      -0.32674849
C        1.18427128       0.90767565      -0.66382205
C        1.63272906      -0.00219805       0.47287548
O        0.38949654      -0.66905749       0.82641914
H       -2.17248385      -1.45848072       0.39691502
H       -2.65317548       0.14314728      -0.21979923
H       -2.17457220      -0.06123363       1.48031677
H       -0.11848623      -0.79284034      -1.56493475
H        0.69161931      -0.21627663      -1.75617538
H        1.63310592       1.89493155      -0.70560463
H        2.02233731       0.47197910       1.38324212
H        2.33364709      -0.77293495       0.14461463
14
Frame=8 idx=005614 GeodesicLength=0.5630117036539399 rxn_smarts="[C:1]([C:2]1([H:10])[O:3][C:4]([H:11])([H:12])[C:5]([H:13])([H:14])[O:6]1)([H:7])([H:8])[H:9]>>[C:1]([C:2]1=[O+:3][C-:4]([H:12])[C:5]([H:13])([H:14])[O:6]1)([H:7])([H:8])[H:9].[H:10][H:11]"
C       -1.98434028      -0.38887935       0.45413651
C       -0.57684427      -0.13006921       0.07019478
O       -0.20510784       1.06455840      -0.32375838
C        1.18708291       0.90379741      -0.66845717
C        1.63150892      -0.00152873       0.47473435
O        0.38839645      -0.66418845       0.83352821
H       -2.17356113      -1.46049252       0.40083278
H       -2.65351501       0.14031778      -0.22008890
H       -2.16962706      -0.05891962       1.47852924
H       -0.13109405      -0.79266826      -1.56028858
H        0.69951461      -0.20463887      -1.77140856
H        1.63450403       1.89255677      -0.69973931
H        2.02357090       0.47668159       1.38168298
H        2.32951183      -0.77652695       0.15010206
14
Frame=9 idx=005614 GeodesicLength=0.6331132450749013 rxn_smarts="[C:1]([C:2]1([H:10])[O:3][C:4]([H:11])([H:12])[C:5]([H:13])([H:14])[O:6]1)([H:7])([H:8])[H:9]>>[C:1]([C:2]1=[O+:3][C-:4]([H:12])[C:5]([H:13])([H:14])[O:6]1)([H:7])([H:8])[H:9].[H:10][H:11]"
C       -1.98326362      -0.39082097       0.45330041
C       -0.57584815      -0.13784318       0.06291401
O       -0.20496965       1.06451884      -0.32098480
C        1.18990455       0.89995145      -0.67298355
C        1.63025362      -0.00089508       0.47659631
O        0.38722118      -0.65926452       0.84056376
H       -2.17458826      -1.46245220       0.40484523
H       -2.65381029       0.13745983      -0.22037481
H       -2.16474272      -0.05654647       1.47673760
H       -0.14395883      -0.79296179      -1.55553214
H        0.70790006      -0.19240129      -1.78687747
H        1.63580826       1.89014550      -0.69389979
H        2.02479640       0.48123859       1.38013724
H        2.32529744      -0.78012870       0.15555801
14
Frame=10 idx=005614 GeodesicLength=0.7034950235608759 rxn_smarts="[C:1]([C:2]1([H:10])[O:3][C:4]([H:11])([H:12])[C:5]([H:13])([H:14])[O:6]1)([H:7])([H:8])[H:9]>>[C:1]([C:2]1=[O+:3][C-:4]([H:12])[C:5]([H:13])([H:14])[O:6]1)([H:7])([H:8])[H:9].[H:10][H:11]"
C       -1.98215093      -0.39271560       0.45253438
C       -0.57481054      -0.14560415       0.05579386
O       -0.20492328       1.06429120      -0.31850461
C        1.19274213       0.89615632      -0.67739120
C        1.62895221      -0.00030515       0.47845288
O        0.38596762      -0.65431691       0.84748773
H       -2.17559121      -1.46433762       0.40900351
H       -2.65407654       0.13458440      -0.22062879
H       -2.15988235      -0.05407103       1.47495241
H       -0.15716576      -0.79388409      -1.55060011
H        0.71695954      -0.17942851      -1.80266431
H        1.63699141       1.88773624      -0.68801783
H        2.02597940       0.48562578       1.37861618
H        2.32100830      -0.78373088       0.16096591
14
Frame=11 idx=005614 GeodesicLength=0.7738928493357077 rxn_smarts="[C:1]([C:2]1([H:10])[O:3][C:4]([H:11])([H:12])[C:5]([H:13])([H:14])[O:6]1)([H:7])([H:8])[H:9]>>[C:1]([C:2]1=[O+:3][C-:4]([H:12])[C:5]([H:13])([H:14])[O:6]1)([H:7])([H:8])[H:9].[H:10][H:11]"
C       -1.98100978      -0.39456377       0.45184571
C       -0.57373865      -0.15336529       0.04882433
O       -0.20496755       1.06387938      -0.31632772
C        1.19560079       0.89240651      -0.68168581
C        1.62760537       0.00024046       0.48030496
O        0.38463824      -0.64935739       0.85429193
H       -2.17658651      -1.46614966       0.41332499
H       -2.65432410       0.13169034      -0.22084291
H       -2.15504132      -0.05148493       1.47318295
H       -0.17072782      -0.79545041      -1.54550746
H        0.72673115      -0.16568963      -1.81877149
H        1.63805604       1.88532684      -0.68209533
H        2.02711084       0.48984789       1.37712580
H        2.31665331      -0.78733033       0.16633004
14
Frame=12 idx=005614 GeodesicLength=0.8445029511952546 rxn_smarts="[C:1]([C:2]1([H:10])[O:3][C:4]([H:11])([H:12])[C:5]([H:13])([H:14])[O:6]1)([H:7])([H:8])[H:9]>>[C:1]([C:2]1=[O+:3][C-:4]([H:12])[C:5]([H:13])([H:14])[O:6]1)([H:7])([H:8])[H:9].[H:10][H:11]"
C       -1.97984143      -0.39635486       0.45124839
C       -0.57264144      -0.16115406       0.04197382
O       -0.20511281       1.06325626      -0.31451575
C        1.19848165       0.88871469      -0.68585777
C        1.62620309       0.00073161       0.48214176
O        0.38323096      -0.64440938       0.86094686
H       -2.17759629      -1.46787409       0.41787311
H       -2.65456376       0.12877072      -0.22100470
H       -2.15018999      -0.04873614       1.47143167
H       -0.18471597      -0.79779216      -1.54021874
H        0.73737591      -0.15105119      -1.83523956
H        1.63897398       1.88294306      -0.67607827
H        2.02816526       0.49388319       1.37566801
H        2.31223084      -0.79092765       0.17163117
14
Frame=13 idx=005614 GeodesicLength=0.9149379968955755 rxn_smarts="[C:1]([C:2]1([H:10])[O:3][C:4]([H:11])([H:12])[C:5]([H:13])([H:14])[O:6]1)([H:7])([H:8])[H:9]>>[C:1]([C:2]1=[O+:3][C-:4]([H:12])[C:5]([H:13])([H:14])[O:6]1)([H:7])([H:8])[H:9].[H:10][H:11]"
C       -1.97865116      -0.39809157       0.45074398
C       -0.57152257      -0.16897531       0.03524336
O       -0.20536588       1.06242903      -0.31305948
C        1.20139138       0.88507066      -0.68991745
C        1.62474588       0.00116473       0.48396654
O        0.38174236      -0.63946959       0.86746645
H       -2.17861756      -1.46951283       0.42266383
H       -2.65480411       0.12581133      -0.22111919
H       -2.14533574      -0.04581901       1.46969693
H       -0.19910894      -0.80090023      -1.53472333
H        0.74888336      -0.13548356      -1.85211450
H        1.63975719       1.88057431      -0.66997085
H        2.02914984       0.49773764       1.37424349
H        2.30773595      -0.79453560       0.17688021
14
Frame=14 idx=005614 GeodesicLength=0.9853148977682868 rxn_smarts="[C:1]([C:2]1([H:10])[O:3][C:4]([H:11])([H:12])[C:5]([H:13])([H:14])[O:6]1)([H:7])([H:8])[H:9]>>[C:1]([C:2]1=[O+:3][C-:4]([H:12])[C:5]([H:13])([H:14])[O:6]1)([H:7])([H:8])[H:9].[H:10][H:11]"
C       -1.97744486      -0.39976739       0.45034760
C       -0.57039224      -0.17685911       0.02860578
O       -0.20573792       1.06137383      -0.31201227
C        1.20433611       0.88148562      -0.69385484
C        1.62322713       0.00152585       0.48576810
O        0.38016571      -0.63455547       0.87383174
H       -2.17967067      -1.47105777       0.42778709
H       -2.65506051       0.12278065      -0.22119141
H       -2.14046206      -0.04266226       1.46797473
H       -0.21396094      -0.80490352      -1.52899478
H        0.76140028      -0.11882338      -1.86944596
H        1.64038846       1.87824268      -0.66372180
H        2.03005138       0.50138769       1.37285157
H        2.30316013      -0.79816741       0.18205446
14
Frame=15 idx=005614 GeodesicLength=1.0556905629015012 rxn_smarts="[C:1]([C:2]1([H:10])[O:3][C:4]([H:11])([H:12])[C:5]([H:13])([H:14])[O:6]1)([H:7])([H:8])[H:9]>>[C:1]([C:2]1=[O+:3][C-:4]([H:12])[C:5]([H:13])([H:14])[O:6]1)([H:7])([H:8])[H:9].[H:10][H:11]"
C       -1.97621997      -0.40137308       0.45006919
C       -0.56925684      -0.18482569       0.02204038
O       -0.20624364       1.06006166      -0.31142961
C        1.20731371       0.87796513      -0.69766462
C        1.62163638       0.00179931       0.48753691
O        0.37849678      -0.62967359       0.88003350
H       -2.18075749      -1.47249236       0.43332000
H       -2.65534138       0.11964974      -0.22122796
H       -2.13554817      -0.03920746       1.46625320
H       -0.22933651      -0.80991353      -1.52297978
H        0.77507408      -0.10091539      -1.88729884
H        1.64083565       1.87595768      -0.65727656
H        2.03086166       0.50480670       1.37148722
H        2.29848573      -0.80183914       0.18713697
14
Frame=16 idx=005614 GeodesicLength=1.126068615035842 rxn_smarts="[C:1]([C:2]1([H:10])[O:3][C:4]([H:11])([H:12])[C:5]([H:13])([H:14])[O:6]1)([H:7])([H:8])[H:9]>>[C:1]([C:2]1=[O+:3][C-:4]([H:12])[C:5]([H:13])([H:14])[O:6]1)([H:7])([H:8])[H:9].[H:10][H:11]"
C       -1.97498601      -0.40289951       0.44992306
C       -0.56812816      -0.19290765       0.01553053
O       -0.20689744       1.05846346      -0.31136012
C        1.21032850       0.87451664      -0.70134191
C        1.61996910       0.00196921       0.48925963
O        0.37672989      -0.62484228       0.88605890
H       -2.18190099      -1.47380147       0.43933383
H       -2.65565904       0.11640207      -0.22123059
H       -2.13059085      -0.03538811       1.46452486
H       -0.24526390      -0.81609340      -1.51662030
H        0.79003590      -0.08156137      -1.90572445
H        1.64107980       1.87373519      -0.65059861
H        2.03157267       0.50796952       1.37014802
H        2.29371052      -0.80556228       0.19209716
