12
Frame=0 idx=002476 GeodesicLength=0.0 rxn_smarts="[N:1]([C:2]1([C:5]#[N:6])[C:3]([H:9])([H:10])[C:4]1([H:11])[H:12])([H:7])[H:8]>>[C:5]=[N:6][H:8].[N:1](=[C:2]1[C:3]([H:9])([H:10])[C:4]1([H:11])[H:12])[H:7]"
N        0.69127386       0.98876430       1.00825828
C       -0.16679347       0.26267409       0.41847615
C       -1.09018356       0.11948182      -0.67472386
C       -0.96045472      -0.93877984       0.43554725
C        1.90115257      -0.85090107      -1.19377350
N        2.03846854       0.30342918      -1.30555882
H        1.19006540       0.62726261       1.80878329
H        1.16378335       1.69345289       0.44807406
H       -0.64663989      -0.09098971      -1.64006355
H       -1.96648884       0.75816593      -0.65859668
H       -1.75409836      -1.03718693       1.16628453
H       -0.40008491      -1.83537328       0.18729280
12
Frame=1 idx=002476 GeodesicLength=0.0967555764787792 rxn_smarts="[N:1]([C:2]1([C:5]#[N:6])[C:3]([H:9])([H:10])[C:4]1([H:11])[H:12])([H:7])[H:8]>>[C:5]=[N:6][H:8].[N:1](=[C:2]1[C:3]([H:9])([H:10])[C:4]1([H:11])[H:12])[H:7]"
N        0.68546653       0.98887547       1.00764366
C       -0.15268417       0.24677638       0.40113965
C       -1.09825520       0.10857452      -0.67587421
C       -0.96804043      -0.94207663       0.43981655
C        1.90806456      -0.80947832      -1.19908881
N        2.07290467       0.34200067      -1.29386963
H        1.16677596       0.62898891       1.82001913
H        1.20564062       1.66252729       0.42436933
H       -0.67450201      -0.11797053      -1.64647171
H       -1.96178448       0.76384523      -0.65141010
H       -1.75478275      -1.02033104       1.18035088
H       -0.42880330      -1.85173193       0.19337525
12
Frame=2 idx=002476 GeodesicLength=0.19341851942727983 rxn_smarts="[N:1]([C:2]1([C:5]#[N:6])[C:3]([H:9])([H:10])[C:4]1([H:11])[H:12])([H:7])[H:8]>>[C:5]=[N:6][H:8].[N:1](=[C:2]1[C:3]([H:9])([H:10])[C:4]1([H:11])[H:12])[H:7]"
N        0.67980729       0.98840683       1.00565948
C       -0.13786158       0.23005047       0.38314670
C       -1.10579419       0.09750724      -0.67700348
C       -0.97535853      -0.94504585       0.44444251
C        1.91395299      -0.76761046      -1.20757841
N        2.10890849       0.37996677      -1.28066533
H        1.14312816       0.63097371       1.82995762
H        1.24547473       1.63275099       0.40427436
H       -0.70320190      -0.14619888      -1.65243167
H       -1.95586910       0.76952277      -0.64479985
H       -1.75486216      -1.00243064       1.19444091
H       -0.45832420      -1.86789295       0.20055716
12
Frame=3 idx=002476 GeodesicLength=0.2899214943360866 rxn_smarts="[N:1]([C:2]1([C:5]#[N:6])[C:3]([H:9])([H:10])[C:4]1([H:11])[H:12])([H:7])[H:8]>>[C:5]=[N:6][H:8].[N:1](=[C:2]1[C:3]([H:9])([H:10])[C:4]1([H:11])[H:12])[H:7]"
N        0.67419410       0.98730858       1.00253326
C       -0.12245942       0.21253231       0.36463771
C       -1.11276742       0.08630975      -0.67814242
C       -0.98233930      -0.94769680       0.44941657
C        1.91862674      -0.72502036      -1.21921086
N        2.14637526       0.41711248      -1.26564501
H        1.11923256       0.63304500       1.83866567
H        1.28347273       1.60419862       0.38719118
H       -0.73274201      -0.17547517      -1.65793298
H       -1.94873523       0.77510871      -0.63885790
H       -1.75426535      -0.98364643       1.20847217
H       -0.48859266      -1.88377668       0.20887262
12
Frame=4 idx=002476 GeodesicLength=0.3862776013857573 rxn_smarts="[N:1]([C:2]1([C:5]#[N:6])[C:3]([H:9])([H:10])[C:4]1([H:11])[H:12])([H:7])[H:8]>>[C:5]=[N:6][H:8].[N:1](=[C:2]1[C:3]([H:9])([H:10])[C:4]1([H:11])[H:12])[H:7]"
N        0.66856279       0.98547759       0.99838587
C       -0.10663421       0.19424192       0.34572517
C       -1.11917689       0.07497833      -0.67924530
C       -0.98903500      -0.95002556       0.45475425
C        1.92217644      -0.68124436      -1.23390988
N        2.18536241       0.45331183      -1.24860617
H        1.09531601       0.63486719       1.84596695
H        1.31974811       1.57694426       0.37259508
H       -0.76309902      -0.20578788      -1.66278734
H       -1.94045510       0.78057986      -0.63363964
H       -1.75319559      -0.96403554       1.22232613
H       -0.51956995      -1.89930765       0.21843489
12
Frame=5 idx=002476 GeodesicLength=0.4824533611364354 rxn_smarts="[N:1]([C:2]1([C:5]#[N:6])[C:3]([H:9])([H:10])[C:4]1([H:11])[H:12])([H:7])[H:8]>>[C:5]=[N:6][H:8].[N:1](=[C:2]1[C:3]([H:9])([H:10])[C:4]1([H:11])[H:12])[H:7]"
N        0.66294083       0.98287477       0.99337623
C       -0.09050572       0.17524196       0.32653736
C       -1.12498965       0.06349738      -0.68035329
C       -0.99543567      -0.95202341       0.46040910
C        1.92446551      -0.63583361      -1.25142184
N        2.22559804       0.48834946      -1.22935020
H        1.07171355       0.63618393       1.85180310
H        1.35446124       1.55105170       0.36009159
H       -0.79429624      -0.23711549      -1.66688012
H       -1.93103702       0.78581916      -0.62932377
H       -1.75170143      -0.94367222       1.23580541
H       -0.55121345      -1.91437365       0.22930643
12
Frame=6 idx=002476 GeodesicLength=0.5783804071024363 rxn_smarts="[N:1]([C:2]1([C:5]#[N:6])[C:3]([H:9])([H:10])[C:4]1([H:11])[H:12])([H:7])[H:8]>>[C:5]=[N:6][H:8].[N:1](=[C:2]1[C:3]([H:9])([H:10])[C:4]1([H:11])[H:12])[H:7]"
N        0.65728509       0.97948267       0.98759319
C       -0.07421413       0.15561488       0.30719899
C       -1.13017588       0.05187463      -0.68145905
C       -1.00149517      -0.95367949       0.46633949
C        1.92536607      -0.58834985      -1.27160397
N        2.26696272       0.52178109      -1.20768523
H        1.04856575       0.63684877       1.85614217
H        1.38771423       1.52650871       0.34923700
H       -0.82624700      -0.26927783      -1.67007594
H       -1.92055903       0.79070621      -0.62595227
H       -1.74983030      -0.92268746       1.24877773
H       -0.58337235      -1.92882234       0.24148790
12
Frame=7 idx=002476 GeodesicLength=0.6739455793935116 rxn_smarts="[N:1]([C:2]1([C:5]#[N:6])[C:3]([H:9])([H:10])[C:4]1([H:11])[H:12])([H:7])[H:8]>>[C:5]=[N:6][H:8].[N:1](=[C:2]1[C:3]([H:9])([H:10])[C:4]1([H:11])[H:12])[H:7]"
N        0.65156588       0.97538352       0.98125139
C       -0.05786421       0.13546336       0.28786754
C       -1.13466635       0.04013811      -0.68265595
C       -1.00713962      -0.95503401       0.47251900
C        1.92475871      -0.53844561      -1.29431733
N        2.30907956       0.55309589      -1.18367949
H        1.02598652       0.63680390       1.85921784
H        1.41962157       1.50335590       0.33974378
H       -0.85883269      -0.30213539      -1.67243754
H       -1.90904914       0.79523340      -0.62366080
H       -1.74757942      -0.90120802       1.26120782
H       -0.61588081      -1.94265104       0.25494372
12
Frame=8 idx=002476 GeodesicLength=0.768774040349063 rxn_smarts="[N:1]([C:2]1([C:5]#[N:6])[C:3]([H:9])([H:10])[C:4]1([H:11])[H:12])([H:7])[H:8]>>[C:5]=[N:6][H:8].[N:1](=[C:2]1[C:3]([H:9])([H:10])[C:4]1([H:11])[H:12])[H:7]"
N        0.64607148       0.96995805       0.97494555
C       -0.04153905       0.11469905       0.26897637
C       -1.13791386       0.02821589      -0.68412109
C       -1.01284652      -0.95579020       0.47894388
C        1.92413571      -0.48583373      -1.31701556
N        2.34869610       0.58401688      -1.16013212
H        1.00530180       0.63430460       1.86071420
H        1.45018531       1.48141594       0.33173744
H       -0.89123687      -0.33642659      -1.67353204
H       -1.89581442       0.79947967      -0.62337413
H       -1.74594295      -0.87854923       1.27249256
H       -0.64909674      -1.95549032       0.27036496
12
Frame=9 idx=002476 GeodesicLength=0.8633838803434573 rxn_smarts="[N:1]([C:2]1([C:5]#[N:6])[C:3]([H:9])([H:10])[C:4]1([H:11])[H:12])([H:7])[H:8]>>[C:5]=[N:6][H:8].[N:1](=[C:2]1[C:3]([H:9])([H:10])[C:4]1([H:11])[H:12])[H:7]"
N        0.64016308       0.96442303       0.96756967
C       -0.02533980       0.09373076       0.24998244
C       -1.14087150       0.01613494      -0.68538690
C       -1.01752729      -0.95644343       0.48536628
C        1.91995672      -0.42957834      -1.34389979
N        2.39169668       0.60954841      -1.13113951
H        0.98425318       0.63261514       1.86098853
H        1.47964568       1.46082073       0.32389845
H       -0.92466642      -0.37022661      -1.67357146
H       -1.88243237       0.80271834      -0.62321682
H       -1.74312652      -0.85633279       1.28322619
H       -0.68175145      -1.96741018       0.28618291
12
Frame=10 idx=002476 GeodesicLength=0.9575039661541341 rxn_smarts="[N:1]([C:2]1([C:5]#[N:6])[C:3]([H:9])([H:10])[C:4]1([H:11])[H:12])([H:7])[H:8]>>[C:5]=[N:6][H:8].[N:1](=[C:2]1[C:3]([H:9])([H:10])[C:4]1([H:11])[H:12])[H:7]"
N        0.63417912       0.95851694       0.95987737
C       -0.00930840       0.07260065       0.23133502
C       -1.14304645       0.00391690      -0.68682071
C       -1.02157621      -0.95689450       0.49179859
C        1.91363423      -0.36931226      -1.37247857
N        2.43454316       0.63072310      -1.09983129
H        0.96394889       0.63043237       1.86029624
H        1.50829781       1.44146676       0.31661988
H       -0.95833457      -0.40411819      -1.67258217
H       -1.86829121       0.80523880      -0.62422052
H       -1.73994616      -0.83414729       1.29303819
H       -0.71410021      -1.97842326       0.30296796
12
Frame=11 idx=002476 GeodesicLength=1.051139098130507 rxn_smarts="[N:1]([C:2]1([C:5]#[N:6])[C:3]([H:9])([H:10])[C:4]1([H:11])[H:12])([H:7])[H:8]>>[C:5]=[N:6][H:8].[N:1](=[C:2]1[C:3]([H:9])([H:10])[C:4]1([H:11])[H:12])[H:7]"
N        0.62815381       0.95246136       0.95196275
C        0.00654518       0.05145371       0.21312098
C       -1.14444855      -0.00847199      -0.68849574
C       -1.02493056      -0.95720259       0.49814632
C        1.90502296      -0.30433669      -1.40242117
N        2.47669924       0.64665163      -1.06647659
H        0.94436154       0.62800507       1.85883510
H        1.53658743       1.42316767       0.30994550
H       -0.99213088      -0.43803002      -1.67057004
H       -1.85357170       0.80696565      -0.62646832
H       -1.73643418      -0.81211931       1.30179926
H       -0.74585429      -1.98854448       0.32062194
12
Frame=12 idx=002476 GeodesicLength=1.144375835386149 rxn_smarts="[N:1]([C:2]1([C:5]#[N:6])[C:3]([H:9])([H:10])[C:4]1([H:11])[H:12])([H:7])[H:8]>>[C:5]=[N:6][H:8].[N:1](=[C:2]1[C:3]([H:9])([H:10])[C:4]1([H:11])[H:12])[H:7]"
N        0.62212008       0.94636850       0.94401239
C        0.02228153       0.03035346       0.19545166
C       -1.14494105      -0.02115581      -0.69052045
C       -1.02763677      -0.95734587       0.50438742
C        1.89411063      -0.23374935      -1.43342075
N        2.51731426       0.65677830      -1.03190136
H        0.92535538       0.62547513       1.85688929
H        1.56513773       1.40552930       0.30420043
H       -1.02578862      -0.47214952      -1.66756046
H       -1.83823292       0.80775096      -0.63015164
H       -1.73283186      -0.79016005       1.30943301
H       -0.77688838      -1.99769504       0.33918045
12
Frame=13 idx=002476 GeodesicLength=1.2368475767531348 rxn_smarts="[N:1]([C:2]1([C:5]#[N:6])[C:3]([H:9])([H:10])[C:4]1([H:11])[H:12])([H:7])[H:8]>>[C:5]=[N:6][H:8].[N:1](=[C:2]1[C:3]([H:9])([H:10])[C:4]1([H:11])[H:12])[H:7]"
N        0.61588308       0.94043896       0.93584878
C        0.03785584       0.00952944       0.17846162
C       -1.14424580      -0.03395903      -0.69284073
C       -1.02937479      -0.95732853       0.51035570
C        1.88092236      -0.15810171      -1.46338962
N        2.55429211       0.66102187      -0.99794711
H        0.90633394       0.62315987       1.85441184
H        1.59444326       1.38762454       0.29968450
H       -1.05852062      -0.50566978      -1.66342504
H       -1.82208571       0.80758693      -0.63521018
H       -1.72874935      -0.76857724       1.31565322
H       -0.80675431      -2.00572531       0.35839703
12
Frame=14 idx=002476 GeodesicLength=1.3290928740911856 rxn_smarts="[N:1]([C:2]1([C:5]#[N:6])[C:3]([H:9])([H:10])[C:4]1([H:11])[H:12])([H:7])[H:8]>>[C:5]=[N:6][H:8].[N:1](=[C:2]1[C:3]([H:9])([H:10])[C:4]1([H:11])[H:12])[H:7]"
N        0.60983221       0.93427299       0.92837842
C        0.05349791      -0.01135700       0.16247876
C       -1.14207336      -0.04723629      -0.69584713
C       -1.03089590      -0.95699998       0.51621355
C        1.86658115      -0.07817800      -1.49110022
N        2.58596528       0.66239459      -0.96773615
H        0.88835018       0.62006147       1.85202160
H        1.62513079       1.36931258       0.29737851
H       -1.08985728      -0.53960394      -1.65851025
H       -1.80462324       0.80652236      -0.64250853
H       -1.72545547      -0.74649483       1.32041570
H       -0.83645228      -2.01269396       0.37881574
12
Frame=15 idx=002476 GeodesicLength=1.421221559781912 rxn_smarts="[N:1]([C:2]1([C:5]#[N:6])[C:3]([H:9])([H:10])[C:4]1([H:11])[H:12])([H:7])[H:8]>>[C:5]=[N:6][H:8].[N:1](=[C:2]1[C:3]([H:9])([H:10])[C:4]1([H:11])[H:12])[H:7]"
N        0.60398448       0.92766009       0.92178950
C        0.06929693      -0.03243793       0.14761517
C       -1.13829651      -0.06100644      -0.69963464
C       -1.03233277      -0.95628683       0.52195361
C        1.85134563       0.00439054      -1.51505910
N        2.61158818       0.66303804      -0.94296897
H        0.87166251       0.61577617       1.84984560
H        1.65725043       1.35022665       0.29751722
H       -1.11949745      -0.57379559      -1.65292364
H       -1.78559639       0.80461358      -0.65226134
H       -1.72311074      -0.72369641       1.32361097
H       -0.86629429      -2.01848187       0.40051562
12
Frame=16 idx=002476 GeodesicLength=1.5129428660725943 rxn_smarts="[N:1]([C:2]1([C:5]#[N:6])[C:3]([H:9])([H:10])[C:4]1([H:11])[H:12])([H:7])[H:8]>>[C:5]=[N:6][H:8].[N:1](=[C:2]1[C:3]([H:9])([H:10])[C:4]1([H:11])[H:12])[H:7]"
N        0.59816348       0.91999349       0.91589951
C        0.08538417      -0.05406506       0.13389657
C       -1.13220832      -0.07514893      -0.70402053
C       -1.03349344      -0.95493966       0.52743750
C        1.83444446       0.08827037      -1.53386957
N        2.63009673       0.66466181      -0.92379048
H        0.85661145       0.60925025       1.84710694
H        1.68953539       1.33033977       0.29961333
H       -1.14702751      -0.60825049      -1.64589206
H       -1.76372834       0.80224392      -0.66456482
H       -1.72126363      -0.69953450       1.32452752
H       -0.89651445      -2.02282096       0.42365609
