13
Frame=0 idx=003524 GeodesicLength=0.0 rxn_smarts="[C:1]([O:2][C:3]([C:4](=[O:5])[N:6]([H:12])[H:13])([H:10])[H:11])([H:7])([H:8])[H:9]>>[C:1]([O:2][C:3](/[C:4]([O:5][H:12])=[N:6]\[H:13])([H:10])[H:11])([H:7])([H:8])[H:9]"
C        1.95579540       0.83160555      -0.15407202
O        0.57027642       0.72425609       0.06149453
C        0.09706343      -0.58066415      -0.10041966
C       -1.37794946      -0.60780490       0.10644350
O       -2.06079030      -1.69066867       0.02987880
N       -2.18904793       0.36404237       0.37687150
H        2.22294901       0.54451984      -1.17863063
H        2.51982790       0.20282492       0.54579112
H        2.22710277       1.87339324       0.00611022
H        0.55332223      -1.27574329       0.61790398
H        0.30353652      -0.97043385      -1.10696504
H       -2.91778357      -0.73942419       0.30384376
H       -1.90430239       1.32409700       0.49174988
13
Frame=1 idx=003524 GeodesicLength=0.034607232221210496 rxn_smarts="[C:1]([O:2][C:3]([C:4](=[O:5])[N:6]([H:12])[H:13])([H:10])[H:11])([H:7])([H:8])[H:9]>>[C:1]([O:2][C:3](/[C:4]([O:5][H:12])=[N:6]\[H:13])([H:10])[H:11])([H:7])([H:8])[H:9]"
C        1.95356028       0.83342895      -0.15332382
O        0.56818602       0.72391902       0.06215356
C        0.09763186      -0.58210935      -0.10043881
C       -1.37712115      -0.61069122       0.10926685
O       -2.06305803      -1.69115903       0.02868355
N       -2.18665469       0.36463575       0.37622681
H        2.22126662       0.54682982      -1.17787719
H        2.51848807       0.20539675       0.54650148
H        2.22347340       1.87557456       0.00698675
H        0.55469744      -1.27730020       0.61717060
H        0.30267001      -0.97059810      -1.10768373
H       -2.92870730      -0.73799329       0.30606419
H       -1.88443254       1.32006634       0.48626976
13
Frame=2 idx=003524 GeodesicLength=0.06920825650588966 rxn_smarts="[C:1]([O:2][C:3]([C:4](=[O:5])[N:6]([H:12])[H:13])([H:10])[H:11])([H:7])([H:8])[H:9]>>[C:1]([O:2][C:3](/[C:4]([O:5][H:12])=[N:6]\[H:13])([H:10])[H:11])([H:7])([H:8])[H:9]"
C        1.95136714       0.83526092      -0.15276889
O        0.56610180       0.72366394       0.06240312
C        0.09824842      -0.58353547      -0.10042689
C       -1.37627397      -0.61350059       0.11187671
O       -2.06530246      -1.69157491       0.02753628
N       -2.18430670       0.36532467       0.37503489
H        2.21982806       0.54871706      -1.17714294
H        2.51705810       0.20828232       0.54739678
H        2.21984148       1.87783337       0.00728308
H        0.55600586      -1.27855267       0.61681695
H        0.30202770      -0.97114104      -1.10817906
H       -2.93985562      -0.73628139       0.30726666
H       -1.86473983       1.31550381       0.48290333
13
Frame=3 idx=003524 GeodesicLength=0.10380836841873742 rxn_smarts="[C:1]([O:2][C:3]([C:4](=[O:5])[N:6]([H:12])[H:13])([H:10])[H:11])([H:7])([H:8])[H:9]>>[C:1]([O:2][C:3](/[C:4]([O:5][H:12])=[N:6]\[H:13])([H:10])[H:11])([H:7])([H:8])[H:9]"
C        1.94921994       0.83709522      -0.15235043
O        0.56403225       0.72347095       0.06232136
C        0.09890839      -0.58494360      -0.10041763
C       -1.37540677      -0.61624185       0.11428947
O       -2.06754033      -1.69190722       0.02634679
N       -2.18199094       0.36609518       0.37335753
H        2.21861513       0.55026723      -1.17640215
H        2.51555064       0.21140937       0.54846656
H        2.21621842       1.88014716       0.00714723
H        0.55726086      -1.27957739       0.61672517
H        0.30157009      -0.97196394      -1.10853209
H       -2.95116155      -0.73436512       0.30793802
H       -1.84527614       1.31051403       0.48111016
13
Frame=4 idx=003524 GeodesicLength=0.13840722964110658 rxn_smarts="[C:1]([O:2][C:3]([C:4](=[O:5])[N:6]([H:12])[H:13])([H:10])[H:11])([H:7])([H:8])[H:9]>>[C:1]([O:2][C:3](/[C:4]([O:5][H:12])=[N:6]\[H:13])([H:10])[H:11])([H:7])([H:8])[H:9]"
C        1.94715412       0.83889168      -0.15178503
O        0.56207208       0.72322201       0.06253431
C        0.09960544      -0.58633213      -0.10045800
C       -1.37447153      -0.61897283       0.11682531
O       -2.06978242      -1.69214606       0.02506231
N       -2.17959537       0.36681111       0.37200567
H        2.21732184       0.55213537      -1.17565565
H        2.51419659       0.21422393       0.54937692
H        2.21274669       1.88235023       0.00750334
H        0.55861399      -1.28081278       0.61632132
H        0.30100795      -0.97248297      -1.10907026
H       -2.96239862      -0.73250965       0.30972207
H       -1.82647077       1.30562208       0.47761769
13
Frame=5 idx=003524 GeodesicLength=0.17300844444518676 rxn_smarts="[C:1]([O:2][C:3]([C:4](=[O:5])[N:6]([H:12])[H:13])([H:10])[H:11])([H:7])([H:8])[H:9]>>[C:1]([O:2][C:3](/[C:4]([O:5][H:12])=[N:6]\[H:13])([H:10])[H:11])([H:7])([H:8])[H:9]"
C        1.94515914       0.84066148      -0.15113201
O        0.56019154       0.72294657       0.06286579
C        0.10033771      -0.58770253      -0.10055666
C       -1.37348525      -0.62167968       0.11937048
O       -2.07203619      -1.69228701       0.02364129
N       -2.17715488       0.36749764       0.37077779
H        2.21604951       0.55414296      -1.17488053
H        2.51292025       0.21687768       0.55024787
H        2.20937954       1.88448962       0.00812155
H        0.56001701      -1.28215095       0.61573225
H        0.30042034      -0.97284561      -1.10972918
H       -2.97361200      -0.73067557       0.31234296
H       -1.80818673       1.30072540       0.47319840
13
Frame=6 idx=003524 GeodesicLength=0.2076115843691358 rxn_smarts="[C:1]([O:2][C:3]([C:4](=[O:5])[N:6]([H:12])[H:13])([H:10])[H:11])([H:7])([H:8])[H:9]>>[C:1]([O:2][C:3](/[C:4]([O:5][H:12])=[N:6]\[H:13])([H:10])[H:11])([H:7])([H:8])[H:9]"
C        1.94319960       0.84244363      -0.15064370
O        0.55831955       0.72272832       0.06285599
C        0.10111820      -0.58906800      -0.10063396
C       -1.37247429      -0.62433438       0.12174653
O       -2.07428011      -1.69236079       0.02224605
N       -2.17471330       0.36822885       0.36926096
H        2.21498058       0.55581832      -1.17412815
H        2.51157203       0.21979353       0.55126045
H        2.20599700       1.88670049       0.00825955
H        0.56138095      -1.28325316       0.61544380
H        0.30001912      -0.97352628      -1.11021356
H       -2.98503956      -0.72857420       0.31408700
H       -1.79007975       1.29540367       0.47045904
13
Frame=7 idx=003524 GeodesicLength=0.24222193262577701 rxn_smarts="[C:1]([O:2][C:3]([C:4](=[O:5])[N:6]([H:12])[H:13])([H:10])[H:11])([H:7])([H:8])[H:9]>>[C:1]([O:2][C:3](/[C:4]([O:5][H:12])=[N:6]\[H:13])([H:10])[H:11])([H:7])([H:8])[H:9]"
C        1.94127733       0.84423191      -0.15026830
O        0.55648292       0.72252670       0.06269695
C        0.10194902      -0.59043956      -0.10066279
C       -1.37141813      -0.62696851       0.12411210
O       -2.07650220      -1.69238726       0.02095147
N       -2.17224881       0.36897033       0.36762738
H        2.21399193       0.55734096      -1.17343171
H        2.51023579       0.22283976       0.55228774
H        2.20262043       1.88894761       0.00812529
H        0.56276794      -1.28423974       0.61533908
H        0.29971397      -0.97438549      -1.11057334
H       -2.99666469      -0.72623352       0.31509538
H       -1.77220550       1.28979681       0.46870075
13
Frame=8 idx=003524 GeodesicLength=0.27684863056428977 rxn_smarts="[C:1]([O:2][C:3]([C:4](=[O:5])[N:6]([H:12])[H:13])([H:10])[H:11])([H:7])([H:8])[H:9]>>[C:1]([O:2][C:3](/[C:4]([O:5][H:12])=[N:6]\[H:13])([H:10])[H:11])([H:7])([H:8])[H:9]"
C        1.93942249       0.84598876      -0.14973873
O        0.55478117       0.72221659       0.06305306
C        0.10282843      -0.59182513      -0.10064033
C       -1.37024752      -0.62966393       0.12692748
O       -2.07869036      -1.69237601       0.01985482
N       -2.16962398       0.36955606       0.36690351
H        2.21274310       0.55932484      -1.17280547
H        2.50916521       0.22550700       0.55299788
H        2.19937034       1.89108166       0.00857322
H        0.56438084      -1.28556709       0.61485371
H        0.29916226      -0.97482598      -1.11110153
H       -3.00833807      -0.72382923       0.31646031
H       -1.75495391       1.28441244       0.46466208
13
Frame=9 idx=003524 GeodesicLength=0.31149283183048493 rxn_smarts="[C:1]([O:2][C:3]([C:4](=[O:5])[N:6]([H:12])[H:13])([H:10])[H:11])([H:7])([H:8])[H:9]>>[C:1]([O:2][C:3](/[C:4]([O:5][H:12])=[N:6]\[H:13])([H:10])[H:11])([H:7])([H:8])[H:9]"
C        1.93760674       0.84774280      -0.14924428
O        0.55315726       0.72186335       0.06356817
C        0.10376013      -0.59323075      -0.10051883
C       -1.36898136      -0.63240768       0.13008667
O       -2.08082198      -1.69235813       0.01906392
N       -2.16684080       0.36998704       0.36710838
H        2.21138920       0.56138453      -1.17227422
H        2.50823199       0.22813347       0.55355731
H        2.19615305       1.89320767       0.00902034
H        0.56617112      -1.28699438       0.61430780
H        0.29849080      -0.97517406      -1.11160334
H       -3.02025153      -0.72114018       0.31678665
H       -1.73806461       1.27898632       0.46014146
13
Frame=10 idx=003524 GeodesicLength=0.34615838850622627 rxn_smarts="[C:1]([O:2][C:3]([C:4](=[O:5])[N:6]([H:12])[H:13])([H:10])[H:11])([H:7])([H:8])[H:9]>>[C:1]([O:2][C:3](/[C:4]([O:5][H:12])=[N:6]\[H:13])([H:10])[H:11])([H:7])([H:8])[H:9]"
C        1.93583621       0.84948711      -0.14873115
O        0.55161445       0.72145708       0.06427199
C        0.10473979      -0.59465444      -0.10034635
C       -1.36763254      -0.63518310       0.13348275
O       -2.08292105      -1.69231002       0.01847836
N       -2.16398006       0.37036322       0.36758342
H        2.20993370       0.56359902      -1.17180899
H        2.50743753       0.23065087       0.55396906
H        2.19298103       1.89530336       0.00961193
H        0.56809379      -1.28854147       0.61365732
H        0.29773455      -0.97540461      -1.11212645
H       -3.03229331      -0.71827961       0.31687706
H       -1.72154408       1.27351258       0.45508104
13
Frame=11 idx=003524 GeodesicLength=0.3808383399761897 rxn_smarts="[C:1]([O:2][C:3]([C:4](=[O:5])[N:6]([H:12])[H:13])([H:10])[H:11])([H:7])([H:8])[H:9]>>[C:1]([O:2][C:3](/[C:4]([O:5][H:12])=[N:6]\[H:13])([H:10])[H:11])([H:7])([H:8])[H:9]"
C        1.93409149       0.85124075      -0.14833365
O        0.55011139       0.72104770       0.06490736
C        0.10576941      -0.59609646      -0.10009633
C       -1.36621747      -0.63797583       0.13701956
O       -2.08497164      -1.69225462       0.01816331
N       -2.16105113       0.37069184       0.36828548
H        2.20849010       0.56570167      -1.17142871
H        2.50668883       0.23328731       0.55434286
H        2.18979610       1.89743778       0.00994560
H        0.57010676      -1.29003361       0.61312721
H        0.29699072      -0.97574845      -1.11253885
H       -3.04457875      -0.71510285       0.31582121
H       -1.70522581       1.26780477       0.45078494
13
Frame=12 idx=003524 GeodesicLength=0.4155279647150337 rxn_smarts="[C:1]([O:2][C:3]([C:4](=[O:5])[N:6]([H:12])[H:13])([H:10])[H:11])([H:7])([H:8])[H:9]>>[C:1]([O:2][C:3](/[C:4]([O:5][H:12])=[N:6]\[H:13])([H:10])[H:11])([H:7])([H:8])[H:9]"
C        1.93236573       0.85300970      -0.14809535
O        0.54862706       0.72065877       0.06535123
C        0.10684748      -0.59755379      -0.09978032
C       -1.36475277      -0.64076861       0.14058854
O       -2.08697960      -1.69219102       0.01808248
N       -2.15809148       0.37101200       0.36894344
H        2.20712264       0.56759128      -1.17112811
H        2.50593481       0.23612454       0.55473727
H        2.18657863       1.89963371       0.00988520
H        0.57216452      -1.29138884       0.61281157
H        0.29632899      -0.97631165      -1.11279816
H       -3.05710635      -0.71159574       0.31354447
H       -1.68903967       1.26177965       0.44785775
13
Frame=13 idx=003524 GeodesicLength=0.45022598348250736 rxn_smarts="[C:1]([O:2][C:3]([C:4](=[O:5])[N:6]([H:12])[H:13])([H:10])[H:11])([H:7])([H:8])[H:9]>>[C:1]([O:2][C:3](/[C:4]([O:5][H:12])=[N:6]\[H:13])([H:10])[H:11])([H:7])([H:8])[H:9]"
C        1.93067779       0.85477259      -0.14787308
O        0.54720283       0.72024256       0.06587830
C        0.10796900      -0.59902097      -0.09942517
C       -1.36322003      -0.64358029       0.14430077
O       -2.08894893      -1.69210846       0.01819795
N       -2.15507967       0.37127722       0.36980074
H        2.20571127       0.56954034      -1.17088346
H        2.50527130       0.23892057       0.55503849
H        2.18339620       1.90181558       0.00985216
H        0.57431859      -1.29279163       0.61246189
H        0.29563268      -0.97683645      -1.11304680
H       -3.06976163      -0.70789876       0.31088258
H       -1.67316942       1.25566770       0.44481562
13
Frame=14 idx=003524 GeodesicLength=0.4849283839553857 rxn_smarts="[C:1]([O:2][C:3]([C:4](=[O:5])[N:6]([H:12])[H:13])([H:10])[H:11])([H:7])([H:8])[H:9]>>[C:1]([O:2][C:3](/[C:4]([O:5][H:12])=[N:6]\[H:13])([H:10])[H:11])([H:7])([H:8])[H:9]"
C        1.92901985       0.85653467      -0.14770563
O        0.54583056       0.71980823       0.06645130
C        0.10913507      -0.60049941      -0.09900844
C       -1.36161513      -0.64641844       0.14818858
O       -2.09086707      -1.69202451       0.01858135
N       -2.15199829       0.37145859       0.37103263
H        2.20425910       0.57149413      -1.17071395
H        2.50468908       0.24172479       0.55524755
H        2.18023529       1.90399925       0.00974617
H        0.57658160      -1.29421348       0.61212187
H        0.29489771      -0.97736049      -1.11324932
H       -3.08258477      -0.70394333       0.30741532
H       -1.65758299       1.24944000       0.44189258
13
Frame=15 idx=003524 GeodesicLength=0.5196303472846803 rxn_smarts="[C:1]([O:2][C:3]([C:4](=[O:5])[N:6]([H:12])[H:13])([H:10])[H:11])([H:7])([H:8])[H:9]>>[C:1]([O:2][C:3](/[C:4]([O:5][H:12])=[N:6]\[H:13])([H:10])[H:11])([H:7])([H:8])[H:9]"
C        1.92738170       0.85830428      -0.14765340
O        0.54448793       0.71938014       0.06694327
C        0.11034556      -0.60198849      -0.09852706
C       -1.35995240      -0.64926868       0.15216503
O       -2.09273586      -1.69194464       0.01923309
N       -2.14888626       0.37159755       0.37235279
H        2.20281764       0.57334710      -1.17063174
H        2.50414224       0.24462811       0.55540521
H        2.17707194       1.90621159       0.00940429
H        0.57891324      -1.29556338       0.61190899
H        0.29419319      -0.97800652      -1.11334392
H       -3.09558746      -0.69969289       0.30292194
H       -1.64219146       1.24299583       0.43982151
13
Frame=16 idx=003524 GeodesicLength=0.5543286142824757 rxn_smarts="[C:1]([O:2][C:3]([C:4](=[O:5])[N:6]([H:12])[H:13])([H:10])[H:11])([H:7])([H:8])[H:9]>>[C:1]([O:2][C:3](/[C:4]([O:5][H:12])=[N:6]\[H:13])([H:10])[H:11])([H:7])([H:8])[H:9]"
C        1.92576170       0.86007985      -0.14770866
O        0.54317672       0.71895470       0.06738444
C        0.11159937      -0.60348759      -0.09797645
C       -1.35822798      -0.65213679       0.15625808
O       -2.09455336      -1.69187436       0.02017658
N       -2.14573975       0.37167848       0.37383631
H        2.20136556       0.57512549      -1.17064225
H        2.50364212       0.24760709       0.55548899
H        2.17391237       1.90844504       0.00885952
H        0.58132432      -1.29685853       0.61180267
H        0.29350022      -0.97874940      -1.11333856
H       -3.10875097      -0.69514492       0.29738714
H       -1.62701032       1.23636094       0.43847218
