21
Frame=0 idx=010817 GeodesicLength=0.0 rxn_smarts="[C:1]([C:2]([C@@:3]1([C:4]([H:13])([H:14])[H:15])[C:5]([H:16])([H:17])[C@:6]1([C:7]([H:19])([H:20])[H:21])[H:18])([H:11])[H:12])([H:8])([H:9])[H:10]>>[C:1]([C:6]([C:3]1([C:4]([H:13])([H:14])[H:15])[C:2]([H:11])([H:12])[C:5]1([H:16])[H:17])([C:7]([H:19])([H:20])[H:21])[H:18])([H:8])([H:9])[H:10]"
C        1.16687483      -0.70385671       1.17737138
C        1.04316639      -0.51100833      -0.71773710
C       -0.02423403       0.52145153      -0.58526750
C        0.54901103       1.91974276      -0.39874007
C       -0.91955686       0.43090078      -1.71241284
C       -0.59800225      -0.00716902       0.71631298
C       -1.51980939      -1.19959788       0.74217673
H        1.88960161      -1.50226873       0.94529941
H        1.72786087       0.14851499       1.54820118
H        0.63497499      -1.16174791       2.02514036
H        2.01763347      -0.26331411      -1.14482619
H        0.68708741      -1.49347338      -1.01115922
H        1.08058265       2.22950189      -1.30026257
H        1.24235469       1.97130777       0.44213317
H       -0.25757347       2.63307519      -0.21788300
H       -1.16118073       1.28659574      -2.32984221
H       -1.40469426      -0.50813319      -1.94552390
H       -0.85852662       0.73170933       1.48257738
H       -1.51066692      -1.65495770       1.73550608
H       -1.23668214      -1.96147827       0.01398495
H       -2.54822117      -0.90579482       0.53495100
21
Frame=1 idx=010817 GeodesicLength=0.08277074664617966 rxn_smarts="[C:1]([C:2]([C@@:3]1([C:4]([H:13])([H:14])[H:15])[C:5]([H:16])([H:17])[C@:6]1([C:7]([H:19])([H:20])[H:21])[H:18])([H:11])[H:12])([H:8])([H:9])[H:10]>>[C:1]([C:6]([C:3]1([C:4]([H:13])([H:14])[H:15])[C:2]([H:11])([H:12])[C:5]1([H:16])[H:17])([C:7]([H:19])([H:20])[H:21])[H:18])([H:8])([H:9])[H:10]"
C        1.16732835      -0.70440347       1.17600133
C        1.03895618      -0.51027729      -0.73355575
C       -0.01256794       0.53231908      -0.57504172
C        0.55810083       1.92923824      -0.39229920
C       -0.91466804       0.41812479      -1.69408731
C       -0.61155736      -0.00334263       0.70818500
C       -1.52470422      -1.20207630       0.73938399
H        1.88299445      -1.50903911       0.94601738
H        1.73651292       0.14460761       1.54334827
H        0.64061171      -1.15211839       2.03179308
H        2.00760672      -0.25854418      -1.17033131
H        0.68422079      -1.49566491      -1.01804850
H        1.08819280       2.23603801      -1.29578614
H        1.25199527       1.98013970       0.44825772
H       -0.25003521       2.64080701      -0.21120637
H       -1.16069937       1.27065183      -2.31436306
H       -1.39590009      -0.52035147      -1.93566539
H       -0.88213930       0.73953200       1.46653489
H       -1.51748879      -1.64946077       1.73631703
H       -1.23248553      -1.96880445       0.01986860
H       -2.55427418      -0.91737529       0.52467746
21
Frame=2 idx=010817 GeodesicLength=0.16551848090107463 rxn_smarts="[C:1]([C:2]([C@@:3]1([C:4]([H:13])([H:14])[H:15])[C:5]([H:16])([H:17])[C@:6]1([C:7]([H:19])([H:20])[H:21])[H:18])([H:11])[H:12])([H:8])([H:9])[H:10]>>[C:1]([C:6]([C:3]1([C:4]([H:13])([H:14])[H:15])[C:2]([H:11])([H:12])[C:5]1([H:16])[H:17])([C:7]([H:19])([H:20])[H:21])[H:18])([H:8])([H:9])[H:10]"
C        1.16791238      -0.70492511       1.17477757
C        1.03462011      -0.50941319      -0.74943156
C       -0.00103115       0.54262708      -0.56486002
C        0.56703442       1.93831113      -0.38577414
C       -0.90955710       0.40552296      -1.67588104
C       -0.62515934       0.00049478       0.69980969
C       -1.52951813      -1.20455513       0.73668850
H        1.87624223      -1.51592101       0.94692701
H        1.74551423       0.14058768       1.53837141
H        0.64644716      -1.14218076       2.03855051
H        1.99719417      -0.25346721      -1.19603872
H        0.68169399      -1.49785858      -1.02484006
H        1.09578112       2.24232477      -1.29107452
H        1.26145698       1.98881019       0.45446968
H       -0.24261133       2.64816179      -0.20445882
H       -1.15981182       1.25498211      -2.29888831
H       -1.38755948      -0.53198075      -1.92593612
H       -0.90603467       0.74742059       1.44986231
H       -1.52427522      -1.64373625       1.73724243
H       -1.22818825      -1.97606356       0.02603444
H       -2.56015030      -0.92914153       0.51444977
21
Frame=3 idx=010817 GeodesicLength=0.24824145693259905 rxn_smarts="[C:1]([C:2]([C@@:3]1([C:4]([H:13])([H:14])[H:15])[C:5]([H:16])([H:17])[C@:6]1([C:7]([H:19])([H:20])[H:21])[H:18])([H:11])[H:12])([H:8])([H:9])[H:10]>>[C:1]([C:6]([C:3]1([C:4]([H:13])([H:14])[H:15])[C:2]([H:11])([H:12])[C:5]1([H:16])[H:17])([C:7]([H:19])([H:20])[H:21])[H:18])([H:8])([H:9])[H:10]"
C        1.16863994      -0.70543552       1.17371451
C        1.03016570      -0.50841208      -0.76535012
C        0.01036040       0.55237131      -0.55471571
C        0.57580036       1.94695474      -0.37916270
C       -0.90424146       0.39309465      -1.65783086
C       -0.63879157       0.00434173       0.69120550
C       -1.53425155      -1.20701621       0.73409240
H        1.86934955      -1.52292617       0.94804612
H        1.75487788       0.13643437       1.53327369
H        0.65249656      -1.13195582       2.04541542
H        1.98638746      -0.24806475      -1.22193509
H        0.67951307      -1.50003744      -1.03153981
H        1.10333372       2.24835550      -1.28613078
H        1.27073084       1.99730847       0.46076973
H       -0.23531361       2.65513430      -0.19764088
H       -1.15854406       1.23959995      -2.28343873
H       -1.37964866      -0.54305491      -1.91634786
H       -0.93019299       0.75537600       1.43255205
H       -1.53103368      -1.63777786       1.73827374
H       -1.22379562      -1.98322629       0.03247560
H       -2.56584227      -0.94106399       0.50427377
21
Frame=4 idx=010817 GeodesicLength=0.3309368958159168 rxn_smarts="[C:1]([C:2]([C@@:3]1([C:4]([H:13])([H:14])[H:15])[C:5]([H:16])([H:17])[C@:6]1([C:7]([H:19])([H:20])[H:21])[H:18])([H:11])[H:12])([H:8])([H:9])[H:10]>>[C:1]([C:6]([C:3]1([C:4]([H:13])([H:14])[H:15])[C:2]([H:11])([H:12])[C:5]1([H:16])[H:17])([C:7]([H:19])([H:20])[H:21])[H:18])([H:8])([H:9])[H:10]"
C        1.16952351      -0.70594752       1.17282531
C        1.02559951      -0.50727004      -0.78129703
C        0.02159292       0.56154884      -0.54460275
C        0.58438911       1.95516225      -0.37246211
C       -0.89874049       0.38083793      -1.63996939
C       -0.65243771       0.00819723       0.68239010
C       -1.53890448      -1.20944119       0.73159608
H        1.86232160      -1.53006327       0.94939267
H        1.76461422       0.13212824       1.52805750
H        0.65877588      -1.12146294       2.05238959
H        1.97517569      -0.24231924      -1.24800571
H        0.67768118      -1.50218275      -1.03815412
H        1.11083672       2.25412318      -1.28095702
H        1.27980941       2.00562241       0.46715918
H       -0.22815161       2.66171840      -0.19075204
H       -1.15692282       1.22451498      -2.26803352
H       -1.37214303      -0.55360850      -1.90690950
H       -0.95459378       0.76339877       1.41459434
H       -1.53777096      -1.63157857       1.73940078
H       -1.21931260      -1.99026445       0.03918528
H       -2.57134226      -0.95311376       0.49415235
21
Frame=5 idx=010817 GeodesicLength=0.4136025877315722 rxn_smarts="[C:1]([C:2]([C@@:3]1([C:4]([H:13])([H:14])[H:15])[C:5]([H:16])([H:17])[C@:6]1([C:7]([H:19])([H:20])[H:21])[H:18])([H:11])[H:12])([H:8])([H:9])[H:10]>>[C:1]([C:6]([C:3]1([C:4]([H:13])([H:14])[H:15])[C:2]([H:11])([H:12])[C:5]1([H:16])[H:17])([C:7]([H:19])([H:20])[H:21])[H:18])([H:8])([H:9])[H:10]"
C        1.17057483      -0.70647384       1.17212188
C        1.02092807      -0.50598321      -0.79725927
C        0.03265403       0.57015889      -0.53451541
C        0.59279239       1.96292885      -0.36566941
C       -0.89307463       0.36874977      -1.62232572
C       -0.66608249       0.01206052       0.67338087
C       -1.54347745      -1.21181264       0.72919985
H        1.85516321      -1.53734035       0.95098414
H        1.77473131       0.12765012       1.52272421
H        0.66530188      -1.11072125       2.05947511
H        1.96354781      -0.23621335      -1.27423603
H        0.67620004      -1.50427584      -1.04469050
H        1.11827726       2.25962269      -1.27555539
H        1.28868611       2.01374083       0.47363976
H       -0.22113376       2.66791012      -0.18379161
H       -1.15497206       1.20973336      -2.25269338
H       -1.36501784      -0.56367641      -1.89762755
H       -0.97921692       0.77148890       1.39597830
H       -1.54449371      -1.62513217       1.74061380
H       -1.21474430      -1.99715199       0.04615716
H       -2.57664377      -0.96526301       0.48408918
21
Frame=6 idx=010817 GeodesicLength=0.4962366712782903 rxn_smarts="[C:1]([C:2]([C@@:3]1([C:4]([H:13])([H:14])[H:15])[C:5]([H:16])([H:17])[C@:6]1([C:7]([H:19])([H:20])[H:21])[H:18])([H:11])[H:12])([H:8])([H:9])[H:10]>>[C:1]([C:6]([C:3]1([C:4]([H:13])([H:14])[H:15])[C:2]([H:11])([H:12])[C:5]1([H:16])[H:17])([C:7]([H:19])([H:20])[H:21])[H:18])([H:8])([H:9])[H:10]"
C        1.17180477      -0.70702683       1.17161487
C        1.01615767      -0.50454775      -0.81322505
C        0.04353298       0.57820253      -0.52444846
C        0.60100338       1.97025130      -0.35878132
C       -0.88726489       0.35682608      -1.60492538
C       -0.67971172       0.01593115       0.66419435
C       -1.54797146      -1.21411393       0.72690362
H        1.84787917      -1.54476410       0.95283760
H        1.78523468       0.12298155       1.51727428
H        0.67209193      -1.09974927       2.06667399
H        1.95149212      -0.22973020      -1.30061136
H        0.67507005      -1.50629806      -1.05115714
H        1.12564345       2.26485040      -1.26992784
H        1.29735550       2.02165307       0.48021363
H       -0.21426707       2.67370693      -0.17675843
H       -1.15271435       1.19525806      -2.23743903
H       -1.35824831      -0.57329364      -1.88850660
H       -1.00404228       0.77964570       1.37669165
H       -1.55120845      -1.61843273       1.74190328
H       -1.21009587      -2.00386491       0.05338545
H       -2.58174129      -0.97748534       0.47408789
21
Frame=7 idx=010817 GeodesicLength=0.578837577626284 rxn_smarts="[C:1]([C:2]([C@@:3]1([C:4]([H:13])([H:14])[H:15])[C:5]([H:16])([H:17])[C@:6]1([C:7]([H:19])([H:20])[H:21])[H:18])([H:11])[H:12])([H:8])([H:9])[H:10]>>[C:1]([C:6]([C:3]1([C:4]([H:13])([H:14])[H:15])[C:2]([H:11])([H:12])[C:5]1([H:16])[H:17])([C:7]([H:19])([H:20])[H:21])[H:18])([H:8])([H:9])[H:10]"
C        1.17322349      -0.70761837       1.17131370
C        1.01129446      -0.50295999      -0.82918385
C        0.05422084       0.58568243      -0.51439737
C        0.60901695       1.97712785      -0.35179465
C       -0.88133245       0.34506191      -1.58779049
C       -0.69331247       0.01980897       0.65484600
C       -1.55238811      -1.21632947       0.72470713
H        1.84047541      -1.55233925       0.95496975
H        1.79612667       0.11810525       1.51170802
H        0.67916375      -1.08856589       2.07398762
H        1.93899656      -0.22285369      -1.32711671
H        0.67429064      -1.50823115      -1.05756266
H        1.13292475       2.26980416      -1.26407640
H        1.30581346       2.02934910       0.48688307
H       -0.20755705       2.67910784      -0.16965116
H       -1.15017175       1.18108960      -2.22229030
H       -1.35181005      -0.58249499      -1.87954972
H       -1.02904974       0.78786779       1.35672051
H       -1.55792187      -1.61147472       1.74326023
H       -1.20537282      -2.01038147       0.06086513
H       -2.58663066      -0.98975590       0.46415216
21
Frame=8 idx=010817 GeodesicLength=0.6614041142615874 rxn_smarts="[C:1]([C:2]([C@@:3]1([C:4]([H:13])([H:14])[H:15])[C:5]([H:16])([H:17])[C@:6]1([C:7]([H:19])([H:20])[H:21])[H:18])([H:11])[H:12])([H:8])([H:9])[H:10]>>[C:1]([C:6]([C:3]1([C:4]([H:13])([H:14])[H:15])[C:2]([H:11])([H:12])[C:5]1([H:16])[H:17])([C:7]([H:19])([H:20])[H:21])[H:18])([H:8])([H:9])[H:10]"
C        1.17483935      -0.70825968       1.17122650
C        1.00634367      -0.50121572      -0.84512659
C        0.06470960       0.59260296      -0.50435795
C        0.61682872       1.98355771      -0.34470563
C       -0.87529823       0.33345067      -1.57093987
C       -0.70687286       0.02369413       0.64534972
C       -1.55672890      -1.21844391       0.72260921
H        1.83295532      -1.56006921       0.95739646
H        1.80740705       0.11300435       1.50602441
H        0.68653590      -1.07718830       2.08141764
H        1.92604873      -0.21556755      -1.35373548
H        0.67386033      -1.51005692      -1.06391619
H        1.14011102       2.27448234      -1.25800231
H        1.31405647       2.03681915       0.49365085
H       -0.20100794       2.68411244      -0.16246789
H       -1.14736468       1.16722428      -2.20726652
H       -1.34567911      -0.59131536      -1.87075873
H       -1.05421670       0.79615167       1.33605006
H       -1.56463897      -1.60425178       1.74467511
H       -1.20058070      -2.01668057       0.06859066
H       -2.59130809      -1.00205068       0.45428655
21
Frame=9 idx=010817 GeodesicLength=0.7439504852675285 rxn_smarts="[C:1]([C:2]([C@@:3]1([C:4]([H:13])([H:14])[H:15])[C:5]([H:16])([H:17])[C@:6]1([C:7]([H:19])([H:20])[H:21])[H:18])([H:11])[H:12])([H:8])([H:9])[H:10]>>[C:1]([C:6]([C:3]1([C:4]([H:13])([H:14])[H:15])[C:2]([H:11])([H:12])[C:5]1([H:16])[H:17])([C:7]([H:19])([H:20])[H:21])[H:18])([H:8])([H:9])[H:10]"
C        1.17665990      -0.70895745       1.17136053
C        1.00131226      -0.49931071      -0.86104564
C        0.07499580       0.59897021      -0.49432551
C        0.62444143       1.98954056      -0.33750482
C       -0.86918028       0.32198446      -1.55438804
C       -0.72038458       0.02758773       0.63571656
C       -1.56099210      -1.22044764       0.72060893
H        1.82529294      -1.56797596       0.96013742
H        1.81909687       0.10765571       1.50020343
H        0.69422849      -1.06559791       2.08897854
H        1.91262493      -0.20785439      -1.38047271
H        0.67378024      -1.51175717      -1.07022987
H        1.14719987       2.27888634      -1.25170008
H        1.32209011       2.04405145       0.50052408
H       -0.19461419       2.68872282      -0.15519320
H       -1.14433219       1.15366389      -2.19236534
H       -1.33982273      -0.59979295      -1.86213576
H       -1.07954965       0.80450200       1.31464090
H       -1.57137268      -1.59674811       1.74614483
H       -1.19570859      -2.02275262       0.07657040
H       -2.59576586      -1.01437026       0.44447533
21
Frame=10 idx=010817 GeodesicLength=0.8264769852808252 rxn_smarts="[C:1]([C:2]([C@@:3]1([C:4]([H:13])([H:14])[H:15])[C:5]([H:16])([H:17])[C@:6]1([C:7]([H:19])([H:20])[H:21])[H:18])([H:11])[H:12])([H:8])([H:9])[H:10]>>[C:1]([C:6]([C:3]1([C:4]([H:13])([H:14])[H:15])[C:2]([H:11])([H:12])[C:5]1([H:16])[H:17])([C:7]([H:19])([H:20])[H:21])[H:18])([H:8])([H:9])[H:10]"
C        1.17869218      -0.70972155       1.17172112
C        0.99620468      -0.49724070      -0.87693531
C        0.08507422       0.60479096      -0.48429746
C        0.63185335       1.99507794      -0.33018700
C       -0.86299869       0.31065617      -1.53814839
C       -0.73383888       0.03149014       0.62595699
C       -1.56517963      -1.22232834       0.71870572
H        1.81748836      -1.57606212       0.96320891
H        1.83119443       0.10204242       1.49423929
H        0.70226142      -1.05380567       2.09667135
H        1.89871032      -0.19969887      -1.40731253
H        0.67404787      -1.51331510      -1.07651342
H        1.15418515       2.28301822      -1.24516830
H        1.32991109       2.05103748       0.50750890
H       -0.18837816       2.69294121      -0.14782472
H       -1.14108909       1.14040082      -2.17760739
H       -1.33422180      -0.60796000      -1.85367929
H       -1.10502659       0.81291217       1.29247316
H       -1.57812861      -1.58895701       1.74766212
H       -1.19076046      -2.02858152       0.08480293
H       -2.60000115      -1.02669665       0.43472332
21
Frame=11 idx=010817 GeodesicLength=0.9089841536608946 rxn_smarts="[C:1]([C:2]([C@@:3]1([C:4]([H:13])([H:14])[H:15])[C:5]([H:16])([H:17])[C@:6]1([C:7]([H:19])([H:20])[H:21])[H:18])([H:11])[H:12])([H:8])([H:9])[H:10]>>[C:1]([C:6]([C:3]1([C:4]([H:13])([H:14])[H:15])[C:2]([H:11])([H:12])[C:5]1([H:16])[H:17])([C:7]([H:19])([H:20])[H:21])[H:18])([H:8])([H:9])[H:10]"
C        1.18094257      -0.71056075       1.17231234
C        0.99102460      -0.49500169      -0.89279086
C        0.09494109       0.61007242      -0.47427191
C        0.63906398       2.00017162      -0.32274681
C       -0.85677271       0.29945796      -1.52223174
C       -0.74722801       0.03540216       0.61607941
C       -1.56929392      -1.22407405       0.71689880
H        1.80954432      -1.58432597       0.96662689
H        1.84369407       0.09614920       1.48812699
H        0.71065495      -1.04182333       2.10449481
H        1.88428921      -0.19108708      -1.43423819
H        0.67465992      -1.51471447      -1.08277614
H        1.16106211       2.28688023      -1.23840494
H        1.33751673       2.05776879       0.51461203
H       -0.18230099       2.69676966      -0.14035986
H       -1.13765076       1.12742577      -2.16301107
H       -1.32885825      -0.61584802      -1.84538748
H       -1.13062341       0.82137457       1.26952547
H       -1.58491223      -1.58087158       1.74921962
H       -1.18574117      -2.03415241       0.09328761
H       -2.60401212      -1.03901301       0.42503500
21
Frame=12 idx=010817 GeodesicLength=0.9914727612550719 rxn_smarts="[C:1]([C:2]([C@@:3]1([C:4]([H:13])([H:14])[H:15])[C:5]([H:16])([H:17])[C@:6]1([C:7]([H:19])([H:20])[H:21])[H:18])([H:11])[H:12])([H:8])([H:9])[H:10]>>[C:1]([C:6]([C:3]1([C:4]([H:13])([H:14])[H:15])[C:2]([H:11])([H:12])[C:5]1([H:16])[H:17])([C:7]([H:19])([H:20])[H:21])[H:18])([H:8])([H:9])[H:10]"
C        1.18341624      -0.71148330       1.17313782
C        0.98577568      -0.49258943      -0.90860843
C        0.10459373       0.61482253      -0.46424779
C        0.64607354       2.00482434      -0.31517951
C       -0.85051992       0.28838103      -1.50664736
C       -0.76054556       0.03932490       0.60609038
C       -1.57333813      -1.22567333       0.71518708
H        1.80146219      -1.59276522       0.97040730
H        1.85658834       0.08996161       1.48186042
H        0.71942967      -1.02966163       2.11244790
H        1.86934736      -0.18200539      -1.46122977
H        0.67561457      -1.51593978      -1.08902723
H        1.16782591       2.29047531      -1.23140907
H        1.34490642       2.06423708       0.52183852
H       -0.17638310       2.70021073      -0.13279428
H       -1.13403571       1.11472846      -2.14859101
H       -1.32371311      -0.62348855      -1.83725979
H       -1.15631448       0.82988022       1.24577576
H       -1.59172810      -1.57248545       1.75080990
H       -1.18065714      -2.03945094       0.10202289
H       -2.60779842      -1.05130318       0.41541627
21
Frame=13 idx=010817 GeodesicLength=1.0739439669498934 rxn_smarts="[C:1]([C:2]([C@@:3]1([C:4]([H:13])([H:14])[H:15])[C:5]([H:16])([H:17])[C@:6]1([C:7]([H:19])([H:20])[H:21])[H:18])([H:11])[H:12])([H:8])([H:9])[H:10]>>[C:1]([C:6]([C:3]1([C:4]([H:13])([H:14])[H:15])[C:2]([H:11])([H:12])[C:5]1([H:16])[H:17])([C:7]([H:19])([H:20])[H:21])[H:18])([H:8])([H:9])[H:10]"
C        1.18611740      -0.71249671       1.17420009
C        0.98046089      -0.48999960      -0.92438542
C        0.11403020       0.61904970      -0.45422482
C        0.65288269       2.00903937      -0.30748046
C       -0.84425687       0.27741605      -1.49140277
C       -0.77378638       0.04325976       0.59599446
C       -1.57731599      -1.22711520       0.71356930
H        1.79324389      -1.60137534       0.97456544
H        1.86986716       0.08346633       1.47543311
H        0.72860659      -1.01733117       2.12052856
H        1.85387102      -0.17244106      -1.48826537
H        0.67691013      -1.51697615      -1.09527581
H        1.17447250       2.29380698      -1.22417949
H        1.35207966       2.07043448       0.52919361
H       -0.17062465       2.70326720      -0.12512350
H       -1.13026178       1.10229703      -2.13436100
H       -1.31876863      -0.63091228      -1.82929559
H       -1.18207086       0.83841821       1.22120276
H       -1.59858066      -1.56379189       1.75242582
H       -1.17551550      -2.04446384       0.11100767
H       -2.61136079      -1.06355187       0.40587341
21
Frame=14 idx=010817 GeodesicLength=1.1563993409503954 rxn_smarts="[C:1]([C:2]([C@@:3]1([C:4]([H:13])([H:14])[H:15])[C:5]([H:16])([H:17])[C@:6]1([C:7]([H:19])([H:20])[H:21])[H:18])([H:11])[H:12])([H:8])([H:9])[H:10]>>[C:1]([C:6]([C:3]1([C:4]([H:13])([H:14])[H:15])[C:2]([H:11])([H:12])[C:5]1([H:16])[H:17])([C:7]([H:19])([H:20])[H:21])[H:18])([H:8])([H:9])[H:10]"
C        1.18904922      -0.71360778       1.17550081
C        0.97508251      -0.48722772      -0.94012040
C        0.12324919       0.62276271      -0.44420357
C        0.65949253       2.01282045      -0.29964525
C       -0.83799891       0.26655328      -1.47650415
C       -0.78694655       0.04720828       0.58579407
C       -1.58123176      -1.22838926       0.71204398
H        1.78489132      -1.61015015       0.97911630
H        1.88351826       0.07665107       1.46883805
H        0.73820708      -1.00484181       2.12873403
H        1.83784750      -0.16238229      -1.51532067
H        0.67854526      -1.51780926      -1.10153091
H        1.18099844       2.29687928      -1.21671493
H        1.35903624       2.07635350       0.53668242
H       -0.16502548       2.70594207      -0.11734285
H       -1.12634698       1.09011851      -2.12033349
H       -1.31400832      -0.63814898      -1.82149437
H       -1.20786039       0.84697565       1.19578645
H       -1.60547403      -1.55478390       1.75406038
H       -1.17032409      -2.04917886       0.12024102
H       -2.61470105      -1.07574479       0.39641307
21
Frame=15 idx=010817 GeodesicLength=1.2388408692463568 rxn_smarts="[C:1]([C:2]([C@@:3]1([C:4]([H:13])([H:14])[H:15])[C:5]([H:16])([H:17])[C@:6]1([C:7]([H:19])([H:20])[H:21])[H:18])([H:11])[H:12])([H:8])([H:9])[H:10]>>[C:1]([C:6]([C:3]1([C:4]([H:13])([H:14])[H:15])[C:2]([H:11])([H:12])[C:5]1([H:16])[H:17])([C:7]([H:19])([H:20])[H:21])[H:18])([H:8])([H:9])[H:10]"
C        1.19221392      -0.71482263       1.17704084
C        0.96964219      -0.48426922      -0.95581301
C        0.13224984       0.62597055      -0.43418545
C        0.66590431       2.01617164      -0.29166975
C       -0.83176024       0.25578263      -1.46195661
C       -0.80002328       0.05117215       0.57548955
C       -1.58509027      -1.22948551       0.71060933
H        1.77640655      -1.61908184       0.98407453
H        1.89752735       0.06950452       1.46206764
H        0.74825288      -0.99220285       2.13706078
H        1.82126537      -0.15181827      -1.54236896
H        0.68051915      -1.51842532      -1.10780148
H        1.18740065       2.29969676      -1.20901412
H        1.36577608       2.08198702       0.54430988
H       -0.15958541       2.70823831      -0.10944735
H       -1.12230937       1.07817894      -2.10651987
H       -1.30941677      -0.64522756      -1.81385587
H       -1.23364718       0.85553777       1.16950887
H       -1.61241226      -1.54545405       1.75570667
H       -1.16509142      -2.05358464       0.12972231
H       -2.61782209      -1.08786840       0.38704207
21
Frame=16 idx=010817 GeodesicLength=1.321271016242927 rxn_smarts="[C:1]([C:2]([C@@:3]1([C:4]([H:13])([H:14])[H:15])[C:5]([H:16])([H:17])[C@:6]1([C:7]([H:19])([H:20])[H:21])[H:18])([H:11])[H:12])([H:8])([H:9])[H:10]>>[C:1]([C:6]([C:3]1([C:4]([H:13])([H:14])[H:15])[C:2]([H:11])([H:12])[C:5]1([H:16])[H:17])([C:7]([H:19])([H:20])[H:21])[H:18])([H:8])([H:9])[H:10]"
C        1.19561272      -0.71614665       1.17882026
C        0.96414086      -0.48111934      -0.97146388
C        0.14103154       0.62868234      -0.42417271
C        0.67211928       2.01909727      -0.28355006
C       -0.82555395       0.24509374      -1.44776440
C       -0.81301494       0.05515314       0.56507917
C       -1.58889690      -1.23039433       0.70926332
H        1.76779146      -1.62816114       0.98945445
H        1.91187854       0.06201621       1.45511342
H        0.75876623      -0.97942280       2.14550462
H        1.80411441      -0.14073917      -1.56938158
H        0.68283146      -1.51881095      -1.11409634
H        1.19367664       2.30226420      -1.20107551
H        1.37229867       2.08732830       0.55208107
H       -0.15430447       2.71015888      -0.10143213
H       -1.11816663       1.06646341      -2.09293095
H       -1.30497959      -0.65217613      -1.80638013
H       -1.25939151       0.86408801       1.14235508
H       -1.61939930      -1.53579444       1.75735782
H       -1.15982672      -2.05767060       0.13945112
H       -2.62072782      -1.09990994       0.37776735
