16
Frame=0 idx=003247 GeodesicLength=0.0 rxn_smarts="[C:1]([C@@:2]1([H:10])[C:3]([H:11])([H:12])[C:4]([H:13])([H:14])[O:5][C:6]1([H:15])[H:16])([H:7])([H:8])[H:9]>>[C:1]([C@@:2]1([H:10])[C:3]([H:11])([H:12])[C@@:4]1([O:5][C:6]([H:14])([H:15])[H:16])[H:13])([H:7])([H:8])[H:9]"
C        1.76903865      -0.02576671      -0.02738568
C        0.56685635       0.79597848      -0.33753680
C       -0.46124212       0.29131178      -1.22510433
C       -1.50556074      -0.54745325      -0.41671188
O       -0.90552076      -1.25329763       0.60733804
C       -0.68134603      -0.13398491       1.43744785
H        2.44465012      -0.09321227      -0.88687542
H        2.34257821       0.39440393       0.80106654
H        1.47990981      -1.05403134       0.22360642
H        0.66460738       1.87045358      -0.21929830
H       -0.99246583       1.04773682      -1.80149407
H       -0.02244228      -0.43866870      -1.91807352
H       -2.17273682      -1.18827773      -1.00665762
H       -1.37637480       0.56988922       0.64399712
H       -1.44989051      -0.12212635       2.21528455
H        0.29993931      -0.11295496       1.91039714
16
Frame=1 idx=003247 GeodesicLength=0.10542885906325712 rxn_smarts="[C:1]([C@@:2]1([H:10])[C:3]([H:11])([H:12])[C:4]([H:13])([H:14])[O:5][C:6]1([H:15])[H:16])([H:7])([H:8])[H:9]>>[C:1]([C@@:2]1([H:10])[C:3]([H:11])([H:12])[C@@:4]1([O:5][C:6]([H:14])([H:15])[H:16])[H:13])([H:7])([H:8])[H:9]"
C        1.77659328      -0.03748731      -0.03966819
C        0.55804521       0.77286426      -0.31852213
C       -0.46020656       0.29555482      -1.23442161
C       -1.48310305      -0.55521247      -0.42494438
O       -0.91392784      -1.24292547       0.62955246
C       -0.69476361      -0.11186141       1.44443231
H        2.43185593      -0.10200054      -0.91462768
H        2.36736845       0.38915331       0.77330185
H        1.50371948      -1.06685430       0.22326079
H        0.65066183       1.84561599      -0.17949792
H       -0.99250265       1.06857194      -1.78651914
H       -0.01989276      -0.41809255      -1.94233746
H       -2.12900542      -1.21476855      -1.01728646
H       -1.42190630       0.57434943       0.63283990
H       -1.45647330      -0.09505323       2.22867499
H        0.28353731      -0.10185393       1.92576265
16
Frame=2 idx=003247 GeodesicLength=0.2107669477160078 rxn_smarts="[C:1]([C@@:2]1([H:10])[C:3]([H:11])([H:12])[C:4]([H:13])([H:14])[O:5][C:6]1([H:15])[H:16])([H:7])([H:8])[H:9]>>[C:1]([C@@:2]1([H:10])[C:3]([H:11])([H:12])[C@@:4]1([O:5][C:6]([H:14])([H:15])[H:16])[H:13])([H:7])([H:8])[H:9]"
C        1.78419136      -0.04900711      -0.05213368
C        0.54954483       0.74879275      -0.29973095
C       -0.45903056       0.30026856      -1.24304459
C       -1.46017588      -0.56269032      -0.43237385
O       -0.92370224      -1.23253421       0.65149065
C       -0.70853660      -0.09026520       1.45131489
H        2.41880978      -0.11081754      -0.94202344
H        2.39162854       0.38515939       0.74449111
H        1.52854491      -1.07937191       0.22261616
H        0.63773567       1.81952968      -0.14100473
H       -0.99241707       1.08927919      -1.77011724
H       -0.01764700      -0.39643812      -1.96607034
H       -2.08418216      -1.24046824      -1.02706106
H       -1.46745500       0.57700395       0.62077961
H       -1.46371492      -0.06698775       2.24149377
H        0.26640635      -0.09145311       1.94137368
16
Frame=3 idx=003247 GeodesicLength=0.3160575507944242 rxn_smarts="[C:1]([C@@:2]1([H:10])[C:3]([H:11])([H:12])[C:4]([H:13])([H:14])[O:5][C:6]1([H:15])[H:16])([H:7])([H:8])[H:9]>>[C:1]([C@@:2]1([H:10])[C:3]([H:11])([H:12])[C@@:4]1([O:5][C:6]([H:14])([H:15])[H:16])[H:13])([H:7])([H:8])[H:9]"
C        1.79188258      -0.06030200      -0.06482014
C        0.54138516       0.72374358      -0.28114067
C       -0.45771437       0.30539973      -1.25086989
C       -1.43693899      -0.56980473      -0.43897949
O       -0.93500373      -1.22208940       0.67307310
C       -0.72265541      -0.06920228       1.45806499
H        2.40553687      -0.11966691      -0.96912431
H        2.41536047       0.38248016       0.71456972
H        1.55451090      -1.09152844       0.22166663
H        0.62581585       1.79223637      -0.10373948
H       -0.99206962       1.10978148      -1.75232802
H       -0.01575234      -0.37384188      -1.98907483
H       -2.03829542      -1.26535722      -1.03598979
H       -1.51299639       0.57793455       0.60782901
H       -1.47161004      -0.03792662       2.25368779
H        0.24854448      -0.08185638       1.95717537
16
Frame=4 idx=003247 GeodesicLength=0.4213376969375596 rxn_smarts="[C:1]([C@@:2]1([H:10])[C:3]([H:11])([H:12])[C:4]([H:13])([H:14])[O:5][C:6]1([H:15])[H:16])([H:7])([H:8])[H:9]>>[C:1]([C@@:2]1([H:10])[C:3]([H:11])([H:12])[C@@:4]1([O:5][C:6]([H:14])([H:15])[H:16])[H:13])([H:7])([H:8])[H:9]"
C        1.79971201      -0.07133750      -0.07775950
C        0.53359691       0.69768859      -0.26272392
C       -0.45624988       0.31087868      -1.25779779
C       -1.41358239      -0.57646761      -0.44474708
O       -0.94797936      -1.21155868       0.69420366
C       -0.73710623      -0.04868027       1.46464981
H        2.39205961      -0.12854218      -0.99598090
H        2.43855180       0.38118664       0.68347753
H        1.58176078      -1.10325583       0.22040049
H        0.61489033       1.76376198      -0.06762500
H       -0.99130107       1.13001223      -1.73319601
H       -0.01425624      -0.35046344      -2.01116495
H       -1.99139473      -1.28939509      -1.04404428
H       -1.55850486       0.57723226       0.59399472
H       -1.48014322      -0.00787549       2.26519787
H        0.22994655      -0.07318430       1.97311534
16
Frame=5 idx=003247 GeodesicLength=0.5266411397322289 rxn_smarts="[C:1]([C@@:2]1([H:10])[C:3]([H:11])([H:12])[C:4]([H:13])([H:14])[O:5][C:6]1([H:15])[H:16])([H:7])([H:8])[H:9]>>[C:1]([C@@:2]1([H:10])[C:3]([H:11])([H:12])[C@@:4]1([O:5][C:6]([H:14])([H:15])[H:16])[H:13])([H:7])([H:8])[H:9]"
C        1.80771482      -0.08207776      -0.09098090
C        0.52620274       0.67059185      -0.24444775
C       -0.45462359       0.31663235      -1.26374637
C       -1.39032274      -0.58259280      -0.44966207
O       -0.96274709      -1.20090058       0.71477044
C       -0.75186979      -0.02870517       1.47103324
H        2.37840163      -0.13742117      -1.02262427
H        2.46116023       0.38135709       0.65116173
H        1.61045735      -1.11448401       0.21879731
H        0.60494579       1.73411860      -0.03258264
H       -0.98993207       1.14992307      -1.71278024
H       -0.01319936      -0.32648812      -2.03216908
H       -1.94355287      -1.31253068      -1.05114488
H       -1.60395074       0.57501378       0.57927405
H       -1.48928576       0.02314124       2.27596321
H        0.21060145      -0.06557770       1.98913824
16
Frame=6 idx=003247 GeodesicLength=0.6319941825315629 rxn_smarts="[C:1]([C@@:2]1([H:10])[C:3]([H:11])([H:12])[C:4]([H:13])([H:14])[O:5][C:6]1([H:15])[H:16])([H:7])([H:8])[H:9]>>[C:1]([C@@:2]1([H:10])[C:3]([H:11])([H:12])[C@@:4]1([O:5][C:6]([H:14])([H:15])[H:16])[H:13])([H:7])([H:8])[H:9]"
C        1.81592597      -0.09247361      -0.10450149
C        0.51922609       0.64240572      -0.22627466
C       -0.45281355       0.32256849      -1.26863348
C       -1.36739417      -0.58809886      -0.45372904
O       -0.97941347      -1.19007929       0.73466484
C       -0.76691423      -0.00929292       1.47718340
H        2.36458748      -0.14626677      -1.04907644
H        2.48312948       0.38308420       0.61758184
H        1.64078962      -1.12511510       0.21682279
H        0.59596229       1.70330550       0.00147537
H       -0.98776077       1.16945499      -1.69115253
H       -0.01260470      -0.30212713      -2.05191977
H       -1.89494575      -1.33469176      -1.05722438
H       -1.64929287       0.57141649       0.56366158
H       -1.49898339       0.05508553       2.28592366
H        0.19050197      -0.05917547       2.00519830
16
Frame=7 idx=003247 GeodesicLength=0.7374092033542855 rxn_smarts="[C:1]([C@@:2]1([H:10])[C:3]([H:11])([H:12])[C:4]([H:13])([H:14])[O:5][C:6]1([H:15])[H:16])([H:7])([H:8])[H:9]>>[C:1]([C@@:2]1([H:10])[C:3]([H:11])([H:12])[C@@:4]1([O:5][C:6]([H:14])([H:15])[H:16])[H:13])([H:7])([H:8])[H:9]"
C        1.82436665      -0.10247460      -0.11833216
C        0.51268603       0.61307715      -0.20816646
C       -0.45079309       0.32859715      -1.27239162
C       -1.34502826      -0.59291606      -0.45695564
O       -0.99804046      -1.17905575       0.75377427
C       -0.78219797       0.00954183       1.48306913
H        2.35064156      -0.15503899      -1.07533784
H        2.50436581       0.38645893       0.58271730
H        1.67294017      -1.13504894       0.21443122
H        0.58792300       1.67130620       0.03462918
H       -0.98458379       1.18856779      -1.66837718
H       -0.01249042      -0.27759316      -2.07027479
H       -1.84578122      -1.35581949      -1.06220038
H       -1.69448946       0.56659602       0.54713799
H       -1.50916374       0.08791646       2.29501955
H        0.16964519      -0.05411452       2.02125744
16
Frame=8 idx=003247 GeodesicLength=0.8428925291069347 rxn_smarts="[C:1]([C@@:2]1([H:10])[C:3]([H:11])([H:12])[C:4]([H:13])([H:14])[O:5][C:6]1([H:15])[H:16])([H:7])([H:8])[H:9]>>[C:1]([C@@:2]1([H:10])[C:3]([H:11])([H:12])[C@@:4]1([O:5][C:6]([H:14])([H:15])[H:16])[H:13])([H:7])([H:8])[H:9]"
C        1.83304243      -0.11203700      -0.13247479
C        0.50659412       0.58254064      -0.19008664
C       -0.44853000       0.33462538      -1.27497909
C       -1.32345393      -0.59698715      -0.45936225
O       -1.01866073      -1.16778121       0.77199257
C       -0.79767297       0.02779108       1.48866720
H        2.33658739      -0.16369266      -1.10139456
H        2.52474695       0.39154598       0.54656788
H        1.70708974      -1.14416964       0.21155194
H        0.58080307       1.63808867       0.06696173
H       -0.98020370       1.20723594      -1.64451612
H       -0.01286608      -0.25309190      -2.08713648
H       -1.79626337      -1.37586148      -1.06595636
H       -1.73948582       0.56072673       0.52967398
H       -1.51974105       0.12157637       2.30320402
H        0.14801394      -0.05050975       2.03728696
16
Frame=9 idx=003247 GeodesicLength=0.9486190822617859 rxn_smarts="[C:1]([C@@:2]1([H:10])[C:3]([H:11])([H:12])[C:4]([H:13])([H:14])[O:5][C:6]1([H:15])[H:16])([H:7])([H:8])[H:9]>>[C:1]([C@@:2]1([H:10])[C:3]([H:11])([H:12])[C@@:4]1([O:5][C:6]([H:14])([H:15])[H:16])[H:13])([H:7])([H:8])[H:9]"
C        1.84203839      -0.12103885      -0.14686035
C        0.50092336       0.55065008      -0.17193903
C       -0.44591343       0.34034993      -1.27647823
C       -1.30278547      -0.60025753      -0.46099590
O       -1.04124890      -1.15620398       0.78933545
C       -0.81327652       0.04530596       1.49399046
H        2.32257193      -0.17180931      -1.12720161
H        2.54422442       0.39825627       0.50926909
H        1.74354080      -1.15212532       0.20806540
H        0.57432315       1.60355433       0.09857229
H       -0.97441107       1.22517276      -1.61984122
H       -0.01359349      -0.22912291      -2.10243358
H       -1.74737364      -1.39434946      -1.06863982
H       -1.78415808       0.55413240       0.51138714
H       -1.53046574       0.15599256       2.31049514
H        0.12560431      -0.04850691       2.05327477
16
Frame=10 idx=003247 GeodesicLength=1.0544042475109028 rxn_smarts="[C:1]([C@@:2]1([H:10])[C:3]([H:11])([H:12])[C:4]([H:13])([H:14])[O:5][C:6]1([H:15])[H:16])([H:7])([H:8])[H:9]>>[C:1]([C@@:2]1([H:10])[C:3]([H:11])([H:12])[C@@:4]1([O:5][C:6]([H:14])([H:15])[H:16])[H:13])([H:7])([H:8])[H:9]"
C        1.85121875      -0.12954373      -0.16153180
C        0.49570790       0.51738361      -0.15377408
C       -0.44297498       0.34589241      -1.27676951
C       -1.28326433      -0.60276271      -0.46189044
O       -1.06578898      -1.14427905       0.80561599
C       -0.82893077       0.06224568       1.49900161
H        2.30848629      -0.17970105      -1.15273101
H        2.56246883       0.40675593       0.47078905
H        1.78223629      -1.15900107       0.20389823
H        0.56871942       1.56768825       0.12951789
H       -0.96706660       1.24264421      -1.59413139
H       -0.01480775      -0.20552592      -2.11617481
H       -1.69857079      -1.41174305      -1.06991540
H       -1.82850863       0.54691092       0.49208009
H       -1.54132584       0.19114197       2.31681189
H        0.10240118      -0.04810640       2.06920369
16
Frame=11 idx=003247 GeodesicLength=1.1602319952341447 rxn_smarts="[C:1]([C@@:2]1([H:10])[C:3]([H:11])([H:12])[C:4]([H:13])([H:14])[O:5][C:6]1([H:15])[H:16])([H:7])([H:8])[H:9]>>[C:1]([C@@:2]1([H:10])[C:3]([H:11])([H:12])[C@@:4]1([O:5][C:6]([H:14])([H:15])[H:16])[H:13])([H:7])([H:8])[H:9]"
C        1.86053024      -0.13753481      -0.17646843
C        0.49093663       0.48264830      -0.13559016
C       -0.43966728       0.35117062      -1.27585510
C       -1.26502212      -0.60453094      -0.46210035
O       -1.09221361      -1.13195098       0.82078214
C       -0.84454052       0.07862016       1.50368707
H        2.29437485      -0.18728924      -1.17792085
H        2.57923400       0.41706332       0.43123965
H        1.82325033      -1.16467495       0.19894195
H        0.56395884       1.53041834       0.15985468
H       -0.95802471       1.25962885      -1.56740460
H       -0.01649090      -0.18243891      -2.12836112
H       -1.65010443      -1.42803693      -1.06970271
H       -1.87248417       0.53928194       0.47170686
H       -1.55214845       0.22697772       2.32214111
H        0.07841131      -0.04935248       2.08504986
16
Frame=12 idx=003247 GeodesicLength=1.2660751949610642 rxn_smarts="[C:1]([C@@:2]1([H:10])[C:3]([H:11])([H:12])[C:4]([H:13])([H:14])[O:5][C:6]1([H:15])[H:16])([H:7])([H:8])[H:9]>>[C:1]([C@@:2]1([H:10])[C:3]([H:11])([H:12])[C@@:4]1([O:5][C:6]([H:14])([H:15])[H:16])[H:13])([H:7])([H:8])[H:9]"
C        1.86989482      -0.14500045      -0.19163091
C        0.48658528       0.44635343      -0.11740387
C       -0.43593915       0.35610684      -1.27375900
C       -1.24814365      -0.60562216      -0.46168801
O       -1.12041247      -1.11917040       0.83479786
C       -0.85999365       0.09445124       1.50803562
H        2.28027594      -0.19449262      -1.20269272
H        2.59424330       0.42915213       0.39078915
H        1.86659824      -1.16900752       0.19307753
H        0.55999608       1.49166793       0.18961959
H       -0.94714668       1.27611433      -1.53965831
H       -0.01861966      -0.15996473      -2.13903275
H       -1.60224427      -1.44323444      -1.06793087
H       -1.91603492       0.53142576       0.45020424
H       -1.56271923       0.26345465       2.32647877
H        0.05366002      -0.05223400       2.10079370
16
Frame=13 idx=003247 GeodesicLength=1.3719241325232547 rxn_smarts="[C:1]([C@@:2]1([H:10])[C:3]([H:11])([H:12])[C:4]([H:13])([H:14])[O:5][C:6]1([H:15])[H:16])([H:7])([H:8])[H:9]>>[C:1]([C@@:2]1([H:10])[C:3]([H:11])([H:12])[C@@:4]1([O:5][C:6]([H:14])([H:15])[H:16])[H:13])([H:7])([H:8])[H:9]"
C        1.87922059      -0.15193576      -0.20696143
C        0.48262296       0.40841931      -0.09924496
C       -0.43173777       0.36064052      -1.27052663
C       -1.23265617      -0.60610891      -0.46071443
O       -1.15022682      -1.10588364       0.84764535
C       -0.87515495       0.10975989       1.51204050
H        2.26623448      -0.20123821      -1.22696020
H        2.60720382       0.44297682       0.34965062
H        1.91223138      -1.17185412       0.18619372
H        0.55678630       1.45136914       0.21883228
H       -0.93433657       1.29206874      -1.51088525
H       -0.02115674      -0.13817648      -2.14824834
H       -1.55529808      -1.45733693      -1.06455118
H       -1.95912210       0.52348700       0.42749160
H       -1.57280325       0.30053021       2.32982538
H        0.02819294      -0.05671758       2.11641297
16
Frame=14 idx=003247 GeodesicLength=1.4777147326582283 rxn_smarts="[C:1]([C@@:2]1([H:10])[C:3]([H:11])([H:12])[C:4]([H:13])([H:14])[O:5][C:6]1([H:15])[H:16])([H:7])([H:8])[H:9]>>[C:1]([C@@:2]1([H:10])[C:3]([H:11])([H:12])[C@@:4]1([O:5][C:6]([H:14])([H:15])[H:16])[H:13])([H:7])([H:8])[H:9]"
C        1.88839933      -0.15833516      -0.22236957
C        0.47901602       0.36879573      -0.08117834
C       -0.42701657       0.36470540      -1.26621025
C       -1.21854882      -0.60607253      -0.45924750
O       -1.18145514      -1.09204252       0.85931527
C       -0.88985934       0.12456974       1.51568592
H        2.25231511      -0.20742202      -1.25060148
H        2.61780873       0.45843327       0.30813803
H        1.96000771      -1.17306284       0.17815648
H        0.55427358       1.40948309       0.24747907
H       -0.91953926       1.30742365      -1.48109812
H       -0.02405890      -0.11713484      -2.15607487
H       -1.50964177      -1.47034170      -1.05956142
H       -2.00168265       0.51556243       0.40349160
H       -1.58211353       0.33814187       2.33220086
H        0.00209550      -0.06270355       2.13187432
16
Frame=15 idx=003247 GeodesicLength=1.5834011212038535 rxn_smarts="[C:1]([C@@:2]1([H:10])[C:3]([H:11])([H:12])[C:4]([H:13])([H:14])[O:5][C:6]1([H:15])[H:16])([H:7])([H:8])[H:9]>>[C:1]([C@@:2]1([H:10])[C:3]([H:11])([H:12])[C@@:4]1([O:5][C:6]([H:14])([H:15])[H:16])[H:13])([H:7])([H:8])[H:9]"
C        1.89730720      -0.16420381      -0.23773925
C        0.47571884       0.32747433      -0.06328784
C       -0.42173924       0.36825587      -1.26088819
C       -1.20574871      -0.60560737      -0.45734996
O       -1.21383313      -1.07759249       0.86981021
C       -0.90392172       0.13890676       1.51896022
H        2.23857283      -0.21296760      -1.27349067
H        2.62576361       0.47538030       0.26661886
H        2.00969463      -1.17247951       0.16886546
H        0.55239527       1.36600805       0.27551885
H       -0.90274852       1.32210144      -1.45031210
H       -0.02727622      -0.09686431      -2.16260148
H       -1.46566646      -1.48225615      -1.05299155
H       -2.04365884       0.50769560       0.37811945
H       -1.59034145       0.37621616       2.33362994
H       -0.02451809      -0.07006727       2.14713805
16
Frame=16 idx=003247 GeodesicLength=1.6889418696825778 rxn_smarts="[C:1]([C@@:2]1([H:10])[C:3]([H:11])([H:12])[C:4]([H:13])([H:14])[O:5][C:6]1([H:15])[H:16])([H:7])([H:8])[H:9]>>[C:1]([C@@:2]1([H:10])[C:3]([H:11])([H:12])[C@@:4]1([O:5][C:6]([H:14])([H:15])[H:16])[H:13])([H:7])([H:8])[H:9]"
C        1.90580592      -0.16956391      -0.25292281
C        0.47267747       0.28451018      -0.04568002
C       -0.41588703       0.37125897      -1.25465640
C       -1.19413090      -0.60481848      -0.45508149
O       -1.24704017      -1.06248862       0.87914894
C       -0.91713319       0.15279902       1.52185245
H        2.22505856      -0.21780467      -1.29548755
H        2.63081380       0.49360635       0.22553396
H        2.06093760      -1.16996954       0.15823278
H        0.55108371       1.32100421       0.30287867
H       -0.88403018       1.33601144      -1.41855058
H       -0.03075631      -0.07734566      -2.16793737
H       -1.42375399      -1.49310130      -1.04492133
H       -2.08500036       0.49984971       0.35128297
H       -1.59714979       0.41467598       2.33414680
H       -0.05149514      -0.07862369       2.16216098
