11
Frame=0 idx=006223 GeodesicLength=0.0 rxn_smarts="[O:1]=[C:2]1[C:3]([H:7])([H:8])[C:4]([H:9])=[C:5]([H:10])[N:6]1[H:11]>>[O:1]=[C:2](/[C:3](=[C:4]([C:5](=[N:6]\[H:11])\[H:10])/[H:9])[H:7])[H:8]"
O       -1.37497135       1.92215816      -0.29478386
C       -0.80019471       0.85896013       0.01214973
C       -0.87532198      -0.51813535      -0.56485475
C        0.31530701      -1.17930156      -0.42773339
C        1.22883004      -0.28435279       0.15914532
N        0.65110864       0.85955939       0.41611850
H       -1.81601102      -0.91231628      -0.92097104
H       -1.18447187       0.28311905       0.99850641
H        0.52087325      -2.21750283      -0.63490600
H        2.24735497      -0.49463174       0.45931242
H        1.08749705       1.68244387       0.79801661
11
Frame=1 idx=006223 GeodesicLength=0.09212868111071867 rxn_smarts="[O:1]=[C:2]1[C:3]([H:7])([H:8])[C:4]([H:9])=[C:5]([H:10])[N:6]1[H:11]>>[O:1]=[C:2](/[C:3](=[C:4]([C:5](=[N:6]\[H:11])\[H:10])/[H:9])[H:7])[H:8]"
O       -1.39873921       1.91306068      -0.31084670
C       -0.80847713       0.86513989       0.00751980
C       -0.88775091      -0.52596255      -0.53292400
C        0.31313842      -1.17753309      -0.41706358
C        1.23510844      -0.28257176       0.15597144
N        0.66512876       0.86642703       0.41563905
H       -1.81382391      -0.90589168      -0.93886682
H       -1.19120209       0.27976435       1.00431168
H        0.52538662      -2.20903412      -0.64964037
H        2.24872083      -0.50514759       0.46484234
H        1.11251018       1.68174883       0.80105715
11
Frame=2 idx=006223 GeodesicLength=0.1845516640062292 rxn_smarts="[O:1]=[C:2]1[C:3]([H:7])([H:8])[C:4]([H:9])=[C:5]([H:10])[N:6]1[H:11]>>[O:1]=[C:2](/[C:3](=[C:4]([C:5](=[N:6]\[H:11])\[H:10])/[H:9])[H:7])[H:8]"
O       -1.42268186       1.90307662      -0.32853121
C       -0.81711337       0.87109107       0.00200489
C       -0.90023774      -0.53365010      -0.50064266
C        0.31025762      -1.17613401      -0.40468539
C        1.24101344      -0.28119907       0.15371332
N        0.67944836       0.87342968       0.41460423
H       -1.80941633      -0.89960258      -0.95545363
H       -1.19847632       0.27758414       1.01040358
H        0.52906833      -2.19942381      -0.66614918
H        2.25051455      -0.51511121       0.46862674
H        1.13762332       1.67993927       0.80610933
11
Frame=3 idx=006223 GeodesicLength=0.27629360972238604 rxn_smarts="[O:1]=[C:2]1[C:3]([H:7])([H:8])[C:4]([H:9])=[C:5]([H:10])[N:6]1[H:11]>>[O:1]=[C:2](/[C:3](=[C:4]([C:5](=[N:6]\[H:11])\[H:10])/[H:9])[H:7])[H:8]"
O       -1.44706940       1.89255601      -0.34641882
C       -0.82608187       0.87692660      -0.00423677
C       -0.91217328      -0.54036140      -0.46960766
C        0.30701547      -1.17466101      -0.39175472
C        1.24653870      -0.28003382       0.15147954
N        0.69388557       0.88047617       0.41308247
H       -1.80238714      -0.89325484      -0.97036473
H       -1.20604396       0.27534154       1.01596398
H        0.53138713      -2.18908832      -0.68159962
H        2.25239037      -0.52476236       0.47068899
H        1.16253841       1.67686142       0.81276735
11
Frame=4 idx=006223 GeodesicLength=0.36805490816362935 rxn_smarts="[O:1]=[C:2]1[C:3]([H:7])([H:8])[C:4]([H:9])=[C:5]([H:10])[N:6]1[H:11]>>[O:1]=[C:2](/[C:3](=[C:4]([C:5](=[N:6]\[H:11])\[H:10])/[H:9])[H:7])[H:8]"
O       -1.47165610       1.88170313      -0.36480293
C       -0.83524482       0.88284938      -0.01148975
C       -0.92336537      -0.54580319      -0.44083060
C        0.30372140      -1.17290622      -0.37886019
C        1.25196858      -0.27891084       0.14931993
N        0.70863974       0.88764722       0.41145391
H       -1.79424804      -0.88781786      -0.98220240
H       -1.21429460       0.27298242       1.02051732
H        0.53240668      -2.17823041      -0.69612705
H        2.25465459      -0.53403222       0.47124390
H        1.18741795       1.67251859       0.82177786
11
Frame=5 idx=006223 GeodesicLength=0.46000554428651586 rxn_smarts="[O:1]=[C:2]1[C:3]([H:7])([H:8])[C:4]([H:9])=[C:5]([H:10])[N:6]1[H:11]>>[O:1]=[C:2](/[C:3](=[C:4]([C:5](=[N:6]\[H:11])\[H:10])/[H:9])[H:7])[H:8]"
O       -1.49643403       1.87059933      -0.38363000
C       -0.84456729       0.88892180      -0.01972287
C       -0.93376494      -0.54990226      -0.41447225
C        0.30053890      -1.17072068      -0.36628273
C        1.25740662      -0.27774381       0.14724309
N        0.72378475       0.89494464       0.40990716
H       -1.78582896      -0.88348955      -0.99091564
H       -1.22320829       0.27026625       1.02400268
H        0.53236223      -2.16684180      -0.70966760
H        2.25727298      -0.54301453       0.47067326
H        1.21243803       1.66698061       0.83286492
11
Frame=6 idx=006223 GeodesicLength=0.5520096701951309 rxn_smarts="[O:1]=[C:2]1[C:3]([H:7])([H:8])[C:4]([H:9])=[C:5]([H:10])[N:6]1[H:11]>>[O:1]=[C:2](/[C:3](=[C:4]([C:5](=[N:6]\[H:11])\[H:10])/[H:9])[H:7])[H:8]"
O       -1.52151080       1.85925929      -0.40252312
C       -0.85408366       0.89515748      -0.02872883
C       -0.94338415      -0.55269844      -0.39045355
C        0.29761903      -1.16792402      -0.35445819
C        1.26291128      -0.27642288       0.14506624
N        0.73932732       0.90238181       0.40855087
H       -1.77736361      -0.88002577      -0.99725579
H       -1.23265999       0.26699947       1.02654515
H        0.53131807      -2.15532393      -0.72145383
H        2.26018398      -0.55174488       0.46905774
H        1.23764251       1.66034187       0.84565330
11
Frame=7 idx=006223 GeodesicLength=0.6440330173701425 rxn_smarts="[O:1]=[C:2]1[C:3]([H:7])([H:8])[C:4]([H:9])=[C:5]([H:10])[N:6]1[H:11]>>[O:1]=[C:2](/[C:3](=[C:4]([C:5](=[N:6]\[H:11])\[H:10])/[H:9])[H:7])[H:8]"
O       -1.54695378       1.84767452      -0.42127171
C       -0.86384498       0.90155430      -0.03833612
C       -0.95231147      -0.55430240      -0.36854981
C        0.29500277      -1.16444264      -0.34353673
C        1.26850768      -0.27489310       0.14272979
N        0.75527432       0.90995341       0.40750911
H       -1.76896339      -0.87718947      -1.00188313
H       -1.24259524       0.26312270       1.02832581
H        0.52943025      -2.14394316      -0.73120660
H        2.26334247      -0.56025678       0.46649418
H        1.26311138       1.65272261       0.85972520
11
Frame=8 idx=006223 GeodesicLength=0.7360121075545162 rxn_smarts="[O:1]=[C:2]1[C:3]([H:7])([H:8])[C:4]([H:9])=[C:5]([H:10])[N:6]1[H:11]>>[O:1]=[C:2](/[C:3](=[C:4]([C:5](=[N:6]\[H:11])\[H:10])/[H:9])[H:7])[H:8]"
O       -1.57276598       1.83582594      -0.43980230
C       -0.87389947       0.90809598      -0.04841590
C       -0.96063674      -0.55484285      -0.34848655
C        0.29267193      -1.16029845      -0.33341798
C        1.27417729      -0.27316666       0.14033372
N        0.77158027       0.91759697       0.40700572
H       -1.76066480      -0.87481030      -1.00527597
H       -1.25305173       0.25865156       1.02948863
H        0.52687634      -2.13275947      -0.73906431
H        2.26673258      -0.56858320       0.46305145
H        1.28898032       1.64429049       0.87458348
11
Frame=9 idx=006223 GeodesicLength=0.8279967302790786 rxn_smarts="[O:1]=[C:2]1[C:3]([H:7])([H:8])[C:4]([H:9])=[C:5]([H:10])[N:6]1[H:11]>>[O:1]=[C:2](/[C:3](=[C:4]([C:5](=[N:6]\[H:11])\[H:10])/[H:9])[H:7])[H:8]"
O       -1.59896713       1.82369296      -0.45809259
C       -0.88429104       0.91477347      -0.05889669
C       -0.96847927      -0.55445267      -0.33001267
C        0.29058505      -1.15551574      -0.32402441
C        1.27992239      -0.27123022       0.13786906
N        0.78828491       0.92532466       0.40707415
H       -1.75247376      -0.87275805      -1.00779020
H       -1.26400062       0.25363518       1.03019791
H        0.52381618      -2.12182950      -0.74515702
H        2.27030135      -0.57676324       0.45884517
H        1.31530193       1.63512316       0.88998730
11
Frame=10 idx=006223 GeodesicLength=0.9199747398788884 rxn_smarts="[O:1]=[C:2]1[C:3]([H:7])([H:8])[C:4]([H:9])=[C:5]([H:10])[N:6]1[H:11]>>[O:1]=[C:2](/[C:3](=[C:4]([C:5](=[N:6]\[H:11])\[H:10])/[H:9])[H:7])[H:8]"
O       -1.62554139       1.81125210      -0.47617541
C       -0.89505735       0.92156969      -0.06973358
C       -0.97592717      -0.55324136      -0.31289805
C        0.28869735      -1.15014446      -0.31519854
C        1.28572214      -0.26910534       0.13542397
N        0.80538032       0.93309788       0.40783054
H       -1.74438604      -0.87096305      -1.00964904
H       -1.27546995       0.24813230       1.03055672
H        0.52038581      -2.11109778      -0.74976841
H        2.27402050      -0.58483162       0.45395500
H        1.34217579       1.62533164       0.90565680
11
Frame=11 idx=006223 GeodesicLength=1.0119479309334698 rxn_smarts="[O:1]=[C:2]1[C:3]([H:7])([H:8])[C:4]([H:9])=[C:5]([H:10])[N:6]1[H:11]>>[O:1]=[C:2](/[C:3](=[C:4]([C:5](=[N:6]\[H:11])\[H:10])/[H:9])[H:7])[H:8]"
O       -1.65247611       1.79847920      -0.49410420
C       -0.90622964       0.92847123      -0.08091623
C       -0.98305502      -0.55130239      -0.29695289
C        0.28697256      -1.14422530      -0.30681565
C        1.29156460      -0.26680713       0.13305518
N        0.82287713       0.94089897       0.40933869
H       -1.73640044      -0.86938604      -1.01098819
H       -1.28747399       0.24220542       1.03064459
H        0.51668756      -2.10049384      -0.75313616
H        2.27786528      -0.59281823       0.44844090
H        1.36966805       1.61497811       0.92143395
11
Frame=12 idx=006223 GeodesicLength=1.103907584939413 rxn_smarts="[O:1]=[C:2]1[C:3]([H:7])([H:8])[C:4]([H:9])=[C:5]([H:10])[N:6]1[H:11]>>[O:1]=[C:2](/[C:3](=[C:4]([C:5](=[N:6]\[H:11])\[H:10])/[H:9])[H:7])[H:8]"
O       -1.67976701       1.78535259      -0.51189624
C       -0.91784266       0.93545754      -0.09242943
C       -0.98992380      -0.54871014      -0.28203212
C        0.28538168      -1.13778559      -0.29878716
C        1.29743401      -0.26435424       0.13083920
N        0.84077110       0.94868926       0.41169420
H       -1.72850961      -0.86799577      -1.01192200
H       -1.30003760       0.23587214       1.03051796
H        0.51280194      -2.08993551      -0.75548906
H        2.28179205      -0.60076211       0.44241519
H        1.39789987       1.60417183       0.93708945
11
Frame=13 idx=006223 GeodesicLength=1.1958707651180742 rxn_smarts="[O:1]=[C:2]1[C:3]([H:7])([H:8])[C:4]([H:9])=[C:5]([H:10])[N:6]1[H:11]>>[O:1]=[C:2](/[C:3](=[C:4]([C:5](=[N:6]\[H:11])\[H:10])/[H:9])[H:7])[H:8]"
O       -1.70738347       1.77185788      -0.52969664
C       -0.92991505       0.94253544      -0.10432179
C       -0.99659158      -0.54550730      -0.26800644
C        0.28388819      -1.13084912      -0.29097899
C        1.30332995      -0.26172072       0.12874308
N        0.85908869       0.95646408       0.41494816
H       -1.72068884      -0.86677415      -1.01253267
H       -1.31319086       0.22922336       1.03019594
H        0.50874554      -2.07945020      -0.75677468
H        2.28589325      -0.60858861       0.43556776
H        1.42682417       1.59280933       0.95285628
11
Frame=14 idx=006223 GeodesicLength=1.2878339132413992 rxn_smarts="[O:1]=[C:2]1[C:3]([H:7])([H:8])[C:4]([H:9])=[C:5]([H:10])[N:6]1[H:11]>>[O:1]=[C:2](/[C:3](=[C:4]([C:5](=[N:6]\[H:11])\[H:10])/[H:9])[H:7])[H:8]"
O       -1.73532573       1.75798310      -0.54753496
C       -0.94247771       0.94969368      -0.11660820
C       -1.00310088      -0.54173412      -0.25479240
C        0.28247418      -1.12342020      -0.28333688
C        1.30924651      -0.25890128       0.12679217
N        0.87783109       0.96419368       0.41919714
H       -1.71292578      -0.86569961      -1.01289383
H       -1.32696206       0.22226524       1.02969596
H        0.50455343      -2.06900981      -0.75705329
H        2.29016101      -0.61629697       0.42787729
H        1.45652594       1.58092628       0.96865702
11
Frame=15 idx=006223 GeodesicLength=1.3797972821100524 rxn_smarts="[O:1]=[C:2]1[C:3]([H:7])([H:8])[C:4]([H:9])=[C:5]([H:10])[N:6]1[H:11]>>[O:1]=[C:2](/[C:3](=[C:4]([C:5](=[N:6]\[H:11])\[H:10])/[H:9])[H:7])[H:8]"
O       -1.76358774       1.74371559      -0.56547952
C       -0.95555494       0.95692798      -0.12932756
C       -1.00948907      -0.53741692      -0.24231245
C        0.28112246      -1.11549677      -0.27580329
C        1.31518238      -0.25587700       0.12497997
N        0.89701679       0.97186091       0.42450849
H       -1.70521184      -0.86476436      -1.01304255
H       -1.34136984       0.21502662       1.02902476
H        0.50024452      -2.05860839      -0.75632305
H        2.29461238      -0.62385661       0.41922678
H        1.48703491       1.56848896       0.98454842
11
Frame=16 idx=006223 GeodesicLength=1.4717608678291376 rxn_smarts="[O:1]=[C:2]1[C:3]([H:7])([H:8])[C:4]([H:9])=[C:5]([H:10])[N:6]1[H:11]>>[O:1]=[C:2](/[C:3](=[C:4]([C:5](=[N:6]\[H:11])\[H:10])/[H:9])[H:7])[H:8]"
O       -1.79216670       1.72904184      -0.58359815
C       -0.96917088       0.96423412      -0.14252447
C       -1.01578883      -0.53257277      -0.23050332
C        0.27981787      -1.10707097      -0.26832517
C        1.32113580      -0.25262538       0.12330076
N        0.91666191       0.97944323       0.43096849
H       -1.69753821      -0.86396350      -1.01300633
H       -1.35643888       0.20752980       1.02817951
H        0.49583134      -2.04824394      -0.75455916
H        2.29926630      -0.63122824       0.40947903
H        1.51839028       1.55545581       1.00058881
