9
Frame=0 idx=003610 GeodesicLength=0.0 rxn_smarts="[N:1]#[C:2][C@@:3]1([H:6])[C:4]([H:7])([H:8])[N:5]1[H:9]>>[N:1]#[C:2][C@@:3]1([H:6])[C-:4]([H:8])[N+:5]1([H:7])[H:9]"
N        2.53130021      -0.47833706      -0.15341618
C        1.48241150      -0.01662238      -0.20632213
C        0.15256032       0.55878255      -0.29484916
C       -0.97232152      -0.30162568      -0.74274966
N       -0.67237841       0.30928144       0.88713741
H        0.17308603       1.60161090      -0.59839597
H       -1.68109971       0.15891395       0.35567714
H       -0.67394104      -1.35283884      -0.67750636
H       -0.33961740      -0.47916484       1.43042490
9
Frame=1 idx=003610 GeodesicLength=0.05529598473807615 rxn_smarts="[N:1]#[C:2][C@@:3]1([H:6])[C:4]([H:7])([H:8])[N:5]1[H:9]>>[N:1]#[C:2][C@@:3]1([H:6])[C-:4]([H:8])[N+:5]1([H:7])[H:9]"
N        2.53725863      -0.47445916      -0.15652721
C        1.48691008      -0.01564040      -0.20687277
C        0.15646787       0.55768619      -0.29473766
C       -0.97118323      -0.30484780      -0.73131367
N       -0.67337955       0.29848174       0.88140112
H        0.17282422       1.60092967      -0.59655315
H       -1.69826164       0.17732216       0.34939528
H       -0.67408921      -1.35647834      -0.67646400
H       -0.33654717      -0.48299406       1.43167205
9
Frame=2 idx=003610 GeodesicLength=0.11059991593642103 rxn_smarts="[N:1]#[C:2][C@@:3]1([H:6])[C:4]([H:7])([H:8])[N:5]1[H:9]>>[N:1]#[C:2][C@@:3]1([H:6])[C-:4]([H:8])[N+:5]1([H:7])[H:9]"
N        2.54301363      -0.47075348      -0.15948904
C        1.49129616      -0.01466453      -0.20746478
C        0.16023647       0.55655011      -0.29455828
C       -0.97015494      -0.30800657      -0.71998190
N       -0.67450844       0.28774953       0.87574521
H        0.17245478       1.60020976      -0.59460936
H       -1.71476160       0.19524898       0.34294827
H       -0.67435911      -1.35998034      -0.67575294
H       -0.33321695      -0.48635346       1.43316280
9
Frame=3 idx=003610 GeodesicLength=0.1658554898621475 rxn_smarts="[N:1]#[C:2][C@@:3]1([H:6])[C:4]([H:7])([H:8])[N:5]1[H:9]>>[N:1]#[C:2][C@@:3]1([H:6])[C-:4]([H:8])[N+:5]1([H:7])[H:9]"
N        2.54854445      -0.46719980      -0.16231318
C        1.49555510      -0.01369494      -0.20809161
C        0.16387299       0.55537296      -0.29430729
C       -0.96921423      -0.31109880      -0.70876254
N       -0.67571520       0.27710670       0.87018047
H        0.17199076       1.59943236      -0.59256324
H       -1.73061443       0.21266623       0.33633906
H       -0.67475877      -1.36332660      -0.67533956
H       -0.32966067      -0.48925810       1.43485788
9
Frame=4 idx=003610 GeodesicLength=0.2211233270060149 rxn_smarts="[N:1]#[C:2][C@@:3]1([H:6])[C:4]([H:7])([H:8])[N:5]1[H:9]>>[N:1]#[C:2][C@@:3]1([H:6])[C-:4]([H:8])[N+:5]1([H:7])[H:9]"
N        2.55392264      -0.46377041      -0.16504315
C        1.49971775      -0.01274748      -0.20874996
C        0.16739586       0.55416269      -0.29398619
C       -0.96834877      -0.31412237      -0.69765664
N       -0.67698164       0.26656586       0.86472695
H        0.17145644       1.59861814      -0.59043155
H       -1.74590888       0.22958117       0.32957808
H       -0.67530123      -1.36653173      -0.67517609
H       -0.32595218      -0.49175586       1.43673856
9
Frame=5 idx=003610 GeodesicLength=0.27640358339310134 rxn_smarts="[N:1]#[C:2][C@@:3]1([H:6])[C:4]([H:7])([H:8])[N:5]1[H:9]>>[N:1]#[C:2][C@@:3]1([H:6])[C-:4]([H:8])[N+:5]1([H:7])[H:9]"
N        2.55917379      -0.46042924      -0.16770520
C        1.50378914      -0.01183118      -0.20943097
C        0.17081801       0.55291647      -0.29359200
C       -0.96755040      -0.31707920      -0.68666288
N       -0.67827805       0.25613701       0.85938994
H        0.17087302       1.59776091      -0.58821346
H       -1.76068918       0.24599791       0.32265614
H       -0.67600768      -1.36959176      -0.67521859
H       -0.32212866      -0.49388092       1.43877702
9
Frame=6 idx=003610 GeodesicLength=0.33167893841761287 rxn_smarts="[N:1]#[C:2][C@@:3]1([H:6])[C:4]([H:7])([H:8])[N:5]1[H:9]>>[N:1]#[C:2][C@@:3]1([H:6])[C-:4]([H:8])[N+:5]1([H:7])[H:9]"
N        2.56428758      -0.45716885      -0.17032774
C        1.50776355      -0.01094757      -0.21012410
C        0.17414872       0.55163570      -0.29312332
C       -0.96679068      -0.31996720      -0.67578570
N       -0.67956946       0.24583436       0.85418307
H        0.17025021       1.59685167      -0.58590947
H       -1.77499519       0.26190722       0.31557710
H       -0.67686622      -1.37249937      -0.67544354
H       -0.31822851      -0.49564596       1.44095371
9
Frame=7 idx=003610 GeodesicLength=0.3869614049727302 rxn_smarts="[N:1]#[C:2][C@@:3]1([H:6])[C:4]([H:7])([H:8])[N:5]1[H:9]>>[N:1]#[C:2][C@@:3]1([H:6])[C-:4]([H:8])[N+:5]1([H:7])[H:9]"
N        2.56930649      -0.45398871      -0.17293370
C        1.51166761      -0.01009592      -0.21082833
C        0.17739960       0.55033276      -0.29258286
C       -0.96606866      -0.32278505      -0.66502034
N       -0.68084589       0.23566852       0.84911681
H        0.16960023       1.59591449      -0.58353112
H       -1.78889071       0.27731124       0.30833781
H       -0.67788313      -1.37526536      -0.67581452
H       -0.31428553      -0.49709197       1.44325624
9
Frame=8 idx=003610 GeodesicLength=0.4422301504929541 rxn_smarts="[N:1]#[C:2][C@@:3]1([H:6])[C:4]([H:7])([H:8])[N:5]1[H:9]>>[N:1]#[C:2][C@@:3]1([H:6])[C-:4]([H:8])[N+:5]1([H:7])[H:9]"
N        2.57421896      -0.45087264      -0.17553713
C        1.51549660      -0.00927336      -0.21153943
C        0.18057984       0.54900784      -0.29196641
C       -0.96537378      -0.32553301      -0.65435654
N       -0.68207662       0.22564584       0.84419409
H        0.16893712       1.59493985      -0.58107269
H       -1.80239964       0.29220800       0.30092342
H       -0.67906428      -1.37788435      -0.67630130
H       -0.31031820      -0.49823818       1.44565599
9
Frame=9 idx=003610 GeodesicLength=0.49750751226544837 rxn_smarts="[N:1]#[C:2][C@@:3]1([H:6])[C:4]([H:7])([H:8])[N:5]1[H:9]>>[N:1]#[C:2][C@@:3]1([H:6])[C-:4]([H:8])[N+:5]1([H:7])[H:9]"
N        2.57906353      -0.44780465      -0.17818235
C        1.51926651      -0.00848977      -0.21224322
C        0.18370102       0.54766122      -0.29127286
C       -0.96469125      -0.32821420      -0.64379592
N       -0.68325588       0.21576827       0.83942637
H        0.16826887       1.59393341      -0.57853946
H       -1.81558697       0.30663038       0.29332581
H       -0.68040286      -1.38036428      -0.67687528
H       -0.30636296      -0.49912039       1.44815691
9
Frame=10 idx=003610 GeodesicLength=0.5527866269272068 rxn_smarts="[N:1]#[C:2][C@@:3]1([H:6])[C:4]([H:7])([H:8])[N:5]1[H:9]>>[N:1]#[C:2][C@@:3]1([H:6])[C-:4]([H:8])[N+:5]1([H:7])[H:9]"
N        2.58383937      -0.44478448      -0.18086819
C        1.52298152      -0.00773903      -0.21294705
C        0.18676968       0.54629890      -0.29050326
C       -0.96401813      -0.33082735      -0.63332779
N       -0.68436119       0.20603848       0.83482012
H        0.16760159       1.59289990      -0.57593216
H       -1.82848582       0.32057964       0.28553112
H       -0.68190306      -1.38270432      -0.67751501
H       -0.30242396      -0.49976174       1.45074222
9
Frame=11 idx=003610 GeodesicLength=0.608072132185964 rxn_smarts="[N:1]#[C:2][C@@:3]1([H:6])[C:4]([H:7])([H:8])[N:5]1[H:9]>>[N:1]#[C:2][C@@:3]1([H:6])[C-:4]([H:8])[N+:5]1([H:7])[H:9]"
N        2.58855686      -0.44179828      -0.18359659
C        1.52664503      -0.00702708      -0.21365951
C        0.18979315       0.54492135      -0.28965895
C       -0.96334868      -0.33337021      -0.62294301
N       -0.68537300       0.19645772       0.83038348
H        0.16694281       1.59183823      -0.57325231
H       -1.84113612       0.33406803       0.27753103
H       -0.68356835      -1.38490380      -0.67820294
H       -0.29851170      -0.50018596       1.45339880
9
Frame=12 idx=003610 GeodesicLength=0.6633497607931625 rxn_smarts="[N:1]#[C:2][C@@:3]1([H:6])[C:4]([H:7])([H:8])[N:5]1[H:9]>>[N:1]#[C:2][C@@:3]1([H:6])[C-:4]([H:8])[N+:5]1([H:7])[H:9]"
N        2.59321968      -0.43884864      -0.18639772
C        1.53026515      -0.00634533      -0.21436826
C        0.19277752       0.54353291      -0.28873628
C       -0.96267661      -0.33584688      -0.61263393
N       -0.68628970       0.18702366       0.82611930
H        0.16629612       1.59075430      -0.57049704
H       -1.85356824       0.34711723       0.26929911
H       -0.68539106      -1.38696666      -0.67891276
H       -0.29463286      -0.50042059       1.45612759
9
Frame=13 idx=003610 GeodesicLength=0.7186324559594328 rxn_smarts="[N:1]#[C:2][C@@:3]1([H:6])[C:4]([H:7])([H:8])[N:5]1[H:9]>>[N:1]#[C:2][C@@:3]1([H:6])[C-:4]([H:8])[N+:5]1([H:7])[H:9]"
N        2.59783523      -0.43592910      -0.18926861
C        1.53384569      -0.00569608      -0.21508400
C        0.19572880       0.54213576      -0.28773598
C       -0.96199841      -0.33825479      -0.60239100
N       -0.68709169       0.17773507       0.82203627
H        0.16566528       1.58964984      -0.56766630
H       -1.86582080       0.35973788       0.26082177
H       -0.68737590      -1.38889311      -0.67963073
H       -0.29078821      -0.50048547       1.45891857
9
Frame=14 idx=003610 GeodesicLength=0.7739193528190721 rxn_smarts="[N:1]#[C:2][C@@:3]1([H:6])[C:4]([H:7])([H:8])[N:5]1[H:9]>>[N:1]#[C:2][C@@:3]1([H:6])[C-:4]([H:8])[N+:5]1([H:7])[H:9]"
N        2.60241394      -0.43303628      -0.19224131
C        1.53739454      -0.00507696      -0.21579602
C        0.19865237       0.54073104      -0.28665217
C       -0.96131052      -0.34059952      -0.59220269
N       -0.68777779       0.16858850       0.81814019
H        0.16505235       1.58852892      -0.56475166
H       -1.87792336       0.37195725       0.25206628
H       -0.68951752      -1.39069091      -0.68033709
H       -0.28698400      -0.50040203       1.46177446
9
Frame=15 idx=003610 GeodesicLength=0.8292069871041519 rxn_smarts="[N:1]#[C:2][C@@:3]1([H:6])[C:4]([H:7])([H:8])[N:5]1[H:9]>>[N:1]#[C:2][C@@:3]1([H:6])[C-:4]([H:8])[N+:5]1([H:7])[H:9]"
N        2.60696012      -0.43015188      -0.19531157
C        1.54090924      -0.00449637      -0.21651585
C        0.20155133       0.53931571      -0.28548441
C       -0.96061332      -0.34287913      -0.58205855
N       -0.68833728       0.15957704       0.81443771
H        0.16446091       1.58738640      -0.56175063
H       -1.88989860       0.38379780       0.24301045
H       -0.69182144      -1.39235671      -0.68101845
H       -0.28321095      -0.50019287       1.46469129
9
Frame=16 idx=003610 GeodesicLength=0.8844963858427635 rxn_smarts="[N:1]#[C:2][C@@:3]1([H:6])[C:4]([H:7])([H:8])[N:5]1[H:9]>>[N:1]#[C:2][C@@:3]1([H:6])[C-:4]([H:8])[N+:5]1([H:7])[H:9]"
N        2.61147355      -0.42729160      -0.19851059
C        1.54439879      -0.00394193      -0.21723247
C        0.20443035       0.53789677      -0.28422639
C       -0.95990095      -0.34509719      -0.57194649
N       -0.68876716       0.15070022       0.81093498
H        0.16389070       1.58623234      -0.55865427
H       -1.90177482       0.39526969       0.23362136
H       -0.69427786      -1.39389658      -0.68165817
H       -0.27947260      -0.49987173       1.46767205
