14
Frame=0 idx=003565 GeodesicLength=0.0 rxn_smarts="[C:1]([C@@:2]1([H:10])[O:3][C:4]([H:11])([H:12])[C@:5]1([O:6][H:14])[H:13])([H:7])([H:8])[H:9]>>[C:1]([C@@:2]([O:3][C:4]([H:11])([H:12])[H:14])([C:5](=[O:6])[H:13])[H:10])([H:7])([H:8])[H:9]"
C        1.72019533       0.60124028      -0.00037348
C        0.61715388      -0.41872178       0.05180052
O       -0.10538560      -0.37785234       1.28480795
C       -1.41277842      -0.39163692       0.77525585
C       -0.59561800      -0.13246260      -0.87450025
O       -0.84215576       1.08583383      -1.32838828
H        1.30536629       1.60609915       0.06638059
H        2.41415797       0.43450147       0.82435675
H        2.26987093       0.51633373      -0.93943267
H        0.99880141      -1.43239834      -0.12225045
H       -2.07679165       0.29877828       1.31506954
H       -1.87464893      -1.38048172       0.71694120
H       -0.92272498      -0.98138016      -1.49517028
H       -1.49544247       0.57214712      -0.27449695
14
Frame=1 idx=003565 GeodesicLength=0.0903296451014718 rxn_smarts="[C:1]([C@@:2]1([H:10])[O:3][C:4]([H:11])([H:12])[C@:5]1([O:6][H:14])[H:13])([H:7])([H:8])[H:9]>>[C:1]([C@@:2]([O:3][C:4]([H:11])([H:12])[H:14])([C:5](=[O:6])[H:13])[H:10])([H:7])([H:8])[H:9]"
C        1.70822179       0.60792897       0.00943426
C        0.62090286      -0.43052779       0.04080095
O       -0.09954963      -0.42585655       1.27447617
C       -1.41092077      -0.38167369       0.77589401
C       -0.58942661      -0.15098595      -0.88747096
O       -0.83176683       1.05965241      -1.35918157
H        1.27970210       1.60535783       0.09980383
H        2.40639975       0.43506601       0.82932675
H        2.25757420       0.55202248      -0.93191993
H        1.01959534      -1.43487684      -0.14742766
H       -2.03455357       0.33154851       1.33361822
H       -1.90912471      -1.35356164       0.73443442
H       -0.92459432      -1.00612300      -1.49461357
H       -1.49245960       0.59202924      -0.27717491
14
Frame=2 idx=003565 GeodesicLength=0.1806698156143166 rxn_smarts="[C:1]([C@@:2]1([H:10])[O:3][C:4]([H:11])([H:12])[C@:5]1([O:6][H:14])[H:13])([H:7])([H:8])[H:9]>>[C:1]([C@@:2]([O:3][C:4]([H:11])([H:12])[H:14])([C:5](=[O:6])[H:13])[H:10])([H:7])([H:8])[H:9]"
C        1.69534528       0.61434981       0.01970906
C        0.62471157      -0.44258680       0.02951042
O       -0.09465407      -0.47480117       1.26234252
C       -1.40808268      -0.37124443       0.77646273
C       -0.58312200      -0.17002577      -0.90097058
O       -0.82209482       1.03300925      -1.38920659
H        1.25282133       1.60351740       0.13256798
H        2.39718814       0.43626682       0.83533710
H        2.24441271       0.58743248      -0.92301925
H        1.04100139      -1.43682610      -0.17287931
H       -1.98904631       0.36346525       1.35178797
H       -1.94285033      -1.32409833       0.75249567
H       -0.92680244      -1.03114435      -1.49414761
H       -1.48882777       0.61268595      -0.27999011
14
Frame=3 idx=003565 GeodesicLength=0.2710837710331352 rxn_smarts="[C:1]([C@@:2]1([H:10])[O:3][C:4]([H:11])([H:12])[C@:5]1([O:6][H:14])[H:13])([H:7])([H:8])[H:9]>>[C:1]([C@@:2]([O:3][C:4]([H:11])([H:12])[H:14])([C:5](=[O:6])[H:13])[H:10])([H:7])([H:8])[H:9]"
C        1.68163579       0.62040392       0.03036275
C        0.62851984      -0.45477479       0.01805489
O       -0.09088417      -0.52403106       1.24843036
C       -1.40429300      -0.36047779       0.77691033
C       -0.57666707      -0.18944412      -0.91499109
O       -0.81323379       1.00617826      -1.41823230
H        1.22500206       1.60063413       0.16449825
H        2.38658302       0.43792308       0.84232272
H        2.23036235       0.62224850      -0.91288593
H        1.06279128      -1.43820682      -0.19819137
H       -1.94058808       0.39412003       1.36937167
H       -1.97525848      -1.29241273       0.77116123
H       -0.92921987      -1.05623343      -1.49388371
H       -1.48474987       0.63407282      -0.28292779
14
Frame=4 idx=003565 GeodesicLength=0.3616489503542675 rxn_smarts="[C:1]([C@@:2]1([H:10])[O:3][C:4]([H:11])([H:12])[C@:5]1([O:6][H:14])[H:13])([H:7])([H:8])[H:9]>>[C:1]([C@@:2]([O:3][C:4]([H:11])([H:12])[H:14])([C:5](=[O:6])[H:13])[H:10])([H:7])([H:8])[H:9]"
C        1.66722062       0.62599890       0.04126369
C        0.63226756      -0.46695840       0.00658024
O       -0.08838496      -0.57281949       1.23286940
C       -1.39964275      -0.34949946       0.77717906
C       -0.57000983      -0.20908642      -0.92950381
O       -0.80525221       0.97944932      -1.44603882
H        1.19659777       1.59680343       0.19539873
H        2.37472494       0.43985853       0.85014716
H        2.21544570       0.65613620      -0.90174102
H        1.08470507      -1.43900820      -0.22290654
H       -1.88974714       0.42300008       1.38614423
H       -2.00581853      -1.25892114       0.79043384
H       -0.93169895      -1.08116665      -1.49392156
H       -1.48040730       0.65621331      -0.28590460
14
Frame=5 idx=003565 GeodesicLength=0.45242689958915583 rxn_smarts="[C:1]([C@@:2]1([H:10])[O:3][C:4]([H:11])([H:12])[C@:5]1([O:6][H:14])[H:13])([H:7])([H:8])[H:9]>>[C:1]([C@@:2]([O:3][C:4]([H:11])([H:12])[H:14])([C:5](=[O:6])[H:13])[H:10])([H:7])([H:8])[H:9]"
C        1.65225312       0.63106498       0.05226869
C        0.63590488      -0.47901923      -0.00476445
O       -0.08723712      -0.62050645       1.21586069
C       -1.39427091      -0.33845470       0.77719598
C       -0.56308736      -0.22881294      -0.94447794
O       -0.79819593       0.95309005      -1.47243798
H        1.16796360       1.59213869       0.22512760
H        2.36182100       0.44190728       0.85862211
H        2.19971251       0.68881445      -0.88984808
H        1.10650033      -1.43924726      -0.24657888
H       -1.83722374       0.44970952       1.40192973
H       -2.03407748      -1.22407840       0.81028420
H       -0.93408954      -1.10575098      -1.49436757
H       -1.47597336       0.67914499      -0.28881410
14
Frame=6 idx=003565 GeodesicLength=0.5434122652365745 rxn_smarts="[C:1]([C@@:2]1([H:10])[O:3][C:4]([H:11])([H:12])[C@:5]1([O:6][H:14])[H:13])([H:7])([H:8])[H:9]>>[C:1]([C@@:2]([O:3][C:4]([H:11])([H:12])[H:14])([C:5](=[O:6])[H:13])[H:10])([H:7])([H:8])[H:9]"
C        1.63689400       0.63556327       0.06323034
C        0.63939045      -0.49085142      -0.01584810
O       -0.08748017      -0.66650183       1.19766687
C       -1.38833597      -0.32744090       0.77690920
C       -0.55583917      -0.24849751      -0.95986611
O       -0.79209331       0.92731812      -1.49728510
H        1.13944824       1.58676580       0.25353149
H        2.34808929       0.44394691       0.86754457
H        2.18323872       0.72005101      -0.87746944
H        1.12795061      -1.43898771      -0.26883362
H       -1.78376001       0.47386707       1.41658225
H       -2.05973135      -1.18838399       0.83064121
H       -0.93623823      -1.12982262      -1.49528744
H       -1.47153310       0.70297382      -0.29151611
14
Frame=7 idx=003565 GeodesicLength=0.6346267014777852 rxn_smarts="[C:1]([C@@:2]1([H:10])[O:3][C:4]([H:11])([H:12])[C@:5]1([O:6][H:14])[H:13])([H:7])([H:8])[H:9]>>[C:1]([C@@:2]([O:3][C:4]([H:11])([H:12])[H:14])([C:5](=[O:6])[H:13])[H:10])([H:7])([H:8])[H:9]"
C        1.62129346       0.63948232       0.07401368
C        0.64270184      -0.50238026      -0.02656388
O       -0.08910072      -0.71038300       1.17856148
C       -1.38200254      -0.31653802       0.77625773
C       -0.54818777      -0.26806142      -0.97563855
O       -0.78696949       0.90227440      -1.52047870
H        1.11133118       1.58081540       0.28053663
H        2.33375725       0.44588972       0.87670614
H        2.16610679       0.74970300      -0.86486821
H        1.14889896      -1.43831631      -0.28938273
H       -1.73007733       0.49523150       1.43003038
H       -2.08262581      -1.15226470       0.85141049
H       -0.93801040      -1.15329083      -1.49672982
H       -1.46711543       0.72783819      -0.29385464
14
Frame=8 idx=003565 GeodesicLength=0.7260425609819886 rxn_smarts="[C:1]([C@@:2]1([H:10])[O:3][C:4]([H:11])([H:12])[C@:5]1([O:6][H:14])[H:13])([H:7])([H:8])[H:9]>>[C:1]([C@@:2]([O:3][C:4]([H:11])([H:12])[H:14])([C:5](=[O:6])[H:13])[H:10])([H:7])([H:8])[H:9]"
C        1.60558351       0.64283295       0.08450876
C        0.64583622      -0.51356958      -0.03684030
O       -0.09204023      -0.75189992       1.15879289
C       -1.37541692      -0.30579111       0.77519842
C       -0.54006312      -0.28747472      -0.99177054
O       -0.78285437       0.87803665      -1.54195806
H        1.08381996       1.57440461       0.30612967
H        2.31903548       0.44768077       0.88591908
H        2.14839301       0.77771898      -0.85226093
H        1.16925112      -1.43732087      -0.30804451
H       -1.67680824       0.51368071       1.44223822
H       -2.10273036      -1.11603609       0.87249523
H       -0.93930120      -1.17612903      -1.49871967
H       -1.46270486       0.75386665      -0.29568827
14
Frame=9 idx=003565 GeodesicLength=0.8176968096184438 rxn_smarts="[C:1]([C@@:2]1([H:10])[O:3][C:4]([H:11])([H:12])[C@:5]1([O:6][H:14])[H:13])([H:7])([H:8])[H:9]>>[C:1]([C@@:2]([O:3][C:4]([H:11])([H:12])[H:14])([C:5](=[O:6])[H:13])[H:10])([H:7])([H:8])[H:9]"
C        1.58989033       0.64567924       0.09460106
C        0.64885785      -0.52440276      -0.04667442
O       -0.09599751      -0.79113966       1.13855431
C       -1.36870944      -0.29532573       0.77379897
C       -0.53145380      -0.30670760      -1.00817894
O       -0.77978668       0.85433177      -1.56158713
H        1.05701287       1.56760038       0.33031386
H        2.30414078       0.44935938       0.89498577
H        2.13020061       0.80420216      -0.83984518
H        1.18913767      -1.43607810      -0.32481145
H       -1.62461059       0.52941825       1.45312239
H       -2.12050430      -1.07980731       0.89347395
H       -0.94004972      -1.19838669      -1.50116166
H       -1.45812806       0.78125668      -0.29659151
14
Frame=10 idx=003565 GeodesicLength=0.9094846204507959 rxn_smarts="[C:1]([C@@:2]1([H:10])[O:3][C:4]([H:11])([H:12])[C@:5]1([O:6][H:14])[H:13])([H:7])([H:8])[H:9]>>[C:1]([C@@:2]([O:3][C:4]([H:11])([H:12])[H:14])([C:5](=[O:6])[H:13])[H:10])([H:7])([H:8])[H:9]"
C        1.57424408       0.64802636       0.10427049
C        0.65170542      -0.53488755      -0.05600067
O       -0.10109803      -0.82791117       1.11803047
C       -1.36200932      -0.28506526       0.77191348
C       -0.52224000      -0.32581472      -1.02495321
O       -0.77781048       0.83140638      -1.57942590
H        1.03100516       1.56052759       0.35318426
H        2.28915953       0.45086718       0.90382886
H        2.11153430       0.82910607      -0.82774487
H        1.20835753      -1.43468729      -0.33954064
H       -1.57357134       0.54245045       1.46285690
H       -2.13569519      -1.04398484       0.91449104
H       -0.94015095      -1.22008690      -1.50416130
H       -1.45343071       0.81005372      -0.29674889
14
Frame=11 idx=003565 GeodesicLength=1.0013642319386662 rxn_smarts="[C:1]([C@@:2]1([H:10])[O:3][C:4]([H:11])([H:12])[C@:5]1([O:6][H:14])[H:13])([H:7])([H:8])[H:9]>>[C:1]([C@@:2]([O:3][C:4]([H:11])([H:12])[H:14])([C:5](=[O:6])[H:13])[H:10])([H:7])([H:8])[H:9]"
C        1.55869453       0.64992385       0.11348289
C        0.65438710      -0.54504062      -0.06480761
O       -0.10723924      -0.86230416       1.09734760
C       -1.35541493      -0.27500198       0.76951578
C       -0.51236963      -0.34483466      -1.04210858
O       -0.77697741       0.80920661      -1.59544930
H        1.00582818       1.55326681       0.37482415
H        2.27420681       0.45221933       0.91235131
H        2.09244322       0.85250877      -0.81606840
H        1.22693643      -1.43324030      -0.35222422
H       -1.52389212       0.55297556       1.47150734
H       -2.14847753      -1.00872837       0.93540333
H       -0.93955896      -1.24129984      -1.50771023
H       -1.44856647       0.84034899      -0.29606406
14
Frame=12 idx=003565 GeodesicLength=1.0933117301688902 rxn_smarts="[C:1]([C@@:2]1([H:10])[O:3][C:4]([H:11])([H:12])[C@:5]1([O:6][H:14])[H:13])([H:7])([H:8])[H:9]>>[C:1]([C@@:2]([O:3][C:4]([H:11])([H:12])[H:14])([C:5](=[O:6])[H:13])[H:10])([H:7])([H:8])[H:9]"
C        1.54327967       0.65141302       0.12221753
C        0.65691482      -0.55488445      -0.07310558
O       -0.11432749      -0.89444489       1.07658994
C       -1.34899280      -0.26511351       0.76659403
C       -0.50178030      -0.36380790      -1.05965861
O       -0.77734192       0.78765091      -1.60964935
H        0.98149888       1.54587495       0.39532330
H        2.25937046       0.45343100       0.92048050
H        2.07296689       0.87450071      -0.80489086
H        1.24490316      -1.43180191      -0.36290285
H       -1.47573675       0.56120786       1.47914874
H       -2.15903362      -0.97415314       0.95610263
H       -0.93822443      -1.26210063      -1.51178886
H       -1.44349658       0.87222799      -0.29446056
14
Frame=13 idx=003565 GeodesicLength=1.1853170909159763 rxn_smarts="[C:1]([C@@:2]1([H:10])[O:3][C:4]([H:11])([H:12])[C@:5]1([O:6][H:14])[H:13])([H:7])([H:8])[H:9]>>[C:1]([C@@:2]([O:3][C:4]([H:11])([H:12])[H:14])([C:5](=[O:6])[H:13])[H:10])([H:7])([H:8])[H:9]"
C        1.52802295       0.65253666       0.13046352
C        0.65929549      -0.56444509      -0.08091230
O       -0.12227964      -0.92448069       1.05580814
C       -1.34279339      -0.25536666       0.76313805
C       -0.49041079      -0.38278281      -1.07763442
O       -0.77897517       0.76663551      -1.62199279
H        0.95801114       1.53840400       0.41477915
H        2.24471545       0.45452067       0.92816166
H        2.05312918       0.89518602      -0.79426977
H        1.26230075      -1.43043911      -0.37162493
H       -1.42918532       0.56734419       1.48583946
H       -2.16755648      -0.94031465       0.97647777
H       -0.93610384      -1.28257118      -1.51636842
H       -1.43817035       0.90577313      -0.29186512
14
Frame=14 idx=003565 GeodesicLength=1.2773381297794526 rxn_smarts="[C:1]([C@@:2]1([H:10])[O:3][C:4]([H:11])([H:12])[C@:5]1([O:6][H:14])[H:13])([H:7])([H:8])[H:9]>>[C:1]([C@@:2]([O:3][C:4]([H:11])([H:12])[H:14])([C:5](=[O:6])[H:13])[H:10])([H:7])([H:8])[H:9]"
C        1.51293793       0.65333227       0.13821859
C        0.66154634      -0.57374610      -0.08825877
O       -0.13102268      -0.95256862       1.03501993
C       -1.33684973      -0.24572857       0.75915521
C       -0.47820633      -0.40178966      -1.09606247
O       -0.78193729       0.74604568      -1.63244332
H        0.93534762       1.53088398       0.43327942
H        2.23029376       0.45550642       0.93535529
H        2.03294983       0.91466266      -0.78423835
H        1.27916960      -1.42919141      -0.37845445
H       -1.38429211       0.57155551       1.49162253
H       -2.17422556      -0.90720348       0.99644193
H       -0.93315790      -1.30277906      -1.52141302
H       -1.43255345       0.94102039      -0.28822252
14
Frame=15 idx=003565 GeodesicLength=1.3693441012890122 rxn_smarts="[C:1]([C@@:2]1([H:10])[O:3][C:4]([H:11])([H:12])[C@:5]1([O:6][H:14])[H:13])([H:7])([H:8])[H:9]>>[C:1]([C@@:2]([O:3][C:4]([H:11])([H:12])[H:14])([C:5](=[O:6])[H:13])[H:10])([H:7])([H:8])[H:9]"
C        1.49803217       0.65383268       0.14548581
C        0.66367423      -0.58280697      -0.09518071
O       -0.14050731      -0.97885952       1.01421663
C       -1.33118285      -0.23616105       0.75465079
C       -0.46511387      -0.42085332      -1.11497585
O       -0.78629429       0.72576433      -1.64095763
H        0.91348776       1.52334163       0.45091493
H        2.21613890       0.45640172       0.94203505
H        2.01243990       0.93302716      -0.77481838
H        1.29555413      -1.42810316      -0.38345589
H       -1.34106272       0.57401590       1.49653947
H       -2.17921355      -0.87480847       1.01594154
H       -0.92933595      -1.32278236      -1.52689783
H       -1.42661658       0.97799143      -0.28349794
14
Frame=16 idx=003565 GeodesicLength=1.4613194368879159 rxn_smarts="[C:1]([C@@:2]1([H:10])[O:3][C:4]([H:11])([H:12])[C@:5]1([O:6][H:14])[H:13])([H:7])([H:8])[H:9]>>[C:1]([C@@:2]([O:3][C:4]([H:11])([H:12])[H:14])([C:5](=[O:6])[H:13])[H:10])([H:7])([H:8])[H:9]"
C        1.48330786       0.65406477       0.15227462
C        0.66568254      -0.59164632      -0.10171804
O       -0.15068991      -1.00349626       0.99337367
C       -1.32580570      -0.22663118       0.74964772
C       -0.45108617      -0.43997693      -1.13440417
O       -0.79210065       0.70566075      -1.64748946
H        0.89240724       1.51579410       0.46777174
H        2.20227618       0.45721137       0.94818378
H        1.99160906       0.95036784      -0.76601435
H        1.31148125      -1.42720470      -0.38670241
H       -1.29948061       0.57489958       1.50062110
H       -2.18266157      -0.84310214       1.03493554
H       -0.92458359      -1.34262083      -1.53279970
H       -1.42035592       1.01667994      -0.27768005
