13
Frame=0 idx=001059 GeodesicLength=0.0 rxn_smarts="[C:1]([C@@:2]([O:3][H:11])([C:4](=[O:5])[N:6]([H:12])[H:13])[H:10])([H:7])([H:8])[H:9]>>[C:1]([C:2](=[O:3])[C:4](=[O:5])[N:6]([H:12])[H:13])([H:7])([H:8])[H:10].[H:9][H:11]"
C       -1.51709620       0.27192863       0.11163704
C       -0.20419439      -0.18203980       0.49543376
O       -0.01313197      -1.46123318       0.47391581
C        0.93283850       0.76709325       0.07352315
O        0.78215806       1.97098820       0.04181192
N        2.04634832       0.09542989      -0.24657046
H       -1.67709717       1.30858685      -0.17389707
H       -2.35886203      -0.30039339       0.48102859
H       -1.40899751      -0.94523667      -1.22582041
H       -0.59419158       0.27577877       1.51249028
H       -0.88292838      -1.48236161      -0.83433766
H        2.02622984      -0.90887992      -0.17179850
H        2.86892452       0.59033904      -0.53741646
13
Frame=1 idx=001059 GeodesicLength=0.08133750836900913 rxn_smarts="[C:1]([C@@:2]([O:3][H:11])([C:4](=[O:5])[N:6]([H:12])[H:13])[H:10])([H:7])([H:8])[H:9]>>[C:1]([C:2](=[O:3])[C:4](=[O:5])[N:6]([H:12])[H:13])([H:7])([H:8])[H:10].[H:9][H:11]"
C       -1.51736575       0.27344099       0.11282961
C       -0.19870079      -0.18221047       0.48885175
O       -0.00817502      -1.46229742       0.45154282
C        0.93805701       0.76769382       0.06909204
O        0.78918677       1.97185886       0.04422937
N        2.05551402       0.09880944      -0.24507608
H       -1.67509421       1.31105955      -0.17013559
H       -2.35761613      -0.29623370       0.49022657
H       -1.44294741      -0.95856631      -1.21886788
H       -0.61169601       0.28634977       1.50701908
H       -0.89155330      -1.50170317      -0.83730911
H        2.03906465      -0.90552504      -0.17206696
H        2.88132616       0.59732368      -0.52033564
13
Frame=2 idx=001059 GeodesicLength=0.16240869734860486 rxn_smarts="[C:1]([C@@:2]([O:3][H:11])([C:4](=[O:5])[N:6]([H:12])[H:13])[H:10])([H:7])([H:8])[H:9]>>[C:1]([C:2](=[O:3])[C:4](=[O:5])[N:6]([H:12])[H:13])([H:7])([H:8])[H:10].[H:9][H:11]"
C       -1.51752206       0.27489944       0.11385652
C       -0.19327765      -0.18229741       0.48278467
O       -0.00332904      -1.46307535       0.42915480
C        0.94332733       0.76831814       0.06528124
O        0.79628141       1.97269721       0.04724963
N        2.06464817       0.10216701      -0.24287551
H       -1.67289431       1.31336151      -0.16690096
H       -2.35630996      -0.29217718       0.49883988
H       -1.47617057      -0.97169898      -1.21131062
H       -0.62938514       0.29730788       1.50173276
H       -0.89961829      -1.52124904      -0.84015171
H        2.05125340      -0.90228158      -0.17345623
H        2.89299671       0.60402838      -0.50420446
13
Frame=3 idx=001059 GeodesicLength=0.24340949268918527 rxn_smarts="[C:1]([C@@:2]([O:3][H:11])([C:4](=[O:5])[N:6]([H:12])[H:13])[H:10])([H:7])([H:8])[H:9]>>[C:1]([C:2](=[O:3])[C:4](=[O:5])[N:6]([H:12])[H:13])([H:7])([H:8])[H:10].[H:9][H:11]"
C       -1.51764135       0.27632227       0.11481851
C       -0.18791184      -0.18239553       0.47704341
O        0.00141844      -1.46366245       0.40634062
C        0.94862188       0.76892795       0.06182427
O        0.80341041       1.97349477       0.05077297
N        2.07371459       0.10546477      -0.24045019
H       -1.67061348       1.31557252      -0.16396083
H       -2.35499187      -0.28824366       0.50706191
H       -1.50895624      -0.98442492      -1.20330671
H       -0.64711756       0.30845381       1.49659145
H       -0.90738929      -1.54095630      -0.84308917
H        2.06344842      -0.89906376      -0.17431740
H        2.90400791       0.61051050      -0.48932883
13
Frame=4 idx=001059 GeodesicLength=0.32431184267346425 rxn_smarts="[C:1]([C@@:2]([O:3][H:11])([C:4](=[O:5])[N:6]([H:12])[H:13])[H:10])([H:7])([H:8])[H:9]>>[C:1]([C:2](=[O:3])[C:4](=[O:5])[N:6]([H:12])[H:13])([H:7])([H:8])[H:10].[H:9][H:11]"
C       -1.51773826       0.27768688       0.11578579
C       -0.18256053      -0.18249265       0.47151583
O        0.00610339      -1.46401041       0.38300556
C        0.95390132       0.76953215       0.05841220
O        0.81051788       1.97424740       0.05444077
N        2.08266605       0.10872445      -0.23812833
H       -1.66831743       1.31764001      -0.16129968
H       -2.35361378      -0.28443126       0.51512836
H       -1.54154656      -0.99684359      -1.19473380
H       -0.66472024       0.31987354       1.49151991
H       -0.91502352      -1.56092587      -0.84603160
H        2.07550590      -0.89586609      -0.17530831
H        2.91482579       0.61686543      -0.47430668
13
Frame=5 idx=001059 GeodesicLength=0.40512211110334795 rxn_smarts="[C:1]([C@@:2]([O:3][H:11])([C:4](=[O:5])[N:6]([H:12])[H:13])[H:10])([H:7])([H:8])[H:9]>>[C:1]([C:2](=[O:3])[C:4](=[O:5])[N:6]([H:12])[H:13])([H:7])([H:8])[H:10].[H:9][H:11]"
C       -1.51780349       0.27900024       0.11674728
C       -0.17722857      -0.18261428       0.46621341
O        0.01070717      -1.46411055       0.35909159
C        0.95918275       0.77012394       0.05515979
O        0.81762545       1.97494630       0.05839865
N        2.09153743       0.11194334      -0.23574623
H       -1.66597799       1.31957853      -0.15891427
H       -2.35219091      -0.28073702       0.52298095
H       -1.57390782      -1.00888811      -1.18567449
H       -0.68225812       0.33152511       1.48653595
H       -0.92249847      -1.58116370      -0.84901990
H        2.08754057      -0.89267589      -0.17599393
H        2.92527200       0.62307209      -0.45977881
13
Frame=6 idx=001059 GeodesicLength=0.4858486496835104 rxn_smarts="[C:1]([C@@:2]([O:3][H:11])([C:4](=[O:5])[N:6]([H:12])[H:13])[H:10])([H:7])([H:8])[H:9]>>[C:1]([C:2](=[O:3])[C:4](=[O:5])[N:6]([H:12])[H:13])([H:7])([H:8])[H:10].[H:9][H:11]"
C       -1.51783964       0.28025691       0.11772488
C       -0.17189921      -0.18276022       0.46110640
O        0.01523928      -1.46392920       0.33456622
C        0.96446085       0.77071104       0.05199474
O        0.82471595       1.97559565       0.06254120
N        2.10032795       0.11513229      -0.23337692
H       -1.66361366       1.32137105      -0.15682240
H       -2.35071258      -0.27715565       0.53069396
H       -1.60610284      -1.02058622      -1.17609705
H       -0.69970211       0.34345077       1.48162150
H       -0.92985238      -1.60174763      -0.85198617
H        2.09948000      -0.88949732      -0.17668588
H        2.93549841       0.62915853      -0.44528049
13
Frame=7 idx=001059 GeodesicLength=0.5664967011578249 rxn_smarts="[C:1]([C@@:2]([O:3][H:11])([C:4](=[O:5])[N:6]([H:12])[H:13])[H:10])([H:7])([H:8])[H:9]>>[C:1]([C:2](=[O:3])[C:4](=[O:5])[N:6]([H:12])[H:13])([H:7])([H:8])[H:10].[H:9][H:11]"
C       -1.51783793       0.28146260       0.11870841
C       -0.16657522      -0.18294586       0.45621534
O        0.01968644      -1.46344268       0.30940814
C        0.96975144       0.77129180       0.04902194
O        0.83180422       1.97619175       0.06697466
N        2.10905728       0.11828776      -0.23090456
H       -1.66120109       1.32302451      -0.15504154
H       -2.34919211      -0.27368130       0.53822152
H       -1.63809066      -1.03189735      -1.16606098
H       -0.71711454       0.35564056       1.47679027
H       -0.93705325      -1.62271701      -0.85491594
H        2.11135471      -0.88633161      -0.17722446
H        2.94541073       0.63511683      -0.43119280
13
Frame=8 idx=001059 GeodesicLength=0.6470701787122862 rxn_smarts="[C:1]([C@@:2]([O:3][H:11])([C:4](=[O:5])[N:6]([H:12])[H:13])[H:10])([H:7])([H:8])[H:9]>>[C:1]([C:2](=[O:3])[C:4](=[O:5])[N:6]([H:12])[H:13])([H:7])([H:8])[H:10].[H:9][H:11]"
C       -1.51780191       0.28261037       0.11972479
C       -0.16123491      -0.18316299       0.45150130
O        0.02405939      -1.46260663       0.28359500
C        0.97504502       0.77187994       0.04613064
O        0.83886464       1.97674556       0.07153418
N        2.11771023       0.12142683      -0.22848230
H       -1.65876781       1.32451536      -0.15359835
H       -2.34761031      -0.27030657       0.54566252
H       -1.66994497      -1.04287043      -1.15550130
H       -0.73444722       0.36815968       1.47201352
H       -0.94414026      -1.64417886      -0.85769310
H        2.12304572      -0.88318226      -0.17814639
H        2.95522238       0.64096999      -0.41674051
13
Frame=9 idx=001059 GeodesicLength=0.7275754467725434 rxn_smarts="[C:1]([C@@:2]([O:3][H:11])([C:4](=[O:5])[N:6]([H:12])[H:13])[H:10])([H:7])([H:8])[H:9]>>[C:1]([C:2](=[O:3])[C:4](=[O:5])[N:6]([H:12])[H:13])([H:7])([H:8])[H:10].[H:9][H:11]"
C       -1.51772041       0.28371116       0.12075344
C       -0.15588666      -0.18343232       0.44699215
O        0.02833853      -1.46139421       0.25709766
C        0.98036327       0.77247177       0.04347422
O        0.84592234       1.97725223       0.07639330
N        2.12630786       0.12454211      -0.22596010
H       -1.65627776       1.32585849      -0.15251339
H       -2.34598770      -0.26702165       0.55293981
H       -1.70160785      -1.05344676      -1.14450214
H       -0.75178490       0.38098022       1.46730665
H       -0.95106560      -1.66617861      -0.86029614
H        2.13461305      -0.88004779      -0.17917290
H        2.96478584       0.64670534      -0.40251256
13
Frame=10 idx=001059 GeodesicLength=0.8080178025905688 rxn_smarts="[C:1]([C@@:2]([O:3][H:11])([C:4](=[O:5])[N:6]([H:12])[H:13])[H:10])([H:7])([H:8])[H:9]>>[C:1]([C:2](=[O:3])[C:4](=[O:5])[N:6]([H:12])[H:13])([H:7])([H:8])[H:10].[H:9][H:11]"
C       -1.51759002       0.28476866       0.12179531
C       -0.15052388      -0.18375928       0.44267793
O        0.03251855      -1.45976300       0.22988605
C        0.98571196       0.77307359       0.04107209
O        0.85297717       1.97771633       0.08155711
N        2.13485155       0.12763989      -0.22334834
H       -1.65372634       1.32705004      -0.15181493
H       -2.34432495      -0.26381459       0.56006478
H       -1.73309133      -1.06362387      -1.13307013
H       -0.76914437       0.39412247       1.46265672
H       -0.95782443      -1.68881146      -0.86262754
H        2.14601792      -0.87692802      -0.18048633
H        2.97414817       0.65232925      -0.38836271
13
Frame=11 idx=001059 GeodesicLength=0.8883989424185488 rxn_smarts="[C:1]([C@@:2]([O:3][H:11])([C:4](=[O:5])[N:6]([H:12])[H:13])[H:10])([H:7])([H:8])[H:9]>>[C:1]([C:2](=[O:3])[C:4](=[O:5])[N:6]([H:12])[H:13])([H:7])([H:8])[H:10].[H:9][H:11]"
C       -1.51740217       0.28579437       0.12283162
C       -0.14515286      -0.18415754       0.43858397
O        0.03658319      -1.45767162       0.20194839
C        0.99110865       0.77368529       0.03905488
O        0.86004814       1.97813627       0.08716229
N        2.14334645       0.13071419      -0.22056694
H       -1.65108392       1.32810092      -0.15153289
H       -2.34264243      -0.26067161       0.56697500
H       -1.76434078      -1.07335954      -1.12127680
H       -0.78660002       0.40758161       1.45806690
H       -0.96437135      -1.71216565      -0.86459443
H        2.15726200      -0.87382677      -0.18204167
H        2.98324510       0.65784009      -0.37461032
13
Frame=12 idx=001059 GeodesicLength=0.9687246441954144 rxn_smarts="[C:1]([C@@:2]([O:3][H:11])([C:4](=[O:5])[N:6]([H:12])[H:13])[H:10])([H:7])([H:8])[H:9]>>[C:1]([C:2](=[O:3])[C:4](=[O:5])[N:6]([H:12])[H:13])([H:7])([H:8])[H:10].[H:9][H:11]"
C       -1.51715596       0.28679268       0.12386761
C       -0.13976204      -0.18462574       0.43468354
O        0.04052733      -1.45506515       0.17325315
C        0.99655231       0.77431831       0.03739352
O        0.86712628       1.97852210       0.09315590
N        2.15178151       0.13377885      -0.21771094
H       -1.64835614       1.32900344      -0.15169962
H       -2.34093400      -0.25757659       0.57370732
H       -1.79538517      -1.08266810      -1.10910694
H       -0.80414536       0.42139815       1.45350810
H       -0.97070849      -1.73638104      -0.86601886
H        2.16826246      -0.87073746      -0.18426536
H        2.99219727       0.66324054      -0.36076741
13
Frame=13 idx=001059 GeodesicLength=1.0489984316838037 rxn_smarts="[C:1]([C@@:2]([O:3][H:11])([C:4](=[O:5])[N:6]([H:12])[H:13])[H:10])([H:7])([H:8])[H:9]>>[C:1]([C:2](=[O:3])[C:4](=[O:5])[N:6]([H:12])[H:13])([H:7])([H:8])[H:10].[H:9][H:11]"
C       -1.51684050       0.28778834       0.12486250
C       -0.13437485      -0.18519431       0.43103822
O        0.04432371      -1.45190030       0.14378469
C        1.00207337       0.77496019       0.03635649
O        0.87425512       1.97885931       0.09986031
N        2.16015719       0.13680763      -0.21463935
H       -1.64548539       1.32979604      -0.15232398
H       -2.33925132      -0.25451706       0.58010218
H       -1.82608516      -1.09142881      -1.09675714
H       -0.82192386       0.43551851       1.44900268
H       -0.97675931      -1.76155559      -0.86678064
H        2.17909977      -0.86766731      -0.18671304
H        3.00081125       0.66853337      -0.34779291
13
Frame=14 idx=001059 GeodesicLength=1.1292134969859375 rxn_smarts="[C:1]([C@@:2]([O:3][H:11])([C:4](=[O:5])[N:6]([H:12])[H:13])[H:10])([H:7])([H:8])[H:9]>>[C:1]([C:2](=[O:3])[C:4](=[O:5])[N:6]([H:12])[H:13])([H:7])([H:8])[H:10].[H:9][H:11]"
C       -1.51644858       0.28879861       0.12579405
C       -0.12900378      -0.18587428       0.42767014
O        0.04794331      -1.44811413       0.11353431
C        1.00768477       0.77560776       0.03608020
O        0.88145604       1.97914005       0.10742163
N        2.16845565       0.13979202      -0.21133557
H       -1.64243532       1.33049413      -0.15343069
H       -2.33762083      -0.25147145       0.58608993
H       -1.85639572      -1.09960640      -1.08430400
H       -0.84001033       0.44994402       1.44453520
H       -0.98242871      -1.78781159      -0.86671158
H        2.18973315      -0.86461904      -0.18946121
H        3.00907034       0.67372030      -0.33588240
13
Frame=15 idx=001059 GeodesicLength=1.2093873444832046 rxn_smarts="[C:1]([C@@:2]([O:3][H:11])([C:4](=[O:5])[N:6]([H:12])[H:13])[H:10])([H:7])([H:8])[H:9]>>[C:1]([C:2](=[O:3])[C:4](=[O:5])[N:6]([H:12])[H:13])([H:7])([H:8])[H:10].[H:9][H:11]"
C       -1.51598869       0.28982286       0.12668209
C       -0.12359157      -0.18665931       0.42433787
O        0.05141143      -1.44360948       0.08218312
C        1.01335716       0.77630223       0.03616349
O        0.88868417       1.97939912       0.11550556
N        2.17671560       0.14281893      -0.20804718
H       -1.63926771       1.33107837      -0.15503458
H       -2.33596597      -0.24840721       0.59189273
H       -1.88659180      -1.10729864      -1.07157846
H       -0.85819903       0.46470717       1.43997931
H       -0.98799533      -1.81548068      -0.86533120
H        2.20005847      -0.86151340      -0.19354383
H        3.01737327       0.67884004      -0.32320892
13
Frame=16 idx=001059 GeodesicLength=1.289530933393173 rxn_smarts="[C:1]([C@@:2]([O:3][H:11])([C:4](=[O:5])[N:6]([H:12])[H:13])[H:10])([H:7])([H:8])[H:9]>>[C:1]([C:2](=[O:3])[C:4](=[O:5])[N:6]([H:12])[H:13])([H:7])([H:8])[H:10].[H:9][H:11]"
C       -1.51545308       0.29089958       0.12746506
C       -0.11816727      -0.18757168       0.42109756
O        0.05468135      -1.43830637       0.04970533
C        1.01912144       0.77703397       0.03688979
O        0.89598690       1.97962105       0.12445745
N        2.18492961       0.14586409      -0.20465955
H       -1.63591768       1.33159799      -0.15717479
H       -2.33435049      -0.24528769       0.59732881
H       -1.91653226      -1.11442602      -1.05875594
H       -0.87664848       0.47977495       1.43534044
H       -0.99330329      -1.84472662      -0.86233316
H        2.21007041      -0.85834720      -0.19891029
H        3.02558284       0.68387394      -0.31045070
