13
Frame=0 idx=008543 GeodesicLength=0.0 rxn_smarts="[O:1]([C:2]1([C:6](=[O:7])[H:13])[C:3]([H:9])([H:10])[O:4][C:5]1([H:11])[H:12])[H:8]>>[O:1]([C@:2]([C:3]([O:4][H:11])([H:9])[H:10])([C:5][H:12])[C:6](=[O:7])[H:13])[H:8]"
O        1.11621082       0.50693212      -1.30675983
C        0.32853875       0.15680107      -0.21599168
C       -0.90644561      -0.68919579      -0.55709448
O       -1.92015108       0.12511316       0.07626260
C       -0.54754672       1.29063276       0.32239927
C        1.18025267      -0.46509115       0.86457723
O        2.37949827      -0.49707727       0.80336630
H        2.03550222       0.35403798      -1.04902139
H       -0.94611045      -1.67928240      -0.10443384
H       -1.05337350      -0.76467120      -1.63517098
H       -1.76343730       1.10267132      -0.34636804
H       -0.53449110       1.42142594       1.40740498
H        0.63155305      -0.86229657       1.74082983
13
Frame=1 idx=008543 GeodesicLength=0.0542991126145354 rxn_smarts="[O:1]([C:2]1([C:6](=[O:7])[H:13])[C:3]([H:9])([H:10])[O:4][C:5]1([H:11])[H:12])[H:8]>>[O:1]([C@:2]([C:3]([O:4][H:11])([H:9])[H:10])([C:5][H:12])[C:6](=[O:7])[H:13])[H:8]"
O        1.11362199       0.50704234      -1.30721261
C        0.32913326       0.15406095      -0.21521637
C       -0.90617817      -0.69146171      -0.55429910
O       -1.91447797       0.13288630       0.07476987
C       -0.55175209       1.28322788       0.32662258
C        1.18275694      -0.46654223       0.86398474
O        2.38212485      -0.49410190       0.80219251
H        2.03405311       0.36023221      -1.05012088
H       -0.95020284      -1.67945234      -0.09736304
H       -1.05338566      -0.77022806      -1.63215063
H       -1.76219440       1.11837208      -0.36303407
H       -0.53931926       1.41266885       1.41186275
H        0.63582023      -0.86670438       1.73996426
13
Frame=2 idx=008543 GeodesicLength=0.10859058059648775 rxn_smarts="[O:1]([C:2]1([C:6](=[O:7])[H:13])[C:3]([H:9])([H:10])[O:4][C:5]1([H:11])[H:12])[H:8]>>[O:1]([C@:2]([C:3]([O:4][H:11])([H:9])[H:10])([C:5][H:12])[C:6](=[O:7])[H:13])[H:8]"
O        1.11105088       0.50706402      -1.30769048
C        0.32970323       0.15131997      -0.21448272
C       -0.90591618      -0.69375434      -0.55155401
O       -1.90884860       0.14035829       0.07329779
C       -0.55596753       1.27586445       0.33066370
C        1.18519007      -0.46793527       0.86341733
O        2.38466673      -0.49105475       0.80111308
H        2.03256884       0.36633977      -1.05120510
H       -0.95417239      -1.67968091      -0.09048539
H       -1.05348750      -0.77565564      -1.62917181
H       -1.76061770       1.13412236      -0.37914437
H       -0.54414135       1.40400699       1.41613292
H        0.63997147      -0.87099495       1.73910907
13
Frame=3 idx=008543 GeodesicLength=0.16287789234320557 rxn_smarts="[O:1]([C:2]1([C:6](=[O:7])[H:13])[C:3]([H:9])([H:10])[O:4][C:5]1([H:11])[H:12])[H:8]>>[O:1]([C@:2]([C:3]([O:4][H:11])([H:9])[H:10])([C:5][H:12])[C:6](=[O:7])[H:13])[H:8]"
O        1.10849077       0.50699400      -1.30819703
C        0.33024763       0.14857278      -0.21378866
C       -0.90566348      -0.69607812      -0.54884993
O       -1.90326961       0.14754599       0.07183686
C       -0.56018829       1.26853782       0.33453599
C        1.18755961      -0.46927835       0.86286930
O        2.38713236      -0.48792292       0.80012232
H        2.03104627       0.37238934      -1.05227231
H       -0.95803633      -1.67996637      -0.08377188
H       -1.05367511      -0.78098129      -1.62622593
H       -1.75869783       1.14995998      -0.39475030
H       -0.54896845       1.39541616       1.42023213
H        0.64402247      -0.87518902       1.73825945
13
Frame=4 idx=008543 GeodesicLength=0.2171641456640054 rxn_smarts="[O:1]([C:2]1([C:6](=[O:7])[H:13])[C:3]([H:9])([H:10])[O:4][C:5]1([H:11])[H:12])[H:8]>>[O:1]([C@:2]([C:3]([O:4][H:11])([H:9])[H:10])([C:5][H:12])[C:6](=[O:7])[H:13])[H:8]"
O        1.10593250       0.50683781      -1.30873114
C        0.33076500       0.14581873      -0.21312991
C       -0.90541982      -0.69843751      -0.54617748
O       -1.89774671       0.15446405       0.07037352
C       -0.56441448       1.26124335       0.33825529
C        1.18987309      -0.47056974       0.86233826
O        2.38952728      -0.48471439       0.79920204
H        2.02947832       0.37839874      -1.05332375
H       -0.96180515      -1.68030524      -0.07719180
H       -1.05393929      -0.78622941      -1.62330425
H       -1.75641954       1.16591871      -0.40990260
H       -0.55382110       1.38686959       1.42417858
H        0.64798991      -0.87929470       1.73741325
13
Frame=5 idx=008543 GeodesicLength=0.2714492917762515 rxn_smarts="[O:1]([C:2]1([C:6](=[O:7])[H:13])[C:3]([H:9])([H:10])[O:4][C:5]1([H:11])[H:12])[H:8]>>[O:1]([C@:2]([C:3]([O:4][H:11])([H:9])[H:10])([C:5][H:12])[C:6](=[O:7])[H:13])[H:8]"
O        1.10336795       0.50658439      -1.30930432
C        0.33125339       0.14305080      -0.21250695
C       -0.90519207      -0.70084032      -0.54352866
O       -1.89228650       0.16113077       0.06889491
C       -0.56864113       1.25398059       0.34183202
C        1.19213834      -0.47181935       0.86182210
O        2.39186004      -0.48142398       0.79834745
H        2.02786037       0.38442078      -1.05435088
H       -0.96549711      -1.68069994      -0.07071379
H       -1.05428157      -0.79143013      -1.62040092
H       -1.75376515       1.18203425      -0.42464923
H       -0.55870666       1.37834969       1.42798789
H        0.65189010      -0.88333753       1.73657039
13
Frame=6 idx=008543 GeodesicLength=0.3257669285769778 rxn_smarts="[O:1]([C:2]1([C:6](=[O:7])[H:13])[C:3]([H:9])([H:10])[O:4][C:5]1([H:11])[H:12])[H:8]>>[O:1]([C@:2]([C:3]([O:4][H:11])([H:9])[H:10])([C:5][H:12])[C:6](=[O:7])[H:13])[H:8]"
O        1.10079493       0.50621886      -1.30990979
C        0.33171068       0.14025859      -0.21191936
C       -0.90498275      -0.70328697      -0.54089243
O       -1.88688973       0.16755628       0.06739744
C       -0.57286538       1.24673054       0.34527153
C        1.19435615      -0.47303323       0.86130370
O        2.39413221      -0.47802645       0.79755134
H        2.02618808       0.39048295      -1.05534485
H       -0.96913077      -1.68113671      -0.06431109
H       -1.05469545      -0.79660366      -1.61749855
H       -1.75070985       1.19834549      -0.43902058
H       -0.56363817       1.36981761       1.43166088
H        0.65573006      -0.88732331       1.73571175
13
Frame=7 idx=008543 GeodesicLength=0.38005956831475013 rxn_smarts="[O:1]([C:2]1([C:6](=[O:7])[H:13])[C:3]([H:9])([H:10])[O:4][C:5]1([H:11])[H:12])[H:8]>>[O:1]([C@:2]([C:3]([O:4][H:11])([H:9])[H:10])([C:5][H:12])[C:6](=[O:7])[H:13])[H:8]"
O        1.09821788       0.50576625      -1.31054433
C        0.33213838       0.13745592      -0.21136288
C       -0.90477963      -0.70577906      -0.53827619
O       -1.88155211       0.17371292       0.06591906
C       -0.57710127       1.23950431       0.34857030
C        1.19652218      -0.47418947       0.86080314
O        2.39633414      -0.47458023       0.79679585
H        2.02446269       0.39653807      -1.05631955
H       -0.97266192      -1.68163739      -0.05802307
H       -1.05518243      -0.80171758      -1.61460734
H       -1.74727767       1.21482727      -0.45300782
H       -0.56861620       1.36131573       1.43519207
H        0.65949596      -0.89121673       1.73486077
13
Frame=8 idx=008543 GeodesicLength=0.4343870818136687 rxn_smarts="[O:1]([C:2]1([C:6](=[O:7])[H:13])[C:3]([H:9])([H:10])[O:4][C:5]1([H:11])[H:12])[H:8]>>[O:1]([C@:2]([C:3]([O:4][H:11])([H:9])[H:10])([C:5][H:12])[C:6](=[O:7])[H:13])[H:8]"
O        1.09562756       0.50521580      -1.31121647
C        0.33253367       0.13463397      -0.21083920
C       -0.90459063      -0.70832758      -0.53567587
O       -1.87627931       0.17961140       0.06444654
C       -0.58134716       1.23229963       0.35173507
C        1.19864582      -0.47529736       0.86031815
O        2.39847862      -0.47106474       0.79608889
H        2.02267624       0.40262663      -1.05726958
H       -0.97610933      -1.68220980      -0.05182237
H       -1.05574978      -0.80680358      -1.61172787
H       -1.74344641       1.23153597      -0.46664747
H       -0.57364782       1.35282587       1.43859411
H        0.66320854      -0.89504619       1.73401607
13
Frame=9 idx=008543 GeodesicLength=0.48872293602683653 rxn_smarts="[O:1]([C:2]1([C:6](=[O:7])[H:13])[C:3]([H:9])([H:10])[O:4][C:5]1([H:11])[H:12])[H:8]>>[O:1]([C@:2]([C:3]([O:4][H:11])([H:9])[H:10])([C:5][H:12])[C:6](=[O:7])[H:13])[H:8]"
O        1.09301552       0.50455824      -1.31192832
C        0.33289358       0.13178638      -0.21034689
C       -0.90442012      -0.71093444      -0.53308079
O       -1.87108327       0.18527103       0.06296237
C       -0.58560184       1.22510569       0.35477534
C        1.20073135      -0.47636230       0.85983882
O        2.40056841      -0.46745969       0.79542223
H        2.02081936       0.40878197      -1.05818995
H       -0.97949506      -1.68284518      -0.04567799
H       -1.05639039      -0.81188532      -1.60884600
H       -1.73917213       1.24849580      -0.47997252
H       -0.57874587       1.34431319       1.44187666
H        0.66688048      -0.89882539       1.73316705
13
Frame=10 idx=008543 GeodesicLength=0.5430710021580294 rxn_smarts="[O:1]([C:2]1([C:6](=[O:7])[H:13])[C:3]([H:9])([H:10])[O:4][C:5]1([H:11])[H:12])[H:8]>>[O:1]([C@:2]([C:3]([O:4][H:11])([H:9])[H:10])([C:5][H:12])[C:6](=[O:7])[H:13])[H:8]"
O        1.09037636       0.50378026      -1.31269123
C        0.33321524       0.12890379      -0.20988899
C       -0.90427345      -0.71360777      -0.53048714
O       -1.86596162       0.19069768       0.06144714
C       -0.58986528       1.21791976       0.35769701
C        1.20278088      -0.47739767       0.85935847
O        2.40260606      -0.46372764       0.79480702
H        2.01888336       0.41502950      -1.05908133
H       -0.98283256      -1.68353818      -0.03956972
H       -1.05710922      -0.81698831      -1.60595533
H       -1.73442360       1.26574667      -0.49299260
H       -0.58391658       1.33576011       1.44504857
H        0.67052040      -0.90257819       1.73230813
13
Frame=11 idx=008543 GeodesicLength=0.597404164546871 rxn_smarts="[O:1]([C:2]1([C:6](=[O:7])[H:13])[C:3]([H:9])([H:10])[O:4][C:5]1([H:11])[H:12])[H:8]>>[O:1]([C@:2]([C:3]([O:4][H:11])([H:9])[H:10])([C:5][H:12])[C:6](=[O:7])[H:13])[H:8]"
O        1.08769884       0.50288376      -1.31349227
C        0.33349834       0.12598491      -0.20945685
C       -0.90415944      -0.71633815      -0.52787385
O       -1.86091958       0.19595173       0.05987671
C       -0.59411647       1.21072756       0.36053545
C        1.20480703      -0.47841514       0.85885811
O        2.40460221      -0.45983993       0.79422502
H        2.01685626       0.42140114      -1.05993785
H       -0.98616513      -1.68426326      -0.03343891
H       -1.05789073      -0.82214621      -1.60303603
H       -1.72919433       1.28329108      -0.50582352
H       -0.58917418       1.32709294       1.44814696
H        0.67415716      -0.90633043       1.73141705
13
Frame=12 idx=008543 GeodesicLength=0.6517569735228139 rxn_smarts="[O:1]([C:2]1([C:6](=[O:7])[H:13])[C:3]([H:9])([H:10])[O:4][C:5]1([H:11])[H:12])[H:8]>>[O:1]([C@:2]([C:3]([O:4][H:11])([H:9])[H:10])([C:5][H:12])[C:6](=[O:7])[H:13])[H:8]"
O        1.08498864       0.50186125      -1.31434580
C        0.33373877       0.12302556      -0.20905971
C       -0.90407221      -0.71914213      -0.52526208
O       -1.85595786       0.20096709       0.05829211
C       -0.59838428       1.20353410       0.36325844
C        1.20679854      -0.47940656       0.85835217
O        2.40654522      -0.45578976       0.79370385
H        2.01473694       0.42786152      -1.06077213
H       -0.98945161      -1.68505717      -0.02734365
H       -1.05875483      -0.82733084      -1.60010816
H       -1.72344782       1.30116208      -0.51836636
H       -0.59450809       1.31837428       1.45113702
H        0.67776858      -0.91005943       1.73051431
13
Frame=13 idx=008543 GeodesicLength=0.7061338987800039 rxn_smarts="[O:1]([C:2]1([C:6](=[O:7])[H:13])[C:3]([H:9])([H:10])[O:4][C:5]1([H:11])[H:12])[H:8]>>[O:1]([C@:2]([C:3]([O:4][H:11])([H:9])[H:10])([C:5][H:12])[C:6](=[O:7])[H:13])[H:8]"
O        1.08224956       0.50071799      -1.31524538
C        0.33393629       0.12002858      -0.20869716
C       -0.90400702      -0.72202117      -0.52265678
O       -1.85107315       0.20572582       0.05672351
C       -0.60267482       1.19633655       0.36586012
C        1.20875083      -0.48036374       0.85784441
O        2.40842851      -0.45157987       0.79324581
H        2.01252452       0.43438098      -1.06159085
H       -0.99267171      -1.68593340      -0.02130506
H       -1.05970345      -0.83252635      -1.59717907
H       -1.71719388       1.31936363      -0.53061115
H       -0.59991124       1.30962084       1.45400882
H        0.68134556      -0.91374985       1.72960279
13
Frame=14 idx=008543 GeodesicLength=0.7605251416206631 rxn_smarts="[O:1]([C:2]1([C:6](=[O:7])[H:13])[C:3]([H:9])([H:10])[O:4][C:5]1([H:11])[H:12])[H:8]>>[O:1]([C@:2]([C:3]([O:4][H:11])([H:9])[H:10])([C:5][H:12])[C:6](=[O:7])[H:13])[H:8]"
O        1.07948401       0.49946038      -1.31618751
C        0.33409015       0.11699743      -0.20836896
C       -0.90395948      -0.72497701      -0.52006344
O       -1.84626392       0.21020957       0.05519715
C       -0.60699549       1.18913509       0.36833571
C        1.21065990      -0.48127931       0.85733982
O        2.41024653      -0.44721588       0.79285338
H        2.01021824       0.44093164      -1.06240251
H       -0.99580600      -1.68690529      -0.01534503
H       -1.06073843      -0.83771781      -1.59425530
H       -1.71043814       1.33789583      -0.54254677
H       -0.60537743       1.30085268       1.45675497
H        0.68488005      -0.91738733       1.72868849
13
Frame=15 idx=008543 GeodesicLength=0.814924512073895 rxn_smarts="[O:1]([C:2]1([C:6](=[O:7])[H:13])[C:3]([H:9])([H:10])[O:4][C:5]1([H:11])[H:12])[H:8]>>[O:1]([C@:2]([C:3]([O:4][H:11])([H:9])[H:10])([C:5][H:12])[C:6](=[O:7])[H:13])[H:8]"
O        1.07669404       0.49809553      -1.31716881
C        0.33419944       0.11393576      -0.20807482
C       -0.90392483      -0.72801189      -0.51748777
O       -1.84152926       0.21439870       0.05373918
C       -0.61135458       1.18192994       0.37068002
C        1.21252144      -0.48214537       0.85684370
O        2.41199362      -0.44270574       0.79252790
H        2.00781791       0.44748593      -1.06321561
H       -0.99883429      -1.68798683      -0.00948569
H       -1.06186106      -0.84289119      -1.59134358
H       -1.70318547       1.35676017      -0.55416045
H       -0.61090055       1.29209134       1.45936775
H        0.68836361      -0.92095636       1.72777819
13
Frame=16 idx=008543 GeodesicLength=0.869326477648349 rxn_smarts="[O:1]([C:2]1([C:6](=[O:7])[H:13])[C:3]([H:9])([H:10])[O:4][C:5]1([H:11])[H:12])[H:8]>>[O:1]([C@:2]([C:3]([O:4][H:11])([H:9])[H:10])([C:5][H:12])[C:6](=[O:7])[H:13])[H:8]"
O        1.07388112       0.49663073      -1.31818615
C        0.33426300       0.11084712      -0.20781446
C       -0.90389837      -0.73112848      -0.51493534
O       -1.83686967       0.21827354       0.05237446
C       -0.61576081       1.17472113       0.37288761
C        1.21433109      -0.48295388       0.85636138
O        2.41366434      -0.43805892       0.79226954
H        2.00532380       0.45401815      -1.06403827
H       -1.00173667      -1.68919243      -0.00374797
H       -1.06307188      -0.84803414      -1.58845068
H       -1.69543919       1.37595969      -0.56543851
H       -0.61647470       1.28335870       1.46183935
H        0.69178795      -0.92444122       1.72687903
