11
Frame=0 idx=005456 GeodesicLength=0.0 rxn_smarts="[O:1]=[C:2]1[N:3]([H:7])[C:4]([H:8])([H:9])[C:5]([H:10])([H:11])[O:6]1>>[C:4]1([H:8])([H:9])[C:5]([H:10])([H:11])[O:6]1.[O:1]=[C:2]=[N:3][H:7]"
O        2.52228698       0.38182303      -0.17008418
C        1.45317548      -0.11238633       0.04233602
N        0.86097892      -0.95905751       0.81973070
C       -1.17694239      -0.43806293      -0.16326081
C       -0.79231052       0.94728479      -0.34223400
O        0.35152167       0.35424626      -0.94817138
H        1.47402317      -1.32154645       1.53861953
H       -1.45641737      -0.97834364      -1.05755659
H       -1.32472137      -0.91619427       0.78587471
H       -0.56945143       1.50357793       0.56594770
H       -1.34214315       1.53865913      -1.07120171
11
Frame=1 idx=005456 GeodesicLength=0.0818096982131604 rxn_smarts="[O:1]=[C:2]1[N:3]([H:7])[C:4]([H:8])([H:9])[C:5]([H:10])([H:11])[O:6]1>>[C:4]1([H:8])([H:9])[C:5]([H:10])([H:11])[O:6]1.[O:1]=[C:2]=[N:3][H:7]"
O        2.55075463       0.38138046      -0.14952435
C        1.47288040      -0.08749659       0.06861719
N        0.85605388      -0.91954073       0.84209286
C       -1.16316441      -0.44008142      -0.15405781
C       -0.80211296       0.95133733      -0.35336998
O        0.34968485       0.36051474      -0.94561146
H        1.47864745      -1.40930805       1.47052939
H       -1.45298222      -0.99413478      -1.03718610
H       -1.33820026      -0.89000035       0.80504608
H       -0.59218039       1.52563071       0.54669602
H       -1.35938097       1.52169869      -1.09323183
11
Frame=2 idx=005456 GeodesicLength=0.1636925415959064 rxn_smarts="[O:1]=[C:2]1[N:3]([H:7])[C:4]([H:8])([H:9])[C:5]([H:10])([H:11])[O:6]1>>[C:4]1([H:8])([H:9])[C:5]([H:10])([H:11])[O:6]1.[O:1]=[C:2]=[N:3][H:7]"
O        2.58151642       0.37921963      -0.12943903
C        1.49459950      -0.06171786       0.09511162
N        0.85516192      -0.87879491       0.86580945
C       -1.14735253      -0.44297757      -0.14311748
C       -0.81101763       0.95394042      -0.36312242
O        0.34870810       0.36627972      -0.94277492
H        1.46537740      -1.48852156       1.39255194
H       -1.44760880      -1.01076566      -1.01459677
H       -1.34888605      -0.86537678       0.82419958
H       -0.61413426       1.54592188       0.52842382
H       -1.37636408       1.50279270      -1.11304580
11
Frame=3 idx=005456 GeodesicLength=0.24621464276472121 rxn_smarts="[O:1]=[C:2]1[N:3]([H:7])[C:4]([H:8])([H:9])[C:5]([H:10])([H:11])[O:6]1>>[C:4]1([H:8])([H:9])[C:5]([H:10])([H:11])[O:6]1.[O:1]=[C:2]=[N:3][H:7]"
O        2.61380607       0.37556837      -0.10886127
C        1.51771473      -0.03483858       0.12237371
N        0.85783902      -0.83922070       0.88906132
C       -1.12978744      -0.44697547      -0.13070507
C       -0.81858192       0.95486442      -0.37147478
O        0.34841920       0.37117674      -0.93948072
H        1.43556598      -1.55601728       1.30532159
H       -1.44123368      -1.02829646      -0.98995921
H       -1.35703313      -0.84219459       0.84319433
H       -0.63445466       1.56414083       0.51111924
H       -1.39225417       1.48179272      -1.13058914
11
Frame=4 idx=005456 GeodesicLength=0.33045737110537277 rxn_smarts="[O:1]=[C:2]1[N:3]([H:7])[C:4]([H:8])([H:9])[C:5]([H:10])([H:11])[O:6]1>>[C:4]1([H:8])([H:9])[C:5]([H:10])([H:11])[O:6]1.[O:1]=[C:2]=[N:3][H:7]"
O        2.64702060       0.37057257      -0.08774744
C        1.54214094      -0.00919452       0.14835947
N        0.86349897      -0.80454787       0.90827273
C       -1.11137528      -0.45183512      -0.11795234
C       -0.82494689       0.95433518      -0.37817803
O        0.34839985       0.37517208      -0.93681450
H        1.39369071      -1.60719095       1.21719303
H       -1.43524804      -1.04529643      -0.96493817
H       -1.36332413      -0.82139064       0.86084578
H       -0.65260095       1.57917126       0.49583913
H       -1.40725578       1.46020443      -1.14487966
11
Frame=5 idx=005456 GeodesicLength=0.4162779280163846 rxn_smarts="[O:1]=[C:2]1[N:3]([H:7])[C:4]([H:8])([H:9])[C:5]([H:10])([H:11])[O:6]1>>[C:4]1([H:8])([H:9])[C:5]([H:10])([H:11])[O:6]1.[O:1]=[C:2]=[N:3][H:7]"
O        2.68020748       0.36505062      -0.06524369
C        1.56736066       0.01380010       0.17223248
N        0.87099554      -0.77574286       0.92248816
C       -1.09297501      -0.45717961      -0.10552630
C       -0.83030643       0.95271290      -0.38354115
O        0.34811952       0.37805663      -0.93527847
H        1.34559654      -1.64282459       1.13210259
H       -1.43069399      -1.06120115      -0.94027541
H       -1.36858773      -0.80268349       0.87663732
H       -0.66826786       1.59117158       0.48248994
H       -1.42144872       1.43883986      -1.15608548
11
Frame=6 idx=005456 GeodesicLength=0.5034270321096571 rxn_smarts="[O:1]=[C:2]1[N:3]([H:7])[C:4]([H:8])([H:9])[C:5]([H:10])([H:11])[O:6]1>>[C:4]1([H:8])([H:9])[C:5]([H:10])([H:11])[O:6]1.[O:1]=[C:2]=[N:3][H:7]"
O        2.71294108       0.35984838      -0.04042855
C        1.59292808       0.03398519       0.19430251
N        0.87950385      -0.75251543       0.93214377
C       -1.07518931      -0.46264985      -0.09348231
C       -0.83488810       0.95032093      -0.38810725
O        0.34730537       0.37963909      -0.93493376
H        1.29544286      -1.66606388       1.05018885
H       -1.42811991      -1.07600413      -0.91576780
H       -1.37343262      -0.78529909       0.89081982
H       -0.68157892       1.60088564       0.47033126
H       -1.43491238       1.41785314      -1.16506654
11
Frame=7 idx=005456 GeodesicLength=0.5917190248185035 rxn_smarts="[O:1]=[C:2]1[N:3]([H:7])[C:4]([H:8])([H:9])[C:5]([H:10])([H:11])[O:6]1>>[C:4]1([H:8])([H:9])[C:5]([H:10])([H:11])[O:6]1.[O:1]=[C:2]=[N:3][H:7]"
O        2.74510722       0.35532754      -0.01286758
C        1.61861827       0.05138040       0.21484842
N        0.88852579      -0.73432627       0.93775306
C       -1.05836595      -0.46797654      -0.08183027
C       -0.83894896       0.94741369      -0.39224750
O        0.34577929       0.37987468      -0.93580440
H        1.24585421      -1.67955313       0.97134168
H       -1.42769966      -1.08971319      -0.89124259
H       -1.37816356      -0.76865952       0.90362391
H       -0.69281733       1.60892053       0.45884667
H       -1.44788932       1.39731181      -1.17242139
11
Frame=8 idx=005456 GeodesicLength=0.6809968635833535 rxn_smarts="[O:1]=[C:2]1[N:3]([H:7])[C:4]([H:8])([H:9])[C:5]([H:10])([H:11])[O:6]1>>[C:4]1([H:8])([H:9])[C:5]([H:10])([H:11])[O:6]1.[O:1]=[C:2]=[N:3][H:7]"
O        2.77670619       0.35146805       0.01741870
C        1.64426886       0.06598034       0.23404096
N        0.89777145      -0.72048257       0.93982279
C       -1.04263088      -0.47305858      -0.07058940
C       -0.84271505       0.94425401      -0.39618247
O        0.34340320       0.37892102      -0.93796903
H        1.19829494      -1.68525335       0.89559436
H       -1.42926243      -1.10245567      -0.86670183
H       -1.38287510      -0.75255884       0.91530874
H       -0.70232033       1.61579241       0.44781500
H       -1.46064087       1.37739317      -1.17855782
11
Frame=9 idx=005456 GeodesicLength=0.7710711532889847 rxn_smarts="[O:1]=[C:2]1[N:3]([H:7])[C:4]([H:8])([H:9])[C:5]([H:10])([H:11])[O:6]1>>[C:4]1([H:8])([H:9])[C:5]([H:10])([H:11])[O:6]1.[O:1]=[C:2]=[N:3][H:7]"
O        2.80779854       0.34808534       0.05050681
C        1.66983190       0.07810114       0.25215347
N        0.90705830      -0.71033193       0.93875665
C       -1.02803983      -0.47779290      -0.05972349
C       -0.84636510       0.94095745      -0.40008288
O        0.34009890       0.37690093      -0.94136000
H        1.15366538      -1.68478157       0.82248898
H       -1.43270254      -1.11429824      -0.84196888
H       -1.38757808      -0.73670524       0.92604458
H       -0.71036279       1.62185291       0.43692786
H       -1.47340467       1.35801212      -1.18374309
11
Frame=10 idx=005456 GeodesicLength=0.8617717556331121 rxn_smarts="[O:1]=[C:2]1[N:3]([H:7])[C:4]([H:8])([H:9])[C:5]([H:10])([H:11])[O:6]1>>[C:4]1([H:8])([H:9])[C:5]([H:10])([H:11])[O:6]1.[O:1]=[C:2]=[N:3][H:7]"
O        2.83846189       0.34475388       0.08619429
C        1.69532168       0.08793755       0.26928011
N        0.91627678      -0.70313073       0.93493111
C       -1.01453250      -0.48215953      -0.04926458
C       -0.85007741       0.93763925      -0.40401560
O        0.33579233       0.37405235      -0.94597237
H        1.11236172      -1.67923711       0.75198695
H       -1.43769748      -1.12532851      -0.81707208
H       -1.39222058      -0.72106158       0.93591555
H       -0.71724592       1.62734108       0.42609567
H       -1.48644051       1.33919336      -1.18807905
11
Frame=11 idx=005456 GeodesicLength=0.9529401301940731 rxn_smarts="[O:1]=[C:2]1[N:3]([H:7])[C:4]([H:8])([H:9])[C:5]([H:10])([H:11])[O:6]1>>[C:4]1([H:8])([H:9])[C:5]([H:10])([H:11])[O:6]1.[O:1]=[C:2]=[N:3][H:7]"
O        2.86877608       0.34100014       0.12423467
C        1.72081217       0.09569572       0.28545560
N        0.92536162      -0.69814397       0.92869043
C       -1.00199962      -0.48616422      -0.03925691
C       -0.85400852       0.93437666      -0.40800442
O        0.33042057       0.37062144      -0.95179536
H        1.07448109      -1.66945209       0.68410890
H       -1.44388388      -1.13563392      -0.79207660
H       -1.39673111      -0.70565635       0.94494784
H       -0.72323829       1.63241346       0.41528055
H       -1.49999010       1.32094313      -1.19158469
11
Frame=12 idx=005456 GeodesicLength=1.0444413341406384 rxn_smarts="[O:1]=[C:2]1[N:3]([H:7])[C:4]([H:8])([H:9])[C:5]([H:10])([H:11])[O:6]1>>[C:4]1([H:8])([H:9])[C:5]([H:10])([H:11])[O:6]1.[O:1]=[C:2]=[N:3][H:7]"
O        2.89880530       0.33640021       0.16442509
C        1.74639909       0.10155308       0.30067234
N        0.93429334      -0.69469789       0.92032937
C       -0.99030831      -0.48982597      -0.02973171
C       -0.85828413       0.93122321      -0.41205614
O        0.32393171       0.36683032      -0.95882783
H        1.03991169      -1.65605692       0.61884674
H       -1.45088952      -1.14531649      -0.76704456
H       -1.40103759      -0.69053968       0.95317100
H       -0.72856741       1.63718180       0.40446519
H       -1.51425417       1.30324834      -1.19424949
11
Frame=13 idx=005456 GeodesicLength=1.1361732345359508 rxn_smarts="[O:1]=[C:2]1[N:3]([H:7])[C:4]([H:8])([H:9])[C:5]([H:10])([H:11])[O:6]1>>[C:4]1([H:8])([H:9])[C:5]([H:10])([H:11])[O:6]1.[O:1]=[C:2]=[N:3][H:7]"
O        2.92857688       0.33065179       0.20668117
C        1.77219446       0.10566490       0.31490789
N        0.94308515      -0.69224068       0.91007827
C       -0.97932873      -0.49315717      -0.02069346
C       -0.86299931       0.92820895      -0.41618093
O        0.31627791       0.36284053      -0.96707595
H        1.00844951      -1.63956574       0.55608825
H       -1.45839785      -1.15447651      -0.74199054
H       -1.40506620      -0.67572568       0.96063662
H       -0.73339898       1.64173619       0.39360955
H       -1.52939283       1.28606343      -1.19606087
11
Frame=14 idx=005456 GeodesicLength=1.228060155866339 rxn_smarts="[O:1]=[C:2]1[N:3]([H:7])[C:4]([H:8])([H:9])[C:5]([H:10])([H:11])[O:6]1>>[C:4]1([H:8])([H:9])[C:5]([H:10])([H:11])[O:6]1.[O:1]=[C:2]=[N:3][H:7]"
O        2.95808733       0.32351175       0.25097771
C        1.79832348       0.10814779       0.32811861
N        0.95176860      -0.69029920       0.89811850
C       -0.96893536      -0.49616949      -0.01214015
C       -0.86823088       0.92535344      -0.42038693
O        0.30740936       0.35877785      -0.97655612
H        0.97985263      -1.62037238       0.49571530
H       -1.46612711      -1.16321214      -0.71692190
H       -1.40874763      -0.66122616       0.96739838
H       -0.73786036       1.64614958       0.38267379
H       -1.54554006       1.26933894      -1.19699719
11
Frame=15 idx=005456 GeodesicLength=1.3200420634897672 rxn_smarts="[O:1]=[C:2]1[N:3]([H:7])[C:4]([H:8])([H:9])[C:5]([H:10])([H:11])[O:6]1>>[C:4]1([H:8])([H:9])[C:5]([H:10])([H:11])[O:6]1.[O:1]=[C:2]=[N:3][H:7]"
O        2.98729397       0.31479530       0.29733245
C        1.82492707       0.10907569       0.34023654
N        0.96038188      -0.68846198       0.88459194
C       -0.95900972      -0.49887171      -0.00406779
C       -0.87404103       0.92266884      -0.42467978
O        0.29727121       0.35473581      -0.98729285
H        0.95387171      -1.59878597       0.43762701
H       -1.47382459      -1.17161620      -0.69184482
H       -1.41201977      -0.64704965       0.97350454
H       -0.74204347       1.65048131       0.37161860
H       -1.56280724       1.25302857      -1.19702583
11
Frame=16 idx=005456 GeodesicLength=1.4120663112053562 rxn_smarts="[O:1]=[C:2]1[N:3]([H:7])[C:4]([H:8])([H:9])[C:5]([H:10])([H:11])[O:6]1>>[C:4]1([H:8])([H:9])[C:5]([H:10])([H:11])[O:6]1.[O:1]=[C:2]=[N:3][H:7]"
O        3.01611267       0.30437251       0.34580704
C        1.85216436       0.10846841       0.35115266
N        0.96896791      -0.68635404       0.86960503
C       -0.94944083      -0.50127035       0.00352532
C       -0.88047980       0.92016318      -0.42906245
O        0.28579996       0.35078054      -0.99932158
H        0.93026132      -1.57505208       0.38176062
H       -1.48126207      -1.17977519      -0.66677051
H       -1.41482674      -0.63320769       0.97899603
H       -0.74600827       1.65477910       0.36040711
H       -1.58128851       1.23709561      -1.19609926
