12
Frame=0 idx=002993 GeodesicLength=0.0 rxn_smarts="[C:1]([C:2]([C:3]([H:10])([H:11])[H:12])([C:4]#[N:5])[H:9])([H:6])([H:7])[H:8]>>[C:1]([C@@:2]1([H:9])[C:3]([H:10])([H:12])/[C:4]1=[N:5]\[H:11])([H:6])([H:7])[H:8]"
C        1.20140002      -0.92453333       0.18649831
C        0.17238623      -0.08759249      -0.54138207
C       -1.27221955       0.02147900       0.10225562
C        0.00943948       1.27949304      -0.19213455
N       -0.10177898       2.44686470       0.11602730
H        0.95178098      -1.98057642       0.07429795
H        2.20301059      -0.75939576      -0.21208104
H        1.21056926      -0.68511507       1.25067301
H        0.13909612      -0.26787656      -1.61452256
H       -1.33076489      -0.51583647       1.04409164
H       -1.11669182       1.66886373       0.39029110
H       -2.06622744      -0.19577441      -0.60401474
12
Frame=1 idx=002993 GeodesicLength=0.07717855152761763 rxn_smarts="[C:1]([C:2]([C:3]([H:10])([H:11])[H:12])([C:4]#[N:5])[H:9])([H:6])([H:7])[H:8]>>[C:1]([C@@:2]1([H:9])[C:3]([H:10])([H:12])/[C:4]1=[N:5]\[H:11])([H:6])([H:7])[H:8]"
C        1.20236409      -0.92098769       0.18810535
C        0.16958052      -0.09333476      -0.54523644
C       -1.27072213       0.02353719       0.09932248
C        0.01354902       1.27989969      -0.20920120
N       -0.09251736       2.44096539       0.12201480
H        0.95520577      -1.97872764       0.08684500
H        2.20229902      -0.75606371      -0.21474601
H        1.21452621      -0.67133393       1.24994072
H        0.13536608      -0.28150468      -1.61690490
H       -1.33762721      -0.52721031       1.03283099
H       -1.12395240       1.66356875       0.41497989
H       -2.06807159      -0.17880831      -0.60795067
12
Frame=2 idx=002993 GeodesicLength=0.15438622009880956 rxn_smarts="[C:1]([C:2]([C:3]([H:10])([H:11])[H:12])([C:4]#[N:5])[H:9])([H:6])([H:7])[H:8]>>[C:1]([C@@:2]1([H:9])[C:3]([H:10])([H:12])/[C:4]1=[N:5]\[H:11])([H:6])([H:7])[H:8]"
C        1.20329372      -0.91739218       0.18971640
C        0.16684020      -0.09893780      -0.54897515
C       -1.26914805       0.02575286       0.09649229
C        0.01779167       1.28034393      -0.22625114
N       -0.08337458       2.43480362       0.12741806
H        0.95853225      -1.97669434       0.09935055
H        2.20156256      -0.75279561      -0.21738377
H        1.21841164      -0.65756478       1.24912152
H        0.13161401      -0.29506905      -1.61910069
H       -1.34466109      -0.53863523       1.02120172
H       -1.13123728       1.65791864       0.44011376
H       -2.06962505      -0.16173006      -0.61170355
12
Frame=3 idx=002993 GeodesicLength=0.23154182236051996 rxn_smarts="[C:1]([C:2]([C:3]([H:10])([H:11])[H:12])([C:4]#[N:5])[H:9])([H:6])([H:7])[H:8]>>[C:1]([C@@:2]1([H:9])[C:3]([H:10])([H:12])/[C:4]1=[N:5]\[H:11])([H:6])([H:7])[H:8]"
C        1.20419312      -0.91376289       0.19132393
C        0.16418376      -0.10440059      -0.55258790
C       -1.26747033       0.02815213       0.09377730
C        0.02221823       1.28081012      -0.24326184
N       -0.07446448       2.42834877       0.13221459
H        0.96174915      -1.97447729       0.11181082
H        2.20080421      -0.74964038      -0.22000503
H        1.22223989      -0.64382701       1.24819680
H        0.12786033      -0.30855676      -1.62108471
H       -1.35185058      -0.55005722       1.00918307
H       -1.13860706       1.65192350       0.46568370
H       -2.07085625      -0.14451238      -0.61525073
12
Frame=4 idx=002993 GeodesicLength=0.30872727916619525 rxn_smarts="[C:1]([C:2]([C:3]([H:10])([H:11])[H:12])([C:4]#[N:5])[H:9])([H:6])([H:7])[H:8]>>[C:1]([C@@:2]1([H:9])[C:3]([H:10])([H:12])/[C:4]1=[N:5]\[H:11])([H:6])([H:7])[H:8]"
C        1.20506911      -0.91010879       0.19293930
C        0.16161234      -0.10973136      -0.55609092
C       -1.26568239       0.03074441       0.09116742
C        0.02686848       1.28129837      -0.26026888
N       -0.06585149       2.42169127       0.13634417
H        0.96484984      -1.97209568       0.12425422
H        2.20003386      -0.74661596      -0.22260062
H        1.22603331      -0.63011885       1.24718303
H        0.12409020      -0.32198595      -1.62287736
H       -1.35919955      -0.56147788       0.99674092
H       -1.14605208       1.64551965       0.49182713
H       -2.07177161      -0.12711924      -0.61861841
12
Frame=5 idx=002993 GeodesicLength=0.38593406743613967 rxn_smarts="[C:1]([C:2]([C:3]([H:10])([H:11])[H:12])([C:4]#[N:5])[H:9])([H:6])([H:7])[H:8]>>[C:1]([C@@:2]1([H:9])[C:3]([H:10])([H:12])/[C:4]1=[N:5]\[H:11])([H:6])([H:7])[H:8]"
C        1.20592200      -0.90645099       0.19455284
C        0.15914570      -0.11492812      -0.55947979
C       -1.26375407       0.03355006       0.08868450
C        0.03180022       1.28180258      -0.27725635
N       -0.05761925       2.41484899       0.13980943
H        0.96781669      -1.96956456       0.13665563
H        2.19925440      -0.74376384      -0.22518217
H        1.22979390      -0.61647643       1.24607505
H        0.12032736      -0.33534180      -1.62447341
H       -1.36668833      -0.57282674       0.98389132
H       -1.15366676       1.63872272       0.51850220
H       -2.07233187      -0.10957187      -0.62177925
12
Frame=6 idx=002993 GeodesicLength=0.46314683586575817 rxn_smarts="[C:1]([C:2]([C:3]([H:10])([H:11])[H:12])([C:4]#[N:5])[H:9])([H:6])([H:7])[H:8]>>[C:1]([C@@:2]1([H:9])[C:3]([H:10])([H:12])/[C:4]1=[N:5]\[H:11])([H:6])([H:7])[H:8]"
C        1.20676117      -0.90280391       0.19616757
C        0.15679145      -0.11999114      -0.56276297
C       -1.26166965       0.03658534       0.08633099
C        0.03706404       1.28232885      -0.29424979
N       -0.04983797       2.40783779       0.14262302
H        0.97063758      -1.96690342       0.14903080
H        2.19847745      -0.74111662      -0.22775457
H        1.23355528      -0.60290876       1.24487975
H        0.11656304      -0.34862536      -1.62588323
H       -1.37430514      -0.58406700       0.97062597
H       -1.16150411       1.63152601       0.54572868
H       -2.07253315      -0.09186178      -0.62473620
12
Frame=7 idx=002993 GeodesicLength=0.5404039110399204 rxn_smarts="[C:1]([C:2]([C:3]([H:10])([H:11])[H:12])([C:4]#[N:5])[H:9])([H:6])([H:7])[H:8]>>[C:1]([C@@:2]1([H:9])[C:3]([H:10])([H:12])/[C:4]1=[N:5]\[H:11])([H:6])([H:7])[H:8]"
C        1.20759357      -0.89917098       0.19778396
C        0.15455758      -0.12492511      -0.56595273
C       -1.25941564       0.03986884       0.08410511
C        0.04270267       1.28287136      -0.31129234
N       -0.04255745       2.40066194       0.14479415
H        0.97330000      -1.96411443       0.16140275
H        2.19771367      -0.73870264      -0.23032643
H        1.23733823      -0.58940317       1.24359598
H        0.11279734      -0.36185364      -1.62711639
H       -1.38205266      -0.59515518       0.95692794
H       -1.16961111       1.62389698       0.57357367
H       -2.07236619      -0.07397396      -0.62749568
12
Frame=8 idx=002993 GeodesicLength=0.6174699516262052 rxn_smarts="[C:1]([C:2]([C:3]([H:10])([H:11])[H:12])([C:4]#[N:5])[H:9])([H:6])([H:7])[H:8]>>[C:1]([C@@:2]1([H:9])[C:3]([H:10])([H:12])/[C:4]1=[N:5]\[H:11])([H:6])([H:7])[H:8]"
C        1.20841633      -0.89558125       0.19938610
C        0.15246300      -0.12972318      -0.56902869
C       -1.25694235       0.04343713       0.08203740
C        0.04877595       1.28342716      -0.32836152
N       -0.03591465       2.39325545       0.14637686
H        0.97579695      -1.96121201       0.17372788
H        2.19694726      -0.73657523      -0.23290735
H        1.24115044      -0.57601010       1.24219572
H        0.10904506      -0.37500796      -1.62813165
H       -1.38986383      -0.60598115       0.94281623
H       -1.17810714       1.61589259       0.60190053
H       -2.07176702      -0.05592145      -0.63001152
12
Frame=9 idx=002993 GeodesicLength=0.6946316201085233 rxn_smarts="[C:1]([C:2]([C:3]([H:10])([H:11])[H:12])([C:4]#[N:5])[H:9])([H:6])([H:7])[H:8]>>[C:1]([C@@:2]1([H:9])[C:3]([H:10])([H:12])/[C:4]1=[N:5]\[H:11])([H:6])([H:7])[H:8]"
C        1.20924176      -0.89201700       0.20099180
C        0.15050256      -0.13439777      -0.57202977
C       -1.25426427       0.04729824       0.08010196
C        0.05531297       1.28399100      -0.34556290
N       -0.02987729       2.38572967       0.14732811
H        0.97811017      -1.95819164       0.18608826
H        2.19620417      -0.73474060      -0.23550031
H        1.24502440      -0.56266357       1.24070070
H        0.10528425      -0.38814042      -1.62897719
H       -1.39779522      -0.61656992       0.92823529
H       -1.18697427       1.60736042       0.63095826
H       -2.07076923      -0.03765840      -0.63233422
12
Frame=10 idx=002993 GeodesicLength=0.7717544876679927 rxn_smarts="[C:1]([C:2]([C:3]([H:10])([H:11])[H:12])([C:4]#[N:5])[H:9])([H:6])([H:7])[H:8]>>[C:1]([C@@:2]1([H:9])[C:3]([H:10])([H:12])/[C:4]1=[N:5]\[H:11])([H:6])([H:7])[H:8]"
C        1.21007259      -0.88847282       0.20260001
C        0.14868478      -0.13894855      -0.57495944
C       -1.25136017       0.05147618       0.07828686
C        0.06234751       1.28455837      -0.36293701
N       -0.02454699       2.37797125       0.14766774
H        0.98022447      -1.95503251       0.19854632
H        2.19547411      -0.73324540      -0.23813025
H        1.24899987      -0.54930516       1.23908031
H        0.10151361      -0.40127365      -1.62963479
H       -1.40584229      -0.62687618       0.91312656
H       -1.19621935       1.59827381       0.66083305
H       -2.06934814      -0.01912532      -0.63447937
12
Frame=11 idx=002993 GeodesicLength=0.8489083594092497 rxn_smarts="[C:1]([C:2]([C:3]([H:10])([H:11])[H:12])([C:4]#[N:5])[H:9])([H:6])([H:7])[H:8]>>[C:1]([C@@:2]1([H:9])[C:3]([H:10])([H:12])/[C:4]1=[N:5]\[H:11])([H:6])([H:7])[H:8]"
C        1.21091789      -0.88494084       0.20422510
C        0.14700898      -0.14337797      -0.57784101
C       -1.24823398       0.05598229       0.07658672
C        0.06992823       1.28513878      -0.38054811
N       -0.01994643       2.37002824       0.14739471
H        0.98211553      -1.95173585       0.21118146
H        2.19477092      -0.73211258      -0.24081646
H        1.25312868      -0.53587321       1.23734742
H        0.09770669      -0.41444098      -1.63013783
H       -1.41403908      -0.63691431       0.89743395
H       -1.20583505       1.58851848       0.69164675
H       -2.06752238      -0.00027204      -0.63647268
12
Frame=12 idx=002993 GeodesicLength=0.926073823729107 rxn_smarts="[C:1]([C:2]([C:3]([H:10])([H:11])[H:12])([C:4]#[N:5])[H:9])([H:6])([H:7])[H:8]>>[C:1]([C@@:2]1([H:9])[C:3]([H:10])([H:12])/[C:4]1=[N:5]\[H:11])([H:6])([H:7])[H:8]"
C        1.21176074      -0.88140555       0.20585910
C        0.14548378      -0.14769582      -0.58066775
C       -1.24483571       0.06086997       0.07498388
C        0.07805068       1.28568636      -0.39844754
N       -0.01620601       2.36184542       0.14644113
H        0.98378473      -1.94824907       0.22404876
H        2.19404407      -0.73140305      -0.24356315
H        1.25739042      -0.52229289       1.23542097
H        0.09388877      -0.42769616      -1.63040770
H       -1.42238209      -0.64662032       0.88104018
H       -1.21578455       1.57794548       0.72360396
H       -2.06519484       0.01901562      -0.63831183
12
Frame=13 idx=002993 GeodesicLength=1.0032634522341408 rxn_smarts="[C:1]([C:2]([C:3]([H:10])([H:11])[H:12])([C:4]#[N:5])[H:9])([H:6])([H:7])[H:8]>>[C:1]([C@@:2]1([H:9])[C:3]([H:10])([H:12])/[C:4]1=[N:5]\[H:11])([H:6])([H:7])[H:8]"
C        1.21262772      -0.87788219       0.20751008
C        0.14411474      -0.15188012      -0.58345190
C       -1.24117716       0.06613599       0.07350738
C        0.08681122       1.28623541      -0.41664140
N       -0.01331523       2.35341892       0.14486172
H        0.98519707      -1.94459779       0.23716417
H        2.19334326      -0.73114087      -0.24639223
H        1.26187650      -0.50859216       1.23334537
H        0.09001963      -0.44099324      -1.63050235
H       -1.43086993      -0.65595172       0.86400048
H       -1.22621083       1.56655335       0.75659571
H       -2.06241697       0.03869440      -0.63999701
12
Frame=14 idx=002993 GeodesicLength=1.080482290897624 rxn_smarts="[C:1]([C:2]([C:3]([H:10])([H:11])[H:12])([C:4]#[N:5])[H:9])([H:6])([H:7])[H:8]>>[C:1]([C@@:2]1([H:9])[C:3]([H:10])([H:12])/[C:4]1=[N:5]\[H:11])([H:6])([H:7])[H:8]"
C        1.21351607      -0.87437180       0.20917089
C        0.14291056      -0.15592326      -0.58618728
C       -1.23722592       0.07180800       0.07217120
C        0.09624448       1.28677780      -0.43514620
N       -0.01132016       2.34472031       0.14264391
H        0.98633780      -1.94076524       0.25054274
H        2.19265140      -0.73136960      -0.24931722
H        1.26660458      -0.49475591       1.23108682
H        0.08610199      -0.45433434      -1.63039244
H       -1.43948675      -0.66482313       0.84629812
H       -1.23719867       1.55424903       0.79064682
H       -2.05913538       0.05878814      -0.64151735
12
Frame=15 idx=002993 GeodesicLength=1.1577030919524995 rxn_smarts="[C:1]([C:2]([C:3]([H:10])([H:11])[H:12])([C:4]#[N:5])[H:9])([H:6])([H:7])[H:8]>>[C:1]([C@@:2]1([H:9])[C:3]([H:10])([H:12])/[C:4]1=[N:5]\[H:11])([H:6])([H:7])[H:8]"
C        1.21443485      -0.87089314       0.21082923
C        0.14188034      -0.15980582      -0.58886021
C       -1.23295519       0.07790714       0.07101594
C        0.10640425       1.28731231      -0.45393833
N       -0.01021668       2.33572468       0.13981209
H        0.98719656      -1.93675794       0.26414485
H        2.19197337      -0.73212675      -0.25234969
H        1.27161314      -0.48083489       1.22863314
H        0.08212510      -0.46767496      -1.63006184
H       -1.44818702      -0.67313130       0.82799289
H       -1.24895082       1.54102582       0.82561893
H       -2.05531791       0.07925484      -0.64283702
12
Frame=16 idx=002993 GeodesicLength=1.234922756618797 rxn_smarts="[C:1]([C:2]([C:3]([H:10])([H:11])[H:12])([C:4]#[N:5])[H:9])([H:6])([H:7])[H:8]>>[C:1]([C@@:2]1([H:9])[C:3]([H:10])([H:12])/[C:4]1=[N:5]\[H:11])([H:6])([H:7])[H:8]"
C        1.21539147      -0.86746150       0.21247250
C        0.14103025      -0.16350875      -0.59145746
C       -1.22834076       0.08444766       0.07008149
C        0.11733309       1.28783947      -0.47299526
N       -0.00996682       2.32641274       0.13637759
H        0.98776693      -1.93258221       0.27792957
H        2.19131007      -0.73343873      -0.25550154
H        1.27693583      -0.46687671       1.22597334
H        0.07807816      -0.48097068      -1.62949602
H       -1.45692647      -0.68077373       0.80915724
H       -1.26167622       1.52686163       0.86138713
H       -2.05093553       0.10005079      -0.64392857
