11
Frame=0 idx=001456 GeodesicLength=0.0 rxn_smarts="[O:1]([C@@:2]1([H:8])[C:3]([H:9])([H:10])[N:4]([H:11])[C:5]1=[O:6])[H:7]>>[O:1]([C:2]1=[C:5]([O:6][H:8])[N:4]([H:11])[C:3]1([H:9])[H:10])[H:7]"
O        0.64389180       1.60134013      -0.96099092
C        0.19560743       0.66079423      -0.04926536
C       -1.11879285      -0.12094133      -0.26402240
N       -0.32245880      -1.37419168      -0.04321115
C        0.78045631      -0.62856791       0.17112577
O        1.85653012      -0.77048748       0.84277163
H        0.69400513       2.45005167      -0.52259032
H        1.29356147       0.38352284       1.05764759
H       -1.89985150       0.00711591       0.48653109
H       -1.52788461      -0.06637153      -1.27271226
H       -0.59506445      -2.14226481       0.55471636
11
Frame=1 idx=001456 GeodesicLength=0.054465990958438945 rxn_smarts="[O:1]([C@@:2]1([H:8])[C:3]([H:9])([H:10])[N:4]([H:11])[C:5]1=[O:6])[H:7]>>[O:1]([C:2]1=[C:5]([O:6][H:8])[N:4]([H:11])[C:3]1([H:9])[H:10])[H:7]"
O        0.61176492       1.60869065      -0.96730203
C        0.18600774       0.66032561      -0.05433748
C       -1.12465688      -0.12780122      -0.26207233
N       -0.32062643      -1.37616824      -0.04876723
C        0.78265122      -0.62560962       0.15920801
O        1.85151039      -0.75346900       0.84502010
H        0.76798296       2.43502174      -0.51169123
H        1.27668404       0.40545289       1.06703105
H       -1.90205037      -0.00339012       0.49294422
H       -1.54188817      -0.07578772      -1.26768287
H       -0.58737942      -2.14726497       0.54764980
11
Frame=2 idx=001456 GeodesicLength=0.1088219135726797 rxn_smarts="[O:1]([C@@:2]1([H:8])[C:3]([H:9])([H:10])[N:4]([H:11])[C:5]1=[O:6])[H:7]>>[O:1]([C:2]1=[C:5]([O:6][H:8])[N:4]([H:11])[C:3]1([H:9])[H:10])[H:7]"
O        0.57883638       1.61885344      -0.96901035
C        0.17618392       0.66056167      -0.05734722
C       -1.13032946      -0.13418006      -0.25959896
N       -0.31827728      -1.37761366      -0.05529620
C        0.78504559      -0.62199455       0.14736156
O        1.84624710      -0.73639707       0.84733755
H        0.84191126       2.41442780      -0.50806236
H        1.25897649       0.42698194       1.07826297
H       -1.90425864      -0.01464020       0.49983566
H       -1.55532530      -0.08352320      -1.26215810
H       -0.57901005      -2.15247611       0.53867545
11
Frame=3 idx=001456 GeodesicLength=0.1628907023292645 rxn_smarts="[O:1]([C@@:2]1([H:8])[C:3]([H:9])([H:10])[N:4]([H:11])[C:5]1=[O:6])[H:7]>>[O:1]([C:2]1=[C:5]([O:6][H:8])[N:4]([H:11])[C:3]1([H:9])[H:10])[H:7]"
O        0.54556177       1.63091078      -0.96605081
C        0.16604660       0.66178274      -0.05747609
C       -1.13584744      -0.13990150      -0.25603455
N       -0.31512147      -1.37822239      -0.06369873
C        0.78752633      -0.61732461       0.13651085
O        1.84025812      -0.71917586       0.85114480
H        0.91568341       2.38808544      -0.51437230
H        1.24046072       0.44847229       1.09203479
H       -1.90637421      -0.02736122       0.50794794
H       -1.56853313      -0.08862128      -1.25537275
H       -0.56966069      -2.15864438       0.52536686
11
Frame=4 idx=001456 GeodesicLength=0.21727067770868042 rxn_smarts="[O:1]([C@@:2]1([H:8])[C:3]([H:9])([H:10])[N:4]([H:11])[C:5]1=[O:6])[H:7]>>[O:1]([C:2]1=[C:5]([O:6][H:8])[N:4]([H:11])[C:3]1([H:9])[H:10])[H:7]"
O        0.51052268       1.64697340      -0.95698045
C        0.15518413       0.66388366      -0.05518926
C       -1.14133548      -0.14535552      -0.25212555
N       -0.31134416      -1.37814159      -0.07304254
C        0.79008522      -0.61152002       0.12584794
O        1.83414393      -0.70131958       0.85481829
H        0.99099482       2.35404152      -0.52886996
H        1.22108586       0.46993408       1.10772411
H       -1.90892292      -0.04141410       0.51605465
H       -1.58102868      -0.09228404      -1.24842592
H       -0.55938541      -2.16479780       0.51018868
11
Frame=5 idx=001456 GeodesicLength=0.2717403074145661 rxn_smarts="[O:1]([C@@:2]1([H:8])[C:3]([H:9])([H:10])[N:4]([H:11])[C:5]1=[O:6])[H:7]>>[O:1]([C:2]1=[C:5]([O:6][H:8])[N:4]([H:11])[C:3]1([H:9])[H:10])[H:7]"
O        0.47492334       1.66704767      -0.94093103
C        0.14414348       0.66676980      -0.05024232
C       -1.14647406      -0.15022096      -0.24783368
N       -0.30684714      -1.37722295      -0.08363533
C        0.79294293      -0.60474242       0.11573776
O        1.82765938      -0.68350956       0.85937957
H        1.06474902       2.31206550      -0.55366622
H        1.20119829       0.49107241       1.12572919
H       -1.91150859      -0.05660729       0.52427350
H       -1.59248471      -0.09365313      -1.24125040
H       -0.54830194      -2.17099906       0.49243897
11
Frame=6 idx=001456 GeodesicLength=0.3257137963826758 rxn_smarts="[O:1]([C@@:2]1([H:8])[C:3]([H:9])([H:10])[N:4]([H:11])[C:5]1=[O:6])[H:7]>>[O:1]([C:2]1=[C:5]([O:6][H:8])[N:4]([H:11])[C:3]1([H:9])[H:10])[H:7]"
O        0.44120832       1.68970095      -0.91795331
C        0.13399932       0.66999222      -0.04251089
C       -1.15065210      -0.15408215      -0.24322194
N       -0.30181647      -1.37543583      -0.09539238
C        0.79629008      -0.59768377       0.10676213
O        1.82056090      -0.66725609       0.86586179
H        1.13096504       2.26440179      -0.58960901
H        1.18218101       0.51145858       1.14585524
H       -1.91353637      -0.07197557       0.53234423
H       -1.60200468      -0.09196781      -1.23399752
H       -0.53719507      -2.17715233       0.47186164
11
Frame=7 idx=001456 GeodesicLength=0.3794106968565731 rxn_smarts="[O:1]([C@@:2]1([H:8])[C:3]([H:9])([H:10])[N:4]([H:11])[C:5]1=[O:6])[H:7]>>[O:1]([C:2]1=[C:5]([O:6][H:8])[N:4]([H:11])[C:3]1([H:9])[H:10])[H:7]"
O        0.41001434       1.71513834      -0.88731777
C        0.12491637       0.67337162      -0.03201682
C       -1.15375740      -0.15694270      -0.23871090
N       -0.29637837      -1.37286677      -0.10784604
C        0.80020702      -0.59056977       0.09892913
O        1.81323758      -0.65292656       0.87390220
H        1.18772233       2.21122574      -0.63637175
H        1.16472138       0.53098504       1.16779844
H       -1.91525739      -0.08714781       0.53946393
H       -1.60899610      -0.08739764      -1.22733144
H       -0.52642977      -2.18286949       0.44950101
11
Frame=8 idx=001456 GeodesicLength=0.43263289561707347 rxn_smarts="[O:1]([C@@:2]1([H:8])[C:3]([H:9])([H:10])[N:4]([H:11])[C:5]1=[O:6])[H:7]>>[O:1]([C:2]1=[C:5]([O:6][H:8])[N:4]([H:11])[C:3]1([H:9])[H:10])[H:7]"
O        0.38391559       1.74145208      -0.85101073
C        0.11774694       0.67633757      -0.01991050
C       -1.15543881      -0.15865781      -0.23463761
N       -0.29088356      -1.36977934      -0.12038935
C        0.80486177      -0.58419894       0.09210416
O        1.80573767      -0.64136864       0.88351094
H        1.23058280       2.15573202      -0.69067877
H        1.14956952       0.54946149       1.19066410
H       -1.91617986      -0.10091938       0.54530743
H       -1.61315277      -0.08022911      -1.22155781
H       -0.51675930      -2.18782995       0.42659815
11
Frame=9 idx=001456 GeodesicLength=0.485173303297069 rxn_smarts="[O:1]([C@@:2]1([H:8])[C:3]([H:9])([H:10])[N:4]([H:11])[C:5]1=[O:6])[H:7]>>[O:1]([C:2]1=[C:5]([O:6][H:8])[N:4]([H:11])[C:3]1([H:9])[H:10])[H:7]"
O        0.36430365       1.76579443      -0.81214601
C        0.11324228       0.67844697      -0.00663434
C       -1.15538795      -0.15915998      -0.23096798
N       -0.28550490      -1.36645281      -0.13286239
C        0.81036342      -0.57930736       0.08654660
O        1.79763598      -0.63367425       0.89548239
H        1.25710096       2.10284955      -0.75018946
H        1.13743030       0.56677202       1.21404814
H       -1.91591602      -0.11251749       0.54996887
H       -1.61436578      -0.07059816      -1.21653659
H       -0.50890195      -2.19215292       0.40329077
11
Frame=10 idx=001456 GeodesicLength=0.5379526920278019 rxn_smarts="[O:1]([C@@:2]1([H:8])[C:3]([H:9])([H:10])[N:4]([H:11])[C:5]1=[O:6])[H:7]>>[O:1]([C:2]1=[C:5]([O:6][H:8])[N:4]([H:11])[C:3]1([H:9])[H:10])[H:7]"
O        0.35066304       1.78892750      -0.77083028
C        0.11070039       0.68013725       0.00767916
C       -1.15398569      -0.15858215      -0.22764292
N       -0.28000773      -1.36273732      -0.14551751
C        0.81662064      -0.57528344       0.08213930
O        1.78902346      -0.62859531       0.90949577
H        1.26986139       2.05008166      -0.81448738
H        1.12719982       0.58345258       1.23837618
H       -1.91475245      -0.12267327       0.55370052
H       -1.61322715      -0.05874424      -1.21211479
H       -0.50209571      -2.19598326       0.37920193
11
Frame=11 idx=001456 GeodesicLength=0.5905128629355266 rxn_smarts="[O:1]([C@@:2]1([H:8])[C:3]([H:9])([H:10])[N:4]([H:11])[C:5]1=[O:6])[H:7]>>[O:1]([C:2]1=[C:5]([O:6][H:8])[N:4]([H:11])[C:3]1([H:9])[H:10])[H:7]"
O        0.34340021       1.80841277      -0.73078413
C        0.11066824       0.68074911       0.02174686
C       -1.15115193      -0.15719386      -0.22484556
N       -0.27488148      -1.35913660      -0.15744051
C        0.82365769      -0.57294458       0.07831735
O        1.77991921      -0.62662124       0.92489924
H        1.26865591       2.00276029      -0.87839710
H        1.11921791       0.59921092       1.26255789
H       -1.91244048      -0.13025356       0.55635058
H       -1.60995457      -0.04578888      -1.20838276
H       -0.49709071      -2.19919436       0.35597815
11
Frame=12 idx=001456 GeodesicLength=0.6439547821138605 rxn_smarts="[O:1]([C@@:2]1([H:8])[C:3]([H:9])([H:10])[N:4]([H:11])[C:5]1=[O:6])[H:7]>>[O:1]([C:2]1=[C:5]([O:6][H:8])[N:4]([H:11])[C:3]1([H:9])[H:10])[H:7]"
O        0.34215784       1.82563428      -0.69146526
C        0.11219766       0.68129750       0.03619919
C       -1.14721168      -0.15483707      -0.22184963
N       -0.26924103      -1.35489485      -0.17029326
C        0.83136715      -0.57102331       0.07585713
O        1.76928140      -0.62630837       0.94329978
H        1.25617612       1.95494584      -0.94494305
H        1.11179785       0.61534981       1.28782939
H       -1.90873251      -0.13703841       0.55940244
H       -1.60554890      -0.03074190      -1.20416187
H       -0.49224391      -2.20238354       0.33012515
11
Frame=13 idx=001456 GeodesicLength=0.6979473803778922 rxn_smarts="[O:1]([C@@:2]1([H:8])[C:3]([H:9])([H:10])[N:4]([H:11])[C:5]1=[O:6])[H:7]>>[O:1]([C:2]1=[C:5]([O:6][H:8])[N:4]([H:11])[C:3]1([H:9])[H:10])[H:7]"
O        0.34663326       1.83949110      -0.65548046
C        0.11530304       0.68149878       0.05018891
C       -1.14236990      -0.15182163      -0.21890655
N       -0.26352281      -1.35044491      -0.18329568
C        0.83966408      -0.56993243       0.07402240
O        1.75766897      -0.62752936       0.96315077
H        1.23381900       1.90971532      -1.00941997
H        1.10504164       0.63157220       1.31331644
H       -1.90387433      -0.14249420       0.56255246
H       -1.60034154      -0.01482807      -1.19976467
H       -0.48802140      -2.20522679       0.30363634
11
Frame=14 idx=001456 GeodesicLength=0.7523553715203092 rxn_smarts="[O:1]([C@@:2]1([H:8])[C:3]([H:9])([H:10])[N:4]([H:11])[C:5]1=[O:6])[H:7]>>[O:1]([C:2]1=[C:5]([O:6][H:8])[N:4]([H:11])[C:3]1([H:9])[H:10])[H:7]"
O        0.35593434       1.85013054      -0.62228994
C        0.12016365       0.68097284       0.06362776
C       -1.13650285      -0.14838600      -0.21626526
N       -0.25785123      -1.34605402      -0.19588099
C        0.84862750      -0.56999919       0.07255683
O        1.74511653      -0.63053364       0.98406633
H        1.20202957       1.86857812      -1.07173644
H        1.09915763       0.64756516       1.33877835
H       -1.89803665      -0.14623552       0.56519238
H       -1.59381494       0.00151056      -1.19560783
H       -0.48482355      -2.20754886       0.27755882
11
Frame=15 idx=001456 GeodesicLength=0.8073452075584368 rxn_smarts="[O:1]([C@@:2]1([H:8])[C:3]([H:9])([H:10])[N:4]([H:11])[C:5]1=[O:6])[H:7]>>[O:1]([C:2]1=[C:5]([O:6][H:8])[N:4]([H:11])[C:3]1([H:9])[H:10])[H:7]"
O        0.36968409       1.85771232      -0.59278036
C        0.12636617       0.68000196       0.07636486
C       -1.12988278      -0.14459947      -0.21374203
N       -0.25212756      -1.34168474      -0.20832054
C        0.85812580      -0.57096243       0.07139937
O        1.73160102      -0.63468456       1.00576263
H        1.16275428       1.83062375      -1.13082529
H        1.09354737       0.66369368       1.36421670
H       -1.89129391      -0.14869780       0.56783258
H       -1.58656049       0.01814535      -1.19140869
H       -0.48221399      -2.20954805       0.25150078
11
Frame=16 idx=001456 GeodesicLength=0.8629148520207879 rxn_smarts="[O:1]([C@@:2]1([H:8])[C:3]([H:9])([H:10])[N:4]([H:11])[C:5]1=[O:6])[H:7]>>[O:1]([C:2]1=[C:5]([O:6][H:8])[N:4]([H:11])[C:3]1([H:9])[H:10])[H:7]"
O        0.38742847       1.86224948      -0.56794413
C        0.13350378       0.67886529       0.08820743
C       -1.12279137      -0.14056839      -0.21098276
N       -0.24624075      -1.33710988      -0.22112922
C        0.86795719      -0.57246079       0.07068795
O        1.71664367      -0.63933209       1.02848056
H        1.11826309       1.79457582      -1.18563207
H        1.08786555       0.68076389       1.38931430
H       -1.88346760      -0.15056744       0.57124559
H       -1.57947121       0.03499477      -1.18650252
H       -0.47969082      -2.21141067       0.22425487
