13
Frame=0 idx=001554 GeodesicLength=0.0 rxn_smarts="[N:1](=[C:2]1/[C:3]([H:8])([H:9])[C:4]([H:10])([H:11])[C:5]([H:12])([H:13])[O:6]1)\[H:7]>>[N:1]1([H:7])[C:2](=[O:6])[C:3]([H:8])([H:9])[C:4]([H:10])([H:11])[C:5]1([H:12])[H:13]"
N        1.59180364       0.82114598       0.90209376
C        1.11859574       0.01632865      -0.01818736
C        0.07899723      -1.03561080       0.46852276
C       -1.20140173      -0.50126554      -0.22659146
C       -0.70430830       0.88086146      -0.35884708
O        1.27600208       0.03748078      -1.28506066
H        2.23574453       1.46886692       0.44613753
H        0.34317783      -2.02790042       0.11271853
H       -0.01863870      -1.00660012       1.55005131
H       -2.09275129      -0.56040062       0.39820069
H       -1.36627797      -0.96457086      -1.19454816
H       -0.71964595       1.51238271       0.51922379
H       -0.54129717       1.35928185      -1.31371368
13
Frame=1 idx=001554 GeodesicLength=0.24370669446163912 rxn_smarts="[N:1](=[C:2]1/[C:3]([H:8])([H:9])[C:4]([H:10])([H:11])[C:5]([H:12])([H:13])[O:6]1)\[H:7]>>[N:1]1([H:7])[C:2](=[O:6])[C:3]([H:8])([H:9])[C:4]([H:10])([H:11])[C:5]1([H:12])[H:13]"
N        1.69221197       0.74818152       0.91582484
C        1.09514920       0.05770368      -0.02310258
C        0.08042274      -0.99980001       0.48409593
C       -1.20676534      -0.52216259      -0.23191379
C       -0.74827420       0.87121249      -0.39481000
O        1.27040079       0.23639719      -1.27740525
H        2.43269629       1.31694531       0.50343801
H        0.36107988      -2.00021503       0.16426168
H       -0.04162878      -0.96955474       1.56421958
H       -2.10311606      -0.59051563       0.38582302
H       -1.35933259      -1.01459262      -1.18831767
H       -0.79933314       1.52753446       0.46460167
H       -0.67351076       1.33886598      -1.36671546
13
Frame=2 idx=001554 GeodesicLength=0.48349331417705077 rxn_smarts="[N:1](=[C:2]1/[C:3]([H:8])([H:9])[C:4]([H:10])([H:11])[C:5]([H:12])([H:13])[O:6]1)\[H:7]>>[N:1]1([H:7])[C:2](=[O:6])[C:3]([H:8])([H:9])[C:4]([H:10])([H:11])[C:5]1([H:12])[H:13]"
N        1.80538595       0.65057893       0.92412577
C        1.06690337       0.12419830      -0.02190750
C        0.08656555      -0.95167054       0.50196240
C       -1.20904521      -0.54277897      -0.23822218
C       -0.80290597       0.86464224      -0.43781609
O        1.25942584       0.47294799      -1.24202967
H        2.63791183       1.10064945       0.54601141
H        0.39151621      -1.95831023       0.22431055
H       -0.06189683      -0.92056951       1.57900864
H       -2.11158995      -0.62873236       0.37189055
H       -1.33894860      -1.06751699      -1.18053911
H       -0.90729801       1.54471038       0.39896063
H       -0.81602418       1.31185131      -1.42575541
13
Frame=3 idx=001554 GeodesicLength=0.7167517872013919 rxn_smarts="[N:1](=[C:2]1/[C:3]([H:8])([H:9])[C:4]([H:10])([H:11])[C:5]([H:12])([H:13])[O:6]1)\[H:7]>>[N:1]1([H:7])[C:2](=[O:6])[C:3]([H:8])([H:9])[C:4]([H:10])([H:11])[C:5]1([H:12])[H:13]"
N        1.94420639       0.52234480       0.90122608
C        1.03280636       0.21616447       0.01171083
C        0.08658453      -0.88664636       0.53429592
C       -1.19832868      -0.56654973      -0.25560259
C       -0.86253316       0.85604244      -0.47322595
O        1.22499488       0.76411061      -1.13931212
H        2.83736894       0.81948769       0.49963257
H        0.41996236      -1.89766176       0.31081528
H       -0.10433561      -0.84427658       1.60590236
H       -2.11633613      -0.68760458       0.32237293
H       -1.27629461      -1.11863943      -1.18909015
H       -1.04694886       1.54854810       0.33976288
H       -0.94114641       1.27468033      -1.46848804
13
Frame=4 idx=001554 GeodesicLength=0.9272381666529901 rxn_smarts="[N:1](=[C:2]1/[C:3]([H:8])([H:9])[C:4]([H:10])([H:11])[C:5]([H:12])([H:13])[O:6]1)\[H:7]>>[N:1]1([H:7])[C:2](=[O:6])[C:3]([H:8])([H:9])[C:4]([H:10])([H:11])[C:5]1([H:12])[H:13]"
N        2.07679390       0.34309123       0.83865465
C        1.00053015       0.31960930       0.08752579
C        0.08748541      -0.82256867       0.57869091
C       -1.17366721      -0.58611836      -0.27210558
C       -0.91020561       0.85262286      -0.51311912
O        1.18595349       1.08784141      -0.93961806
H        2.94843676       0.53679629       0.35248551
H        0.44443499      -1.83799641       0.40886666
H       -0.14556377      -0.76958180       1.64014245
H       -2.10931059      -0.74628654       0.26788511
H       -1.18767802      -1.16078128      -1.19450716
H       -1.20313668       1.54882542       0.26640049
H       -1.01407281       1.23454655      -1.52130166
13
Frame=5 idx=001554 GeodesicLength=1.1057125021728442 rxn_smarts="[N:1](=[C:2]1/[C:3]([H:8])([H:9])[C:4]([H:10])([H:11])[C:5]([H:12])([H:13])[O:6]1)\[H:7]>>[N:1]1([H:7])[C:2](=[O:6])[C:3]([H:8])([H:9])[C:4]([H:10])([H:11])[C:5]1([H:12])[H:13]"
N        2.16730650       0.15822100       0.69021728
C        0.98805520       0.36589689       0.17351661
C        0.07550622      -0.78491740       0.63183138
C       -1.14249165      -0.59677444      -0.28423681
C       -0.91604612       0.84446956      -0.54698951
O        1.12962627       1.36308789      -0.62502954
H        2.98030992       0.40501428       0.13133138
H        0.42838821      -1.81150756       0.51598174
H       -0.19645540      -0.71045559       1.68495294
H       -2.09947050      -0.77067582       0.21165310
H       -1.10104004      -1.18791597      -1.19896251
H       -1.32803913       1.53323806       0.18979650
H       -0.98564947       1.19231909      -1.57406256
13
Frame=6 idx=001554 GeodesicLength=1.2268086263401512 rxn_smarts="[N:1](=[C:2]1/[C:3]([H:8])([H:9])[C:4]([H:10])([H:11])[C:5]([H:12])([H:13])[O:6]1)\[H:7]>>[N:1]1([H:7])[C:2](=[O:6])[C:3]([H:8])([H:9])[C:4]([H:10])([H:11])[C:5]1([H:12])[H:13]"
N        2.20787480       0.03219921       0.51020725
C        0.97664734       0.39176052       0.28079728
C        0.06012773      -0.77246551       0.68184847
C       -1.11577913      -0.59875686      -0.28480127
C       -0.88610202       0.83625080      -0.57636863
O        1.07808703       1.53041551      -0.30634030
H        2.94819605       0.37355899      -0.09513907
H        0.40917212      -1.80102824       0.59749737
H       -0.24700366      -0.69640881       1.72406060
H       -2.09257753      -0.76740093       0.17478250
H       -1.03993606      -1.20580534      -1.18455737
H       -1.40746463       1.52202577       0.09344965
H       -0.89124204       1.15565489      -1.61543649
13
Frame=7 idx=001554 GeodesicLength=1.3498423144227782 rxn_smarts="[N:1](=[C:2]1/[C:3]([H:8])([H:9])[C:4]([H:10])([H:11])[C:5]([H:12])([H:13])[O:6]1)\[H:7]>>[N:1]1([H:7])[C:2](=[O:6])[C:3]([H:8])([H:9])[C:4]([H:10])([H:11])[C:5]1([H:12])[H:13]"
N        2.20322778      -0.03058111       0.33487621
C        0.96752399       0.39844413       0.39223019
C        0.04811660      -0.77817861       0.72677567
C       -1.09331171      -0.59457732      -0.27505086
C       -0.82918765       0.83139943      -0.60091152
O        1.02214035       1.61076466      -0.02703847
H        2.86871570       0.40278901      -0.29317435
H        0.40117284      -1.80563418       0.64861183
H       -0.28822651      -0.71757072       1.75988745
H       -2.08644780      -0.73618918       0.15823761
H       -1.01032804      -1.22254286      -1.15838853
H       -1.43656572       1.52352545      -0.01967212
H       -0.76682984       1.11835131      -1.64638310
13
Frame=8 idx=001554 GeodesicLength=1.4757553869308413 rxn_smarts="[N:1](=[C:2]1/[C:3]([H:8])([H:9])[C:4]([H:10])([H:11])[C:5]([H:12])([H:13])[O:6]1)\[H:7]>>[N:1]1([H:7])[C:2](=[O:6])[C:3]([H:8])([H:9])[C:4]([H:10])([H:11])[C:5]1([H:12])[H:13]"
N        2.16829247      -0.05405919       0.17821839
C        0.96985781       0.38530322       0.48271591
C        0.03971696      -0.79290520       0.76185784
C       -1.07840730      -0.58693832      -0.26200363
C       -0.76716312       0.82624879      -0.62174171
O        0.97734215       1.63621132       0.19580479
H        2.78159234       0.47036674      -0.42977296
H        0.40166415      -1.81773864       0.67828742
H       -0.31657977      -0.74831033       1.78904163
H       -2.08249610      -0.68961144       0.15790832
H       -1.00738528      -1.23778524      -1.13104251
H       -1.43067982       1.53513741      -0.12631442
H       -0.65575448       1.07408088      -1.67295907
13
Frame=9 idx=001554 GeodesicLength=1.611450358688399 rxn_smarts="[N:1](=[C:2]1/[C:3]([H:8])([H:9])[C:4]([H:10])([H:11])[C:5]([H:12])([H:13])[O:6]1)\[H:7]>>[N:1]1([H:7])[C:2](=[O:6])[C:3]([H:8])([H:9])[C:4]([H:10])([H:11])[C:5]1([H:12])[H:13]"
N        2.10567705      -0.05448757       0.03527089
C        0.97910388       0.36131081       0.55042175
C        0.03308349      -0.80905092       0.78864963
C       -1.06485309      -0.57662251      -0.24811710
C       -0.70596096       0.81997062      -0.63953381
O        0.94242037       1.63080730       0.36956277
H        2.70378018       0.54906363      -0.51153626
H        0.40244372      -1.82985720       0.69693985
H       -0.33581126      -0.77737246       1.81219220
H       -2.07291677      -0.64004688       0.16567535
H       -1.01315914      -1.24705905      -1.10332345
H       -1.40280144       1.54550788      -0.21862507
H       -0.57100604       1.02783633      -1.69757675
13
Frame=10 idx=001554 GeodesicLength=1.7489295164426042 rxn_smarts="[N:1](=[C:2]1/[C:3]([H:8])([H:9])[C:4]([H:10])([H:11])[C:5]([H:12])([H:13])[O:6]1)\[H:7]>>[N:1]1([H:7])[C:2](=[O:6])[C:3]([H:8])([H:9])[C:4]([H:10])([H:11])[C:5]1([H:12])[H:13]"
N        2.03911941      -0.03829856      -0.08416840
C        0.99325060       0.33390269       0.60219575
C        0.02926913      -0.82523459       0.80910632
C       -1.05407451      -0.56563766      -0.23514593
C       -0.64961353       0.81483827      -0.65640324
O        0.91009941       1.61150438       0.51046536
H        2.63891508       0.62076082      -0.56211631
H        0.40797088      -1.84232690       0.70795948
H       -0.34827585      -0.80360353       1.83041417
H       -2.06395299      -0.59052171       0.17691799
H       -1.02652397      -1.25456281      -1.07718246
H       -1.36645640       1.55680454      -0.29980054
H       -0.50972727       0.98237507      -1.72224220
13
Frame=11 idx=001554 GeodesicLength=1.8887625786785858 rxn_smarts="[N:1](=[C:2]1/[C:3]([H:8])([H:9])[C:4]([H:10])([H:11])[C:5]([H:12])([H:13])[O:6]1)\[H:7]>>[N:1]1([H:7])[C:2](=[O:6])[C:3]([H:8])([H:9])[C:4]([H:10])([H:11])[C:5]1([H:12])[H:13]"
N        1.97322505      -0.00946899      -0.18294252
C        1.01055173       0.30460688       0.64084784
C        0.02805418      -0.84075529       0.82388904
C       -1.04542993      -0.55375071      -0.22261910
C       -0.59787832       0.80953745      -0.67410463
O        0.87771754       1.58168553       0.62935614
H        2.58496078       0.68553300      -0.58941756
H        0.41653552      -1.85330699       0.71218402
H       -0.35422174      -0.82764992       1.84396539
H       -2.05435189      -0.53968012       0.19197763
H       -1.04753215      -1.25988382      -1.05126819
H       -1.32518443       1.56776003      -0.37370550
H       -0.46644634       0.93537295      -1.74816255
13
Frame=12 idx=001554 GeodesicLength=2.0318243317289415 rxn_smarts="[N:1](=[C:2]1/[C:3]([H:8])([H:9])[C:4]([H:10])([H:11])[C:5]([H:12])([H:13])[O:6]1)\[H:7]>>[N:1]1([H:7])[C:2](=[O:6])[C:3]([H:8])([H:9])[C:4]([H:10])([H:11])[C:5]1([H:12])[H:13]"
N        1.90862860       0.02826946      -0.26439645
C        1.02979248       0.27519376       0.66901175
C        0.02877143      -0.85495351       0.83428956
C       -1.03765791      -0.54115095      -0.21076477
C       -0.55066145       0.80405266      -0.69278747
O        0.84482952       1.54441513       0.73183335
H        2.54021575       0.74205918      -0.60063051
H        0.42672101      -1.86225027       0.71185022
H       -0.35540798      -0.84919688       1.85372170
H       -2.04291463      -0.48879989       0.20913457
H       -1.07283714      -1.26283649      -1.02535841
H       -1.28206580       1.57749445      -0.44148887
H       -0.43741388       0.88770335      -1.77441465
13
Frame=13 idx=001554 GeodesicLength=2.1774903136073953 rxn_smarts="[N:1](=[C:2]1/[C:3]([H:8])([H:9])[C:4]([H:10])([H:11])[C:5]([H:12])([H:13])[O:6]1)\[H:7]>>[N:1]1([H:7])[C:2](=[O:6])[C:3]([H:8])([H:9])[C:4]([H:10])([H:11])[C:5]1([H:12])[H:13]"
N        1.84663646       0.07084120      -0.33034667
C        1.04985486       0.24700087       0.68959752
C        0.03073637      -0.86763333       0.84200705
C       -1.02973902      -0.52827486      -0.20017688
C       -0.50787178       0.79911753      -0.71188417
O        0.81155395       1.50244157       0.82131749
H        2.50147420       0.78959070      -0.60429147
H        0.43796688      -1.86955277       0.70985684
H       -0.35412087      -0.86800128       1.86118455
H       -2.02954047      -0.43970608       0.22600603
H       -1.09862954      -1.26357518      -1.00047300
H       -1.23958081       1.58610538      -0.50315149
H       -0.41874023       0.84164625      -1.79964580
13
Frame=14 idx=001554 GeodesicLength=2.3247139515932194 rxn_smarts="[N:1](=[C:2]1/[C:3]([H:8])([H:9])[C:4]([H:10])([H:11])[C:5]([H:12])([H:13])[O:6]1)\[H:7]>>[N:1]1([H:7])[C:2](=[O:6])[C:3]([H:8])([H:9])[C:4]([H:10])([H:11])[C:5]1([H:12])[H:13]"
N        1.78792984       0.11478645      -0.38278933
C        1.06996327       0.22061440       0.70484865
C        0.03342168      -0.87883168       0.84827984
C       -1.02120432      -0.51551275      -0.19116102
C       -0.46925122       0.79522616      -0.73078903
O        0.77865889       1.45757186       0.90007828
H        2.46588888       0.82915518      -0.60608342
H        0.44980847      -1.87564057       0.70823878
H       -0.35190597      -0.88404134       1.86741170
H       -2.01462757      -0.39359654       0.24112850
H       -1.12259343      -1.26241279      -0.97741963
H       -1.19924236       1.59386704      -0.55887240
H       -0.40684615       0.79881457      -1.82287093
13
Frame=15 idx=001554 GeodesicLength=2.4727285680628825 rxn_smarts="[N:1](=[C:2]1/[C:3]([H:8])([H:9])[C:4]([H:10])([H:11])[C:5]([H:12])([H:13])[O:6]1)\[H:7]>>[N:1]1([H:7])[C:2](=[O:6])[C:3]([H:8])([H:9])[C:4]([H:10])([H:11])[C:5]1([H:12])[H:13]"
N        1.73254234       0.15805807      -0.42392132
C        1.08958260       0.19626946       0.71615543
C        0.03650915      -0.88868801       0.85364550
C       -1.01208619      -0.50305770      -0.18356703
C       -0.43441431       0.79247756      -0.74917231
O        0.74685688       1.41093136       0.96971750
H        2.43208777       0.86238167      -0.60813148
H        0.46195068      -1.88064790       0.70758368
H       -0.34938324      -0.89776030       1.87277529
H       -1.99864316      -0.35077276       0.25434177
H       -1.14423601      -1.25966223      -0.95622790
H       -1.16176338       1.60091742      -0.60950838
H       -0.39900313       0.75955335      -1.84369074
13
Frame=16 idx=001554 GeodesicLength=2.6211154425366034 rxn_smarts="[N:1](=[C:2]1/[C:3]([H:8])([H:9])[C:4]([H:10])([H:11])[C:5]([H:12])([H:13])[O:6]1)\[H:7]>>[N:1]1([H:7])[C:2](=[O:6])[C:3]([H:8])([H:9])[C:4]([H:10])([H:11])[C:5]1([H:12])[H:13]"
N        1.68024485       0.19971200      -0.45581159
C        1.10834726       0.17404448       0.72446020
C        0.03984901      -0.89744739       0.85830133
C       -1.00261080      -0.49092921      -0.17705775
C       -0.40293654       0.79081121      -0.76695837
O        0.71648627       1.36333435       1.03159299
H        2.39960600       0.89072798      -0.61077221
H        0.47434117      -1.88469085       0.70770351
H       -0.34668475      -0.90989341       1.87742433
H       -1.98194520      -0.31090989       0.26612637
H       -1.16398816      -1.25557167      -0.93654319
H       -1.12738291       1.60735390      -0.65628960
H       -0.39332621       0.72345850      -1.86217602
