16
Frame=0 idx=003597 GeodesicLength=0.0 rxn_smarts="[C:1]([C:2]1([C:3]([O:4][H:12])([H:10])[H:11])[C:5]([H:13])([H:14])[C:6]1([H:15])[H:16])([H:7])([H:8])[H:9]>>[C:1]([C:5]([C:6]([C:2][C:3]([O:4][H:12])([H:10])[H:11])([H:15])[H:16])([H:13])[H:14])([H:7])([H:8])[H:9]"
C        0.38822784       1.06228004      -1.04868446
C       -0.29977354       0.45589963       0.59944926
C        0.72610618      -0.47946515       1.16956807
O        1.99827299       0.14035560       1.24520382
C       -0.91250473      -0.25231610      -0.98878317
C       -1.57647196      -0.25904312       0.33080850
H       -0.10335687       2.01855203      -1.18828705
H        1.32537527       1.20542096      -0.51931801
H        0.68268935       0.65879268      -2.02962036
H        0.81103637      -1.45157624       0.64914611
H        0.34401210      -0.68869842       2.17969895
H        2.64825745      -0.52064390       1.48415441
H       -0.41282865      -1.17031040      -1.27252027
H       -1.45687305       0.21873710      -1.79663846
H       -2.49370901       0.31673875       0.42270887
H       -1.66845978      -1.25472342       0.76311374
16
Frame=1 idx=003597 GeodesicLength=0.09341392089896486 rxn_smarts="[C:1]([C:2]1([C:3]([O:4][H:12])([H:10])[H:11])[C:5]([H:13])([H:14])[C:6]1([H:15])[H:16])([H:7])([H:8])[H:9]>>[C:1]([C:5]([C:6]([C:2][C:3]([O:4][H:12])([H:10])[H:11])([H:15])[H:16])([H:13])[H:14])([H:7])([H:8])[H:9]"
C        0.37759140       1.08454730      -1.05054361
C       -0.29012604       0.44049430       0.59746045
C        0.72042071      -0.48691235       1.20152623
O        2.00333415       0.11278096       1.24510526
C       -0.89745597      -0.26125800      -0.99924028
C       -1.56870686      -0.26286734       0.31837281
H       -0.14417634       2.02442910      -1.19589559
H        1.30426022       1.26549419      -0.51349966
H        0.70338267       0.69355980      -2.02612630
H        0.77856141      -1.48421151       0.72785234
H        0.34964765      -0.64471289       2.22477477
H        2.65626484      -0.57048909       1.39828448
H       -0.39243424      -1.17847403      -1.27696315
H       -1.45102271       0.18940542      -1.81287083
H       -2.47249415       0.33481666       0.41020758
H       -1.67704672      -1.25660252       0.75155552
16
Frame=2 idx=003597 GeodesicLength=0.1862018733641981 rxn_smarts="[C:1]([C:2]1([C:3]([O:4][H:12])([H:10])[H:11])[C:5]([H:13])([H:14])[C:6]1([H:15])[H:16])([H:7])([H:8])[H:9]>>[C:1]([C:5]([C:6]([C:2][C:3]([O:4][H:12])([H:10])[H:11])([H:15])[H:16])([H:13])[H:14])([H:7])([H:8])[H:9]"
C        0.36646395       1.10761028      -1.05177914
C       -0.27916681       0.42469936       0.59545640
C        0.71467868      -0.49408809       1.23452974
O        2.00958882       0.08009031       1.24118805
C       -0.88045360      -0.27055218      -1.00966291
C       -1.55939735      -0.26714834       0.30573671
H       -0.18601616       2.02935335      -1.20345407
H        1.28012416       1.32784426      -0.50635588
H        0.72425352       0.73093482      -2.02125364
H        0.74258725      -1.51482305       0.81146376
H        0.35784094      -0.59559843       2.26936090
H        2.65590312      -0.62314574       1.30797847
H       -0.36956822      -1.18672970      -1.28102647
H       -1.44294882       0.15888351      -1.82899692
H       -2.44968617       0.35142722       0.39735118
H       -1.68420331      -1.25875759       0.73946382
16
Frame=3 idx=003597 GeodesicLength=0.2786179154024713 rxn_smarts="[C:1]([C:2]1([C:3]([O:4][H:12])([H:10])[H:11])[C:5]([H:13])([H:14])[C:6]1([H:15])[H:16])([H:7])([H:8])[H:9]>>[C:1]([C:5]([C:6]([C:2][C:3]([O:4][H:12])([H:10])[H:11])([H:15])[H:16])([H:13])[H:14])([H:7])([H:8])[H:9]"
C        0.35490471       1.13130259      -1.05251372
C       -0.26689402       0.40854991       0.59340583
C        0.70904628      -0.50073904       1.26853526
O        2.01663164       0.04235850       1.23404287
C       -0.86164973      -0.28007241      -1.02011858
C       -1.54856219      -0.27205303       0.29297185
H       -0.22843047       2.03329438      -1.21097885
H        1.25306905       1.39161961      -0.49816849
H        0.74502378       0.77098148      -2.01521682
H        0.70382978      -1.54228631       0.89957785
H        0.36915282      -0.54177182       2.31271928
H        2.64642712      -0.67866014       1.21430874
H       -0.34451691      -1.19499210      -1.28488675
H       -1.43285231       0.12756954      -1.84496407
H       -2.42544551       0.36635997       0.38440772
H       -1.68973403      -1.26146116       0.72687788
16
Frame=4 idx=003597 GeodesicLength=0.3706037202845789 rxn_smarts="[C:1]([C:2]1([C:3]([O:4][H:12])([H:10])[H:11])[C:5]([H:13])([H:14])[C:6]1([H:15])[H:16])([H:7])([H:8])[H:9]>>[C:1]([C:5]([C:6]([C:2][C:3]([O:4][H:12])([H:10])[H:11])([H:15])[H:16])([H:13])[H:14])([H:7])([H:8])[H:9]"
C        0.34282319       1.15562186      -1.05277088
C       -0.25329852       0.39223911       0.59120739
C        0.70376550      -0.50643893       1.30317675
O        2.02425010      -0.00083824       1.22344971
C       -0.84108059      -0.28967774      -1.03059113
C       -1.53603809      -0.27769635       0.28013547
H       -0.27146545       2.03615613      -1.21864243
H        1.22279341       1.45662837      -0.48897093
H        0.76548415       0.81367930      -2.00789833
H        0.66274034      -1.56546836       0.99155480
H        0.38441910      -0.48314348       2.35383021
H        2.62677615      -0.73791245       1.11942947
H       -0.31740718      -1.20315788      -1.28870286
H       -1.42083364       0.09566060      -1.86059104
H       -2.39982621       0.37929526       0.37164188
H       -1.69310224      -1.26494719       0.71374191
16
Frame=5 idx=003597 GeodesicLength=0.4621132184402435 rxn_smarts="[C:1]([C:2]1([C:3]([O:4][H:12])([H:10])[H:11])[C:5]([H:13])([H:14])[C:6]1([H:15])[H:16])([H:7])([H:8])[H:9]>>[C:1]([C:5]([C:6]([C:2][C:3]([O:4][H:12])([H:10])[H:11])([H:15])[H:16])([H:13])[H:14])([H:7])([H:8])[H:9]"
C        0.33029055       1.18006734      -1.05267100
C       -0.23827663       0.37568124       0.58881040
C        0.69895298      -0.51101026       1.33821636
O        2.03157800      -0.04917593       1.21074522
C       -0.81903255      -0.29911411      -1.04122040
C       -1.52168884      -0.28414531       0.26733203
H       -0.31441053       2.03768280      -1.22618502
H        1.18954581       1.52151264      -0.47916717
H        0.78506605       0.85880463      -1.99967722
H        0.62023842      -1.58335937       1.08639737
H        0.40391097      -0.42076540       2.39175699
H        2.59656345      -0.79986914       1.02484779
H       -0.28890832      -1.21094530      -1.29295720
H       -1.40724379       0.06380024      -1.87577901
H       -2.37266227       0.39012945       0.35950765
H       -1.69392330      -1.26929353       0.70004321
16
Frame=6 idx=003597 GeodesicLength=0.5533637380503402 rxn_smarts="[C:1]([C:2]1([C:3]([O:4][H:12])([H:10])[H:11])[C:5]([H:13])([H:14])[C:6]1([H:15])[H:16])([H:7])([H:8])[H:9]>>[C:1]([C:5]([C:6]([C:2][C:3]([O:4][H:12])([H:10])[H:11])([H:15])[H:16])([H:13])[H:14])([H:7])([H:8])[H:9]"
C        0.31713846       1.20484113      -1.05244319
C       -0.22183928       0.35909571       0.58597368
C        0.69502153      -0.51417532       1.37304546
O        2.03857249      -0.10303920       1.19572125
C       -0.79583121      -0.30818290      -1.05211215
C       -1.50558762      -0.29147641       0.25461350
H       -0.35752582       2.03806628      -1.23400102
H        1.15310618       1.58647403      -0.46902521
H        0.80354026       0.90641947      -1.99064808
H        0.57686756      -1.59524450       1.18306179
H        0.42852062      -0.35505177       2.42539781
H        2.55621232      -0.86561057       0.93472730
H       -0.25938097      -1.21826275      -1.29801701
H       -1.39263421       0.03228145      -1.89045190
H       -2.34429844       0.39868069       0.34834741
H       -1.69188189      -1.27481535       0.68581035
16
Frame=7 idx=003597 GeodesicLength=0.6443959061531311 rxn_smarts="[C:1]([C:2]1([C:3]([O:4][H:12])([H:10])[H:11])[C:5]([H:13])([H:14])[C:6]1([H:15])[H:16])([H:7])([H:8])[H:9]>>[C:1]([C:5]([C:6]([C:2][C:3]([O:4][H:12])([H:10])[H:11])([H:15])[H:16])([H:13])[H:14])([H:7])([H:8])[H:9]"
C        0.30327715       1.22979424      -1.05219740
C       -0.20392693       0.34251371       0.58255406
C        0.69217800      -0.51578934       1.40725733
O        2.04462344      -0.16237679       1.17920359
C       -0.77175769      -0.31667468      -1.06342530
C       -1.48770875      -0.29966611       0.24200096
H       -0.40069490       2.03719362      -1.24214494
H        1.11331870       1.65115147      -0.45871888
H        0.82057891       0.95640806      -1.98093590
H        0.53312908      -1.60049547       1.28061423
H        0.45864056      -0.28694048       2.45389035
H        2.50649811      -0.93510944       0.85135357
H       -0.22928360      -1.22489638      -1.30432036
H       -1.37740798       0.00146110      -1.90461765
H       -2.31473204       0.40496869       0.33843113
H       -1.68673206      -1.28154220       0.67105521
16
Frame=8 idx=003597 GeodesicLength=0.7353671383712721 rxn_smarts="[C:1]([C:2]1([C:3]([O:4][H:12])([H:10])[H:11])[C:5]([H:13])([H:14])[C:6]1([H:15])[H:16])([H:7])([H:8])[H:9]>>[C:1]([C:5]([C:6]([C:2][C:3]([O:4][H:12])([H:10])[H:11])([H:15])[H:16])([H:13])[H:14])([H:7])([H:8])[H:9]"
C        0.28861236       1.25492508      -1.05205543
C       -0.18449529       0.32598169       0.57838543
C        0.69061783      -0.51580303       1.44050641
O        2.04926854      -0.22721975       1.16199439
C       -0.74706051      -0.32441742      -1.07530900
C       -1.46811481      -0.30866789       0.22949291
H       -0.44393643       2.03508575      -1.25080945
H        1.06991703       1.71549876      -0.44836957
H        0.83601595       1.00876643      -1.97059470
H        0.48934814      -1.59872600       1.37834588
H        0.49456397      -0.21735876       2.47654424
H        2.44859162      -1.00852961       0.77664331
H       -0.19892381      -1.23070801      -1.31220783
H       -1.36194238      -0.02839172      -1.91833357
H       -2.28409279       0.40908903       0.32992345
H       -1.67836940      -1.28952454       0.65584355
16
Frame=9 idx=003597 GeodesicLength=0.8262261444496597 rxn_smarts="[C:1]([C:2]1([C:3]([O:4][H:12])([H:10])[H:11])[C:5]([H:13])([H:14])[C:6]1([H:15])[H:16])([H:7])([H:8])[H:9]>>[C:1]([C:5]([C:6]([C:2][C:3]([O:4][H:12])([H:10])[H:11])([H:15])[H:16])([H:13])[H:14])([H:7])([H:8])[H:9]"
C        0.27311010       1.28007506      -1.05204159
C       -0.16339010       0.30948109       0.57333361
C        0.69043593      -0.51421062       1.47247909
O        2.05185553      -0.29741851       1.14515248
C       -0.72193964      -0.33129393      -1.08789604
C       -1.44672587      -0.31836817       0.21708390
H       -0.48708715       2.03162957      -1.25999639
H        1.02263882       1.77928658      -0.43801660
H        0.84962446       1.06336509      -1.95962059
H        0.44577210      -1.58954325       1.47544159
H        0.53631803      -0.14742987       2.49283448
H        2.38339497      -1.08547569       0.71168947
H       -0.16863714      -1.23558196      -1.32201238
H       -1.34652284      -0.05709386      -1.93162432
H       -2.25221847       0.41121558       0.32299711
H       -1.66662873      -1.29863710       0.64019620
16
Frame=10 idx=003597 GeodesicLength=0.9171872037451405 rxn_smarts="[C:1]([C:2]1([C:3]([O:4][H:12])([H:10])[H:11])[C:5]([H:13])([H:14])[C:6]1([H:15])[H:16])([H:7])([H:8])[H:9]>>[C:1]([C:5]([C:6]([C:2][C:3]([O:4][H:12])([H:10])[H:11])([H:15])[H:16])([H:13])[H:14])([H:7])([H:8])[H:9]"
C        0.25659590       1.30543784      -1.05222736
C       -0.14051451       0.29307473       0.56721632
C        0.69181712      -0.51103130       1.50296747
O        2.05203300      -0.37323455       1.12934978
C       -0.69648760      -0.33718738      -1.10133710
C       -1.42357741      -0.32867516       0.20470614
H       -0.53038376       2.02690113      -1.27001667
H        0.97089785       1.84273579      -0.42761349
H        0.86134596       1.12041359      -1.94787789
H        0.40243605      -1.57261405       1.57156579
H        0.58420369      -0.07796463       2.50240775
H        2.31202562      -1.16651760       0.65759568
H       -0.13839260      -1.23939371      -1.33393495
H       -1.33133736      -0.08458998      -1.94463680
H       -2.21919734       0.41151272       0.31763705
H       -1.65146460      -1.30886745       0.62419828
16
Frame=11 idx=003597 GeodesicLength=1.008124377011265 rxn_smarts="[C:1]([C:2]1([C:3]([O:4][H:12])([H:10])[H:11])[C:5]([H:13])([H:14])[C:6]1([H:15])[H:16])([H:7])([H:8])[H:9]>>[C:1]([C:5]([C:6]([C:2][C:3]([O:4][H:12])([H:10])[H:11])([H:15])[H:16])([H:13])[H:14])([H:7])([H:8])[H:9]"
C        0.23903981       1.33085161      -1.05249360
C       -0.11564372       0.27671288       0.55986755
C        0.69486809      -0.50633514       1.53175627
O        2.04919432      -0.45476270       1.11571339
C       -0.67076184      -0.34202924      -1.11568690
C       -1.39857008      -0.33942567       0.19224157
H       -0.57373434       2.02065903      -1.28087766
H        0.91426105       1.90550080      -0.41697198
H        0.87106357       1.17982758      -1.93503508
H        0.35938942      -1.54739456       1.66617222
H        0.63838645      -0.01004972       2.50489008
H        2.23488369      -1.25091483       0.61429307
H       -0.10825664      -1.24199815      -1.34805082
H       -1.31649495      -0.11087458      -1.95735969
H       -2.18483765       0.41018259       0.31375158
H       -1.63278717      -1.31994989       0.60779000
16
Frame=12 idx=003597 GeodesicLength=1.0993560174649226 rxn_smarts="[C:1]([C:2]1([C:3]([O:4][H:12])([H:10])[H:11])[C:5]([H:13])([H:14])[C:6]1([H:15])[H:16])([H:7])([H:8])[H:9]>>[C:1]([C:5]([C:6]([C:2][C:3]([O:4][H:12])([H:10])[H:11])([H:15])[H:16])([H:13])[H:14])([H:7])([H:8])[H:9]"
C        0.22031109       1.35652511      -1.05281283
C       -0.08858320       0.26045576       0.55117224
C        0.69975453      -0.50011019       1.55874031
O        2.04273287      -0.54240071       1.10496070
C       -0.64466849      -0.34577911      -1.13108264
C       -1.37161111      -0.35060084       0.17961164
H       -0.61725812       2.01297718      -1.29272307
H        0.85215323       1.96756674      -0.40595466
H        0.87867284       1.24199382      -1.92089141
H        0.31656983      -1.51325258       1.75910462
H        0.69935682       0.05556966       2.50007903
H        2.15197394      -1.33893088       0.58194461
H       -0.07793197      -1.24327952      -1.36449406
H       -1.30193650      -0.13606103      -1.96995970
H       -2.14908068       0.40725679       0.31128623
H       -1.61045510      -1.33193018       0.59101899
16
Frame=13 idx=003597 GeodesicLength=1.190973064033055 rxn_smarts="[C:1]([C:2]1([C:3]([O:4][H:12])([H:10])[H:11])[C:5]([H:13])([H:14])[C:6]1([H:15])[H:16])([H:7])([H:8])[H:9]>>[C:1]([C:5]([C:6]([C:2][C:3]([O:4][H:12])([H:10])[H:11])([H:15])[H:16])([H:13])[H:14])([H:7])([H:8])[H:9]"
C        0.20024844       1.38251765      -1.05315599
C       -0.05905498       0.24440417       0.54102486
C        0.70658294      -0.49222860       1.58370375
O        2.03160548      -0.63609278       1.09771594
C       -0.61803289      -0.34843162      -1.14766040
C       -1.34236295      -0.36212939       0.16681645
H       -0.66091907       2.00394700      -1.30531452
H        0.78425424       2.02847884      -0.39463507
H        0.88365561       1.30723568      -1.90546528
H        0.27428056      -1.46940305       1.84969892
H        0.76707482       0.11769744       2.48809009
H        2.06268929      -1.43063829       0.56083950
H       -0.04704680      -1.24311544      -1.38344990
H       -1.28743686      -0.16029668      -1.98255535
H       -2.11152763       0.40280315       0.31037129
H       -1.58401020      -1.34474807       0.57397572
16
Frame=14 idx=003597 GeodesicLength=1.2831831376370504 rxn_smarts="[C:1]([C:2]1([C:3]([O:4][H:12])([H:10])[H:11])[C:5]([H:13])([H:14])[C:6]1([H:15])[H:16])([H:7])([H:8])[H:9]>>[C:1]([C:5]([C:6]([C:2][C:3]([O:4][H:12])([H:10])[H:11])([H:15])[H:16])([H:13])[H:14])([H:7])([H:8])[H:9]"
C        0.17882665       1.40877362      -1.05340051
C       -0.02681411       0.22851769       0.52925482
C        0.71559652      -0.48295301       1.60655264
O        2.01506080      -0.73616899       1.09545851
C       -0.59081807      -0.34993605      -1.16544591
C       -1.31082381      -0.37391220       0.15367712
H       -0.70470442       1.99341501      -1.31879014
H        0.71031907       2.08754720      -0.38276784
H        0.88587966       1.37559462      -1.88833352
H        0.23271546      -1.41512959       1.93742388
H        0.84215506       0.17500382       2.46867479
H        1.96667005      -1.52442093       0.55029024
H       -0.01538256      -1.24134972      -1.40475808
H       -1.27299732      -0.18367257      -1.99519612
H       -2.07218785       0.39693822       0.31070597
H       -1.55349511      -1.35824711       0.55665416
16
Frame=15 idx=003597 GeodesicLength=1.376162835638888 rxn_smarts="[C:1]([C:2]1([C:3]([O:4][H:12])([H:10])[H:11])[C:5]([H:13])([H:14])[C:6]1([H:15])[H:16])([H:7])([H:8])[H:9]>>[C:1]([C:5]([C:6]([C:2][C:3]([O:4][H:12])([H:10])[H:11])([H:15])[H:16])([H:13])[H:14])([H:7])([H:8])[H:9]"
C        0.15594042       1.43517121      -1.05335711
C        0.00834352       0.21288835       0.51578498
C        0.72692703      -0.47234930       1.62698958
O        1.99169962      -0.84252232       1.09908956
C       -0.56276089      -0.35031816      -1.18439854
C       -1.27674228      -0.38582998       0.14015135
H       -0.74852216       1.98125696      -1.33295306
H        0.63011929       2.14390496      -0.37020919
H        0.88496060       1.44704308      -1.86912264
H        0.19232678      -1.34950308       2.02126890
H        0.92481620       0.22591244       2.44180599
H        1.86294258      -1.61886049       0.54967478
H        0.01755634      -1.23788784      -1.42824672
H       -1.25822088      -0.20643911      -2.00783179
H       -2.03079187       0.38976126       0.31222527
H       -1.51859431      -1.37222797       0.53912863
16
Frame=16 idx=003597 GeodesicLength=1.4704708139408167 rxn_smarts="[C:1]([C:2]1([C:3]([O:4][H:12])([H:10])[H:11])[C:5]([H:13])([H:14])[C:6]1([H:15])[H:16])([H:7])([H:8])[H:9]>>[C:1]([C:5]([C:6]([C:2][C:3]([O:4][H:12])([H:10])[H:11])([H:15])[H:16])([H:13])[H:14])([H:7])([H:8])[H:9]"
C        0.13153824       1.46159112      -1.05287894
C        0.04657556       0.19763344       0.50062668
C        0.74074142      -0.46061786       1.64480938
O        1.95994638      -0.95447282       1.10955363
C       -0.53370059      -0.34966622      -1.20449492
C       -1.23997550      -0.39777991       0.12623014
H       -0.79215323       1.96740256      -1.34775687
H        0.54370918       2.19666215      -0.35684249
H        0.88057817       1.52142150      -1.84745278
H        0.15390249      -1.27193633       2.09996330
H        1.01518493       0.26848922       2.40786363
H        1.75067993      -1.71188066       0.55817485
H        0.05208254      -1.23276502      -1.45369307
H       -1.24278898      -0.22893904      -2.02051463
H       -1.98711466       0.38140154       0.31486101
H       -1.47920590      -1.38654368       0.52155107
