13
Frame=0 idx=000683 GeodesicLength=0.0 rxn_smarts="[C:1]([c:2]1[c:3]([H:10])[n:4]([H:11])[c:5]([H:12])[c:6]1[H:13])([H:7])([H:8])[H:9]>>[C:1]([C+:2]1[C:3]([H:10])([H:12])[N:4]([H:11])[C-:5]=[C:6]1[H:13])([H:7])([H:8])[H:9]"
C        1.88206212       0.05046589       0.15412907
C        0.40886793       0.23050770       0.10833430
C       -0.64114185      -0.79721014      -0.19467567
N       -1.62785824      -0.11372430      -1.06999831
C       -1.75839513       0.48798895       0.22495448
C       -0.43899616       1.22789616       0.35965122
H        2.37925963       0.99408621       0.37668818
H        2.16992893      -0.67514264       0.91940294
H        2.25509566      -0.32083952      -0.80390538
H       -0.55974851      -1.87285215      -0.30763625
H       -2.40849392      -0.75404972      -1.21722300
H       -1.35216380      -0.72770105       0.84661135
H       -0.30841663       2.27057466       0.60366704
13
Frame=1 idx=000683 GeodesicLength=0.0895687194939053 rxn_smarts="[C:1]([c:2]1[c:3]([H:10])[n:4]([H:11])[c:5]([H:12])[c:6]1[H:13])([H:7])([H:8])[H:9]>>[C:1]([C+:2]1[C:3]([H:10])([H:12])[N:4]([H:11])[C-:5]=[C:6]1[H:13])([H:7])([H:8])[H:9]"
C        1.88029366       0.05042810       0.15269151
C        0.40658338       0.22611450       0.10441042
C       -0.63814367      -0.80565365      -0.18365880
N       -1.62403429      -0.12933775      -1.05908833
C       -1.76152849       0.50821699       0.21217733
C       -0.43934004       1.23346662       0.34014180
H        2.37441280       0.98487728       0.41712539
H        2.16822013      -0.70464002       0.88874844
H        2.26035640      -0.27975919      -0.81753124
H       -0.54410977      -1.87927666      -0.30359883
H       -2.40793315      -0.76246333      -1.21287091
H       -1.37708285      -0.71348886       0.86428091
H       -0.29769412       2.27151597       0.59717232
13
Frame=2 idx=000683 GeodesicLength=0.17907883112183753 rxn_smarts="[C:1]([c:2]1[c:3]([H:10])[n:4]([H:11])[c:5]([H:12])[c:6]1[H:13])([H:7])([H:8])[H:9]>>[C:1]([C+:2]1[C:3]([H:10])([H:12])[N:4]([H:11])[C-:5]=[C:6]1[H:13])([H:7])([H:8])[H:9]"
C        1.87853061       0.05032627       0.15129752
C        0.40428271       0.22150777       0.10059213
C       -0.63512594      -0.81422408      -0.17232014
N       -1.62050171      -0.14495035      -1.04748517
C       -1.76448435       0.52851576       0.19865832
C       -0.43950626       1.23877998       0.32031917
H        2.36900955       0.97419255       0.45672338
H        2.16710625      -0.73265456       0.85716773
H        2.26543743      -0.23861955      -0.82928179
H       -0.52784370      -1.88544928      -0.30059194
H       -2.40738034      -0.77096181      -1.20825162
H       -1.40251877      -0.69822338       0.88198135
H       -0.28700547       2.27176069       0.59119106
13
Frame=3 idx=000683 GeodesicLength=0.2685652911377199 rxn_smarts="[C:1]([c:2]1[c:3]([H:10])[n:4]([H:11])[c:5]([H:12])[c:6]1[H:13])([H:7])([H:8])[H:9]>>[C:1]([C+:2]1[C:3]([H:10])([H:12])[N:4]([H:11])[C-:5]=[C:6]1[H:13])([H:7])([H:8])[H:9]"
C        1.87677740       0.05014964       0.14996922
C        0.40197028       0.21667551       0.09687902
C       -0.63207386      -0.82293736      -0.16063930
N       -1.61728283      -0.16055934      -1.03511928
C       -1.76723978       0.54884960       0.18440879
C       -0.43948435       1.24380344       0.30022622
H        2.36306047       0.96204780       0.49562843
H        2.16654827      -0.75931677       0.82465811
H        2.27033591      -0.19731758      -0.83924256
H       -0.51094126      -1.89131480      -0.29868314
H       -2.40683889      -0.77955754      -1.20331010
H       -1.42845552      -0.68186114       0.89975467
H       -0.27637583       2.27133854       0.58546991
13
Frame=4 idx=000683 GeodesicLength=0.35805010372361196 rxn_smarts="[C:1]([c:2]1[c:3]([H:10])[n:4]([H:11])[c:5]([H:12])[c:6]1[H:13])([H:7])([H:8])[H:9]>>[C:1]([C+:2]1[C:3]([H:10])([H:12])[N:4]([H:11])[C-:5]=[C:6]1[H:13])([H:7])([H:8])[H:9]"
C        1.87503963       0.04989042       0.14873092
C        0.39965759       0.21162813       0.09317164
C       -0.62895566      -0.83179396      -0.14869758
N       -1.61446277      -0.17610531      -1.02189950
C       -1.76977013       0.56913878       0.16952356
C       -0.43927113       1.24849103       0.27994538
H        2.35658225       0.94850708       0.53375308
H        2.16645550      -0.78452873       0.79142144
H        2.27510722      -0.15602942      -0.84734044
H       -0.49337910      -1.89679650      -0.29809807
H       -2.40636927      -0.78821043      -1.19797086
H       -1.45479172      -0.66443798       0.91761870
H       -0.26584240       2.27024690       0.57984173
13
Frame=5 idx=000683 GeodesicLength=0.44753060652634297 rxn_smarts="[C:1]([c:2]1[c:3]([H:10])[n:4]([H:11])[c:5]([H:12])[c:6]1[H:13])([H:7])([H:8])[H:9]>>[C:1]([C+:2]1[C:3]([H:10])([H:12])[N:4]([H:11])[C-:5]=[C:6]1[H:13])([H:7])([H:8])[H:9]"
C        1.87332032       0.04954238       0.14761797
C        0.39735336       0.20636473       0.08942200
C       -0.62574322      -0.84081097      -0.13654668
N       -1.61209495      -0.19155495      -1.00772677
C       -1.77205821       0.58931402       0.15408411
C       -0.43887087       1.25279751       0.25957461
H        2.34958697       0.93358440       0.57114451
H        2.16677966      -0.80829190       0.75754448
H        2.27979053      -0.11477798      -0.85356777
H       -0.47517124      -1.90182513      -0.29898790
H       -2.40600450      -0.79688585      -1.19218137
H       -1.48145037      -0.64597899       0.93559751
H       -0.25543747       2.26852275       0.57402530
13
Frame=6 idx=000683 GeodesicLength=0.5370289317448077 rxn_smarts="[C:1]([c:2]1[c:3]([H:10])[n:4]([H:11])[c:5]([H:12])[c:6]1[H:13])([H:7])([H:8])[H:9]>>[C:1]([C+:2]1[C:3]([H:10])([H:12])[N:4]([H:11])[C-:5]=[C:6]1[H:13])([H:7])([H:8])[H:9]"
C        1.87162332       0.04909748       0.14664552
C        0.39506450       0.20087481       0.08557068
C       -0.62239651      -0.85000681      -0.12425850
N       -1.61023269      -0.20687028      -0.99253566
C       -1.77409506       0.60930986       0.13814720
C       -0.43829582       1.25668058       0.23918827
H        2.34207476       0.91734928       0.60784942
H        2.16748622      -0.83063659       0.72311429
H        2.28442740      -0.07359005      -0.85792787
H       -0.45636732      -1.90634751      -0.30143933
H       -2.40576585      -0.80557397      -1.18590170
H       -1.50836118      -0.62650359       0.95371985
H       -0.24516177       2.26621679       0.56782782
13
Frame=7 idx=000683 GeodesicLength=0.6266021895228637 rxn_smarts="[C:1]([c:2]1[c:3]([H:10])[n:4]([H:11])[c:5]([H:12])[c:6]1[H:13])([H:7])([H:8])[H:9]>>[C:1]([C+:2]1[C:3]([H:10])([H:12])[N:4]([H:11])[C-:5]=[C:6]1[H:13])([H:7])([H:8])[H:9]"
C        1.86994896       0.04856207       0.14581415
C        0.39279234       0.19513873       0.08158908
C       -0.61887795      -0.85942126      -0.11186803
N       -1.60890709      -0.22207528      -0.97625581
C       -1.77587208       0.62909259       0.12169662
C       -0.43755945       1.26011305       0.21877957
H        2.33399923       0.89972312       0.64410957
H        2.16862060      -0.85171634       0.68797815
H        2.28905714      -0.03223627      -0.86041146
H       -0.43705735      -1.91033934      -0.30540531
H       -2.40565847      -0.81431926      -1.17908458
H       -1.53549255      -0.60593220       0.97202916
H       -0.23499334       2.26341039       0.56102889
13
Frame=8 idx=000683 GeodesicLength=0.7162485404729088 rxn_smarts="[C:1]([c:2]1[c:3]([H:10])[n:4]([H:11])[c:5]([H:12])[c:6]1[H:13])([H:7])([H:8])[H:9]>>[C:1]([C+:2]1[C:3]([H:10])([H:12])[N:4]([H:11])[C-:5]=[C:6]1[H:13])([H:7])([H:8])[H:9]"
C        1.86829885       0.04794723       0.14514147
C        0.39054755       0.18916345       0.07738033
C       -0.61513118      -0.86907964      -0.09949659
N       -1.60817580      -0.23713014      -0.95881296
C       -1.77739189       0.64858950       0.10478873
C       -0.43668920       1.26306160       0.19839968
H        2.32535669       0.88072646       0.67981297
H        2.17015877      -0.87141709       0.65226336
H        2.29375139       0.00914786      -0.86091167
H       -0.41732520      -1.91375977      -0.31096501
H       -2.40570679      -0.82309720      -1.17171089
H       -1.56274625      -0.58428484       0.99053323
H       -0.22494695       2.26013259       0.55357735
13
Frame=9 idx=000683 GeodesicLength=0.8060274964232319 rxn_smarts="[C:1]([c:2]1[c:3]([H:10])[n:4]([H:11])[c:5]([H:12])[c:6]1[H:13])([H:7])([H:8])[H:9]>>[C:1]([C+:2]1[C:3]([H:10])([H:12])[N:4]([H:11])[C-:5]=[C:6]1[H:13])([H:7])([H:8])[H:9]"
C        1.86667323       0.04727611       0.14472344
C        0.38834879       0.18296608       0.07286750
C       -0.61107536      -0.87901288      -0.08738263
N       -1.60807458      -0.25206078      -0.94002356
C       -1.77869315       0.66767977       0.08767994
C       -0.43571448       1.26549476       0.17814936
H        2.31617237       0.86062128       0.71468864
H        2.17197348      -0.88954279       0.61632082
H        2.29855196       0.05008458      -0.85931486
H       -0.39719531      -1.91651164      -0.31849867
H       -2.40594190      -0.83174219      -1.16378619
H       -1.58999236      -0.56167730       1.00925963
H       -0.21503270       2.25642499       0.54531658
13
Frame=10 idx=000683 GeodesicLength=0.8958310031226915 rxn_smarts="[C:1]([c:2]1[c:3]([H:10])[n:4]([H:11])[c:5]([H:12])[c:6]1[H:13])([H:7])([H:8])[H:9]>>[C:1]([C+:2]1[C:3]([H:10])([H:12])[N:4]([H:11])[C-:5]=[C:6]1[H:13])([H:7])([H:8])[H:9]"
C        1.86508322       0.04653311       0.14447969
C        0.38620671       0.17653086       0.06796827
C       -0.60666637      -0.88922480      -0.07553612
N       -1.60862993      -0.26680046      -0.91992133
C       -1.77974176       0.68635152       0.07019164
C       -0.43464905       1.26740401       0.15797029
H        2.30643528       0.83932008       0.74886107
H        2.17412730      -0.90618930       0.58008453
H        2.30348464       0.09084228      -0.85572426
H       -0.37688584      -1.91865478      -0.32763709
H       -2.40629927      -0.84035279      -1.15536820
H       -1.61718504      -0.53801846       1.02823408
H       -0.20527990       2.25225873       0.53639744
13
Frame=11 idx=000683 GeodesicLength=0.9856081047348662 rxn_smarts="[C:1]([c:2]1[c:3]([H:10])[n:4]([H:11])[c:5]([H:12])[c:6]1[H:13])([H:7])([H:8])[H:9]>>[C:1]([C+:2]1[C:3]([H:10])([H:12])[N:4]([H:11])[C-:5]=[C:6]1[H:13])([H:7])([H:8])[H:9]"
C        1.86353661       0.04572655       0.14439265
C        0.38413541       0.16985258       0.06264992
C       -0.60184271      -0.89974597      -0.06404512
N       -1.60983635      -0.28134530      -0.89844212
C       -1.78053998       0.70455165       0.05233624
C       -0.43351543       1.26877827       0.13786886
H        2.29614855       0.81696254       0.78227415
H        2.17660108      -0.92136172       0.54370610
H        2.30851433       0.13131744      -0.85021462
H       -0.35652387      -1.92018749      -0.33836356
H       -2.40671331      -0.84889682      -1.14653639
H       -1.64425619      -0.51327909       1.04749430
H       -0.19570813       2.24762736       0.52687960
13
Frame=12 idx=000683 GeodesicLength=1.0754066477231299 rxn_smarts="[C:1]([c:2]1[c:3]([H:10])[n:4]([H:11])[c:5]([H:12])[c:6]1[H:13])([H:7])([H:8])[H:9]>>[C:1]([C+:2]1[C:3]([H:10])([H:12])[N:4]([H:11])[C-:5]=[C:6]1[H:13])([H:7])([H:8])[H:9]"
C        1.86203348       0.04487095       0.14445096
C        0.38214322       0.16291760       0.05689312
C       -0.59654522      -0.91063733      -0.05295500
N       -1.61168395      -0.29573474      -0.87550173
C       -1.78109435       0.72226986       0.03404959
C       -0.43233428       1.26960783       0.11778716
H        2.28524843       0.79348641       0.81496900
H        2.17946079      -0.93507350       0.50711035
H        2.31359419       0.17161157      -0.84277117
H       -0.33623692      -1.92115541      -0.35059893
H       -2.40709636      -0.85740055      -1.13735573
H       -1.67118898      -0.48730530       1.06711140
H       -0.18630002       2.24254263       0.51681098
13
Frame=13 idx=000683 GeodesicLength=1.165186697732516 rxn_smarts="[C:1]([c:2]1[c:3]([H:10])[n:4]([H:11])[c:5]([H:12])[c:6]1[H:13])([H:7])([H:8])[H:9]>>[C:1]([C+:2]1[C:3]([H:10])([H:12])[N:4]([H:11])[C-:5]=[C:6]1[H:13])([H:7])([H:8])[H:9]"
C        1.86056498       0.04398087       0.14466276
C        0.38023127       0.15571983       0.05069932
C       -0.59072367      -0.92195212      -0.04230943
N       -1.61416579      -0.30997494      -0.85096829
C       -1.78142454       0.73945390       0.01532959
C       -0.43114272       1.26987628       0.09774708
H        2.27374163       0.76892978       0.84683276
H        2.18272765      -0.94724888       0.47036729
H        2.31867893       0.21159866      -0.83338778
H       -0.31612790      -1.92155231      -0.36438241
H       -2.40732490      -0.86582236      -1.12795950
H       -1.69794610      -0.46002560       1.08715466
H       -0.17708884       2.23701688       0.50621396
13
Frame=14 idx=000683 GeodesicLength=1.254962389935517 rxn_smarts="[C:1]([c:2]1[c:3]([H:10])[n:4]([H:11])[c:5]([H:12])[c:6]1[H:13])([H:7])([H:8])[H:9]>>[C:1]([C+:2]1[C:3]([H:10])([H:12])[N:4]([H:11])[C-:5]=[C:6]1[H:13])([H:7])([H:8])[H:9]"
C        1.85912915       0.04305252       0.14500956
C        0.37839733       0.14823579       0.04412448
C       -0.58432479      -0.93372478      -0.03215531
N       -1.61726226      -0.32409167      -0.82467545
C       -1.78155525       0.75603936      -0.00385735
C       -0.42996814       1.26956589       0.07777125
H        2.26167981       0.74334485       0.87779697
H        2.18641551      -0.95788757       0.43349982
H        2.32366592       0.25125872      -0.82212426
H       -0.29631078      -1.92141884      -0.37967146
H       -2.40720182      -0.87411677      -1.11855617
H       -1.72455252      -0.43129948       1.10771402
H       -0.16811216       2.23104197       0.49512391
13
Frame=15 idx=000683 GeodesicLength=1.3447266581707076 rxn_smarts="[C:1]([c:2]1[c:3]([H:10])[n:4]([H:11])[c:5]([H:12])[c:6]1[H:13])([H:7])([H:8])[H:9]>>[C:1]([C+:2]1[C:3]([H:10])([H:12])[N:4]([H:11])[C-:5]=[C:6]1[H:13])([H:7])([H:8])[H:9]"
C        1.85771126       0.04208547       0.14547762
C        0.37662925       0.14044112       0.03724326
C       -0.57730692      -0.94601750      -0.02250504
N       -1.62096979      -0.33811811      -0.79639411
C       -1.78151677       0.77194821      -0.02353135
C       -0.42885233       1.26865313       0.05788431
H        2.24913687       0.71683932       0.90774772
H        2.19053121      -0.96698725       0.39657805
H        2.32845623       0.29048177      -0.80905925
H       -0.27688332      -1.92075438      -0.39652030
H       -2.40647189      -0.88222059      -1.10941225
H       -1.75103447      -0.40095821       1.12890161
H       -0.15942935       2.22460702       0.48358973
13
Frame=16 idx=000683 GeodesicLength=1.434419451979828 rxn_smarts="[C:1]([c:2]1[c:3]([H:10])[n:4]([H:11])[c:5]([H:12])[c:6]1[H:13])([H:7])([H:8])[H:9]>>[C:1]([C+:2]1[C:3]([H:10])([H:12])[N:4]([H:11])[C-:5]=[C:6]1[H:13])([H:7])([H:8])[H:9]"
C        1.85629394       0.04107281       0.14602640
C        0.37489667       0.13230434       0.03026390
C       -0.56963878      -0.95889732      -0.01337566
N       -1.62526002      -0.35204475      -0.76587054
C       -1.78134881       0.78706799      -0.04366094
C       -0.42785603       1.26710385       0.03822962
H        2.23633654       0.68980822       0.93625928
H        2.19504497      -0.97448388       0.36001421
H        2.33282705       0.32880118      -0.79448169
H       -0.25793122      -1.91952760      -0.41504806
H       -2.40472445      -0.88997709      -1.10101419
H       -1.77748289      -0.36888960       1.15080213
H       -0.15115698       2.21766186       0.47185553
