18
Frame=0 idx=000849 GeodesicLength=0.0 rxn_smarts="[C:1]([C:2]([C@@:3]1([H:12])[C:4]([H:13])([H:14])[C@:5]1([C:6]([H:16])([H:17])[H:18])[H:15])([H:10])[H:11])([H:7])([H:8])[H:9]>>[C:1](=[C:2]([H:10])[H:11])([H:7])[H:9].[C:3]1([H:12])=[C:5]([H:15])[C:4]1([H:13])[H:14].[C:6]([H:8])([H:16])([H:17])[H:18]"
C        1.48736863       0.67714580       0.47217997
C        1.56679380      -0.46956981      -0.37010140
C        0.08926549      -1.27822257      -0.65071615
C       -0.76948515      -1.44998325       0.57681176
C       -1.14110255      -0.64575946      -0.57349384
C       -1.10494118       1.62467946       0.08993114
H        1.67152771       1.65880309       0.05547605
H       -0.10345317       0.98434100       0.30118155
H        1.69491279       0.58016826       1.53112177
H        2.13212535      -1.29917721       0.04980951
H        1.90021582      -0.24963724      -1.38338837
H        0.31089594      -2.05048796      -1.37543872
H       -0.38193153      -0.91506402       1.45538683
H       -1.29204420      -2.37312180       0.80791983
H       -2.00336889      -0.49929650      -1.19814309
H       -2.00985702       1.31844740       0.60526004
H       -1.31215230       1.84531975      -0.95367804
H       -0.73476959       2.54141510       0.55988108
18
Frame=1 idx=000849 GeodesicLength=0.13536392376608591 rxn_smarts="[C:1]([C:2]([C@@:3]1([H:12])[C:4]([H:13])([H:14])[C@:5]1([C:6]([H:16])([H:17])[H:18])[H:15])([H:10])[H:11])([H:7])([H:8])[H:9]>>[C:1](=[C:2]([H:10])[H:11])([H:7])[H:9].[C:3]1([H:12])=[C:5]([H:15])[C:4]1([H:13])[H:14].[C:6]([H:8])([H:16])([H:17])[H:18]"
C        1.51554286       0.70310246       0.42917960
C        1.58821575      -0.48402415      -0.35397822
C        0.08181373      -1.28047845      -0.65389592
C       -0.78744173      -1.45466233       0.56544395
C       -1.14487003      -0.63796968      -0.58404342
C       -1.13096632       1.61533436       0.12165897
H        1.71402908       1.66000782      -0.03681011
H       -0.07345827       1.01040513       0.25712942
H        1.71747019       0.66494626       1.49284159
H        2.11095961      -1.30671341       0.13046019
H        1.97861204      -0.32616028      -1.35858264
H        0.30671160      -2.04443245      -1.38626588
H       -0.40446736      -0.92996560       1.45134484
H       -1.31651017      -2.37747451       0.78258084
H       -2.00186884      -0.50114736      -1.21865075
H       -2.04547341       1.30018107       0.61547291
H       -1.34025172       1.88920725      -0.90896082
H       -0.76804703       2.49984385       0.65507545
18
Frame=2 idx=000849 GeodesicLength=0.2697327576248714 rxn_smarts="[C:1]([C:2]([C@@:3]1([H:12])[C:4]([H:13])([H:14])[C@:5]1([C:6]([H:16])([H:17])[H:18])[H:15])([H:10])[H:11])([H:7])([H:8])[H:9]>>[C:1](=[C:2]([H:10])[H:11])([H:7])[H:9].[C:3]1([H:12])=[C:5]([H:15])[C:4]1([H:13])[H:14].[C:6]([H:8])([H:16])([H:17])[H:18]"
C        1.54277089       0.73002149       0.38286197
C        1.60879146      -0.49675928      -0.33540744
C        0.07416182      -1.28165922      -0.65684020
C       -0.80666058      -1.45993730       0.55313136
C       -1.14938180      -0.63035895      -0.59502360
C       -1.15449346       1.60294666       0.15476928
H        1.75692496       1.65761551      -0.13377683
H       -0.04503474       1.03960869       0.20822940
H        1.74139279       0.75397500       1.44748948
H        2.08560238      -1.30614212       0.21490806
H        2.05608761      -0.40509545      -1.32454662
H        0.30430691      -2.03631365      -1.39705980
H       -0.42950605      -0.94678982       1.44741791
H       -1.34135798      -2.38300039       0.75477399
H       -2.00035897      -0.50200145      -1.24000528
H       -2.07981295       1.28243304       0.62599550
H       -1.36814085       1.93365279      -0.85836355
H       -0.79529144       2.44780445       0.75144636
18
Frame=3 idx=000849 GeodesicLength=0.40329541075208575 rxn_smarts="[C:1]([C:2]([C@@:3]1([H:12])[C:4]([H:13])([H:14])[C@:5]1([C:6]([H:16])([H:17])[H:18])[H:15])([H:10])[H:11])([H:7])([H:8])[H:9]>>[C:1](=[C:2]([H:10])[H:11])([H:7])[H:9].[C:3]1([H:12])=[C:5]([H:15])[C:4]1([H:13])[H:14].[C:6]([H:8])([H:16])([H:17])[H:18]"
C        1.56868615       0.75783366       0.33340678
C        1.62806504      -0.50710028      -0.31419993
C        0.06612036      -1.28161319      -0.65945761
C       -0.82704728      -1.46681729       0.53991160
C       -1.15504435      -0.62320676      -0.60568817
C       -1.17480570       1.58780918       0.18817978
H        1.80015825       1.65105045      -0.23481627
H       -0.01886536       1.07158385       0.15671623
H        1.76638939       0.84664170       1.39471407
H        2.05575171      -1.29627211       0.30224907
H        2.13150498      -0.48457354      -1.28025853
H        0.30365567      -2.02538537      -1.40817431
H       -0.45737224      -0.96663907       1.44373793
H       -1.36614345      -2.39099767       0.72406297
H       -1.99944759      -0.50219586      -1.26117511
H       -2.11187844       1.26629089       0.63681613
H       -1.39438795       1.97807442      -0.80256019
H       -0.81533920       2.38551698       0.84653555
18
Frame=4 idx=000849 GeodesicLength=0.5359303439348666 rxn_smarts="[C:1]([C:2]([C@@:3]1([H:12])[C:4]([H:13])([H:14])[C@:5]1([C:6]([H:16])([H:17])[H:18])[H:15])([H:10])[H:11])([H:7])([H:8])[H:9]>>[C:1](=[C:2]([H:10])[H:11])([H:7])[H:9].[C:3]1([H:12])=[C:5]([H:15])[C:4]1([H:13])[H:14].[C:6]([H:8])([H:16])([H:17])[H:18]"
C        1.59314171       0.78625246       0.28076855
C        1.64573472      -0.51453467      -0.29012000
C        0.05758984      -1.28020175      -0.66175475
C       -0.84846941      -1.47605373       0.52567812
C       -1.16209469      -0.61661315      -0.61554489
C       -1.19160572       1.57040644       0.22121997
H        1.84300564       1.63964753      -0.33938683
H        0.00455461       1.10555138       0.10504747
H        1.79266239       0.94249302       1.33388868
H        2.02111037      -1.27597476       0.39207009
H        2.20387651      -0.56352929      -1.22479125
H        0.30479985      -2.01091499      -1.42001538
H       -0.48833070      -0.99036189       1.44031933
H       -1.39045807      -2.40229230       0.68984162
H       -1.99941185      -0.50183151      -1.28168452
H       -2.14081942       1.25245989       0.64849806
H       -1.41785504       2.02175584      -0.74209507
H       -0.82743074       2.31374149       0.93806079
18
Frame=5 idx=000849 GeodesicLength=0.6680202668917169 rxn_smarts="[C:1]([C:2]([C@@:3]1([H:12])[C:4]([H:13])([H:14])[C@:5]1([C:6]([H:16])([H:17])[H:18])[H:15])([H:10])[H:11])([H:7])([H:8])[H:9]>>[C:1](=[C:2]([H:10])[H:11])([H:7])[H:9].[C:3]1([H:12])=[C:5]([H:15])[C:4]1([H:13])[H:14].[C:6]([H:8])([H:16])([H:17])[H:18]"
C        1.61635122       0.81492693       0.22482531
C        1.66167384      -0.51877679      -0.26300235
C        0.04858516      -1.27751872      -0.66365583
C       -0.87081717      -1.48832671       0.51030710
C       -1.17058561      -0.61069291      -0.62419673
C       -1.20493073       1.55144657       0.25342923
H        1.88518056       1.62252882      -0.44739414
H        0.02540849       1.14086622       0.05538262
H        1.81987135       1.04097742       1.26441838
H        1.98136611      -1.24457158       0.48353211
H        2.27253402      -0.64049423      -1.15735505
H        0.30788140      -1.99258771      -1.43258726
H       -0.52268305      -1.01860675       1.43697097
H       -1.41410368      -2.41756118       0.65169595
H       -2.00034706      -0.50097644      -1.30105886
H       -2.16615810       1.24131681       0.66157576
H       -1.43752458       2.06456124      -0.67737281
H       -0.83170215       2.23348901       1.02448558
18
Frame=6 idx=000849 GeodesicLength=0.7995583025154586 rxn_smarts="[C:1]([C:2]([C@@:3]1([H:12])[C:4]([H:13])([H:14])[C@:5]1([C:6]([H:16])([H:17])[H:18])[H:15])([H:10])[H:11])([H:7])([H:8])[H:9]>>[C:1](=[C:2]([H:10])[H:11])([H:7])[H:9].[C:3]1([H:12])=[C:5]([H:15])[C:4]1([H:13])[H:14].[C:6]([H:8])([H:16])([H:17])[H:18]"
C        1.63850833       0.84319499       0.16561573
C        1.67585386      -0.51955287      -0.23265140
C        0.03916281      -1.27362890      -0.66516903
C       -0.89392025      -1.50394462       0.49363224
C       -1.18049057      -0.60547904      -0.63145377
C       -1.21491023       1.53143465       0.28473091
H        1.92648796       1.59875678      -0.55798673
H        0.04410622       1.17721723       0.00831866
H        1.84740063       1.14104020       1.18587785
H        1.93631226      -1.20140208       0.57585033
H        2.33671830      -0.71424576      -1.07731007
H        0.31307690      -1.97009213      -1.44592882
H       -0.56058100      -1.05164767       1.43345215
H       -1.43682264      -2.43697680       0.60924052
H       -2.00223258      -0.49962922      -1.31912394
H       -2.18723844       1.23270046       0.67739795
H       -1.45322352       2.10590004      -0.60855027
H       -0.82820804       2.14635475       1.10405770
18
Frame=7 idx=000849 GeodesicLength=0.9307897869497898 rxn_smarts="[C:1]([C:2]([C@@:3]1([H:12])[C:4]([H:13])([H:14])[C@:5]1([C:6]([H:16])([H:17])[H:18])[H:15])([H:10])[H:11])([H:7])([H:8])[H:9]>>[C:1](=[C:2]([H:10])[H:11])([H:7])[H:9].[C:3]1([H:12])=[C:5]([H:15])[C:4]1([H:13])[H:14].[C:6]([H:8])([H:16])([H:17])[H:18]"
C        1.65976071       0.87029925       0.10333634
C        1.68821304      -0.51661251      -0.19901949
C        0.02936225      -1.26869634      -0.66626865
C       -0.91753056      -1.52302388       0.47555999
C       -1.19175966      -0.60106151      -0.63719034
C       -1.22162265       1.51079271       0.31507965
H        1.96718597       1.56733805      -0.67000584
H        0.06123707       1.21456833      -0.03629573
H        1.87421050       1.24136666       1.09813440
H        1.88567420      -1.14603493       0.66775180
H        2.39566539      -0.78306926      -0.98441403
H        0.32048805      -1.94344103      -1.45971643
H       -0.60191714      -1.08954155       1.42943900
H       -1.45831767      -2.46044132       0.56243266
H       -2.00504854      -0.49785554      -1.33571494
H       -2.20360848       1.22628585       0.69691228
H       -1.46478723       2.14549011      -0.53569840
H       -0.81720526       2.05363692       1.17567771
18
Frame=8 idx=000849 GeodesicLength=1.0616927546233255 rxn_smarts="[C:1]([C:2]([C@@:3]1([H:12])[C:4]([H:13])([H:14])[C@:5]1([C:6]([H:16])([H:17])[H:18])[H:15])([H:10])[H:11])([H:7])([H:8])[H:9]>>[C:1](=[C:2]([H:10])[H:11])([H:7])[H:9].[C:3]1([H:12])=[C:5]([H:15])[C:4]1([H:13])[H:14].[C:6]([H:8])([H:16])([H:17])[H:18]"
C        1.68008249       0.89528134       0.03889710
C        1.69861792      -0.50969974      -0.16248804
C        0.01912205      -1.26286550      -0.66694327
C       -0.94108400      -1.54542689       0.45624273
C       -1.20444531      -0.59759952      -0.64114764
C       -1.22513292       1.48985538       0.34415280
H        2.00812810       1.52773260      -0.78078305
H        0.07731934       1.25294455      -0.07906357
H        1.89878491       1.33968314       1.00226152
H        1.82959620      -1.07897562       0.75685891
H        2.44823206      -0.84461046      -0.87967872
H        0.32988657      -1.91279475      -1.47346993
H       -0.64598158      -1.13195257       1.42463838
H       -1.47786934      -2.48753973       0.51184360
H       -2.00904754      -0.49600289      -1.35036309
H       -2.21488115       1.22184619       0.72061641
H       -1.47208923       2.18275643      -0.45946502
H       -0.79923858       1.95736804       1.23789089
18
Frame=9 idx=000849 GeodesicLength=1.1923912886166756 rxn_smarts="[C:1]([C:2]([C@@:3]1([H:12])[C:4]([H:13])([H:14])[C@:5]1([C:6]([H:16])([H:17])[H:18])[H:15])([H:10])[H:11])([H:7])([H:8])[H:9]>>[C:1](=[C:2]([H:10])[H:11])([H:7])[H:9].[C:3]1([H:12])=[C:5]([H:15])[C:4]1([H:13])[H:14].[C:6]([H:8])([H:16])([H:17])[H:18]"
C        1.69939996       0.91727702      -0.02647678
C        1.70702843      -0.49871001      -0.12372108
C        0.00828375      -1.25626078      -0.66722775
C       -0.96395832      -1.57066055       0.43594303
C       -1.21869534      -0.59524889      -0.64308826
C       -1.22565259       1.46882921       0.37154334
H        2.05026630       1.48001719      -0.88717120
H        0.09270771       1.29223784      -0.12046191
H        1.92001125       1.43361231       0.89998583
H        1.76861114      -1.00152942       0.84052699
H        2.49363508      -0.89665610      -0.76504774
H        0.34069112      -1.87847343      -1.48662494
H       -0.69164045      -1.17811809       1.41872444
H       -1.49478800      -2.51740470       0.45840110
H       -2.01468404      -0.49455139      -1.36254167
H       -2.22103306       1.21911815       0.74841975
H       -1.47495391       2.21701741      -0.38080313
H       -0.77522903       1.85950422       1.28961998
18
Frame=10 idx=000849 GeodesicLength=1.3235415382963531 rxn_smarts="[C:1]([C:2]([C@@:3]1([H:12])[C:4]([H:13])([H:14])[C@:5]1([C:6]([H:16])([H:17])[H:18])[H:15])([H:10])[H:11])([H:7])([H:8])[H:9]>>[C:1](=[C:2]([H:10])[H:11])([H:7])[H:9].[C:3]1([H:12])=[C:5]([H:15])[C:4]1([H:13])[H:14].[C:6]([H:8])([H:16])([H:17])[H:18]"
C        1.71765483       0.93572997      -0.09163854
C        1.71352867      -0.48363807      -0.08354750
C       -0.00333950      -1.24920505      -0.66741330
C       -0.98576044      -1.59841345       0.41502504
C       -1.23462790      -0.59427869      -0.64296313
C       -1.22346522       1.44806167       0.39702532
H        2.09435055       1.42489670      -0.98631490
H        0.10768876       1.33238330      -0.16071591
H        1.93726319       1.52120931       0.79312875
H        1.70346410      -0.91531760       0.91641421
H        2.53173655      -0.93771536      -0.64267596
H        0.35218181      -1.84117152      -1.49917037
H       -0.73784316      -1.22732160       1.41166800
H       -1.50875562      -2.54962023       0.40313494
H       -2.02232976      -0.49417390      -1.37202842
H       -2.22217415       1.21785555       0.78015457
H       -1.47314576       2.24799420      -0.30067143
H       -0.74642696       1.76272476       1.33058863
18
Frame=11 idx=000849 GeodesicLength=1.4554150134935522 rxn_smarts="[C:1]([C:2]([C@@:3]1([H:12])[C:4]([H:13])([H:14])[C@:5]1([C:6]([H:16])([H:17])[H:18])[H:15])([H:10])[H:11])([H:7])([H:8])[H:9]>>[C:1](=[C:2]([H:10])[H:11])([H:7])[H:9].[C:3]1([H:12])=[C:5]([H:15])[C:4]1([H:13])[H:14].[C:6]([H:8])([H:16])([H:17])[H:18]"
C        1.73481239       0.95024087      -0.15522508
C        1.71831500      -0.46483888      -0.04311455
C       -0.01592772      -1.24193849      -0.66770583
C       -1.00593661      -1.62793661       0.39406587
C       -1.25231705      -0.59479466      -0.64072375
C       -1.21924371       1.42782704       0.42016738
H        2.14113999       1.36377667      -1.07529889
H        0.12246279       1.37314817      -0.19978908
H        1.95033489       1.60064382       0.68416309
H        1.63559601      -0.82326896       0.98209772
H        2.56255440      -0.96663483      -0.51580326
H        0.36342580      -1.80172833      -1.51087931
H       -0.78309329      -1.27835318       1.40353425
H       -1.51937674      -2.58321365       0.34763023
H       -2.03237809      -0.49545357      -1.37853233
H       -2.21904296       1.21808943       0.81462809
H       -1.46644504       2.27561000      -0.22035388
H       -0.71488003       1.66882515       1.36113934
18
Frame=12 idx=000849 GeodesicLength=1.5883292159825901 rxn_smarts="[C:1]([C:2]([C@@:3]1([H:12])[C:4]([H:13])([H:14])[C@:5]1([C:6]([H:16])([H:17])[H:18])[H:15])([H:10])[H:11])([H:7])([H:8])[H:9]>>[C:1](=[C:2]([H:10])[H:11])([H:7])[H:9].[C:3]1([H:12])=[C:5]([H:15])[C:4]1([H:13])[H:14].[C:6]([H:8])([H:16])([H:17])[H:18]"
C        1.75103016       0.96079217      -0.21601728
C        1.72181883      -0.44292332      -0.00359398
C       -0.02966718      -1.23467332      -0.66832688
C       -1.02412405      -1.65834482       0.37370171
C       -1.27187025      -0.59685055      -0.63644922
C       -1.21392190       1.40836304       0.44058632
H        2.19142711       1.29869739      -1.15184192
H        0.13723185       1.41426039      -0.23753251
H        1.95954901       1.67085329       0.57569329
H        1.56695807      -0.72892716       1.03598082
H        2.58666437      -0.98307344      -0.38814090
H        0.37340948      -1.76107979      -1.52168809
H       -0.82603976      -1.32982294       1.39460324
H       -1.52660355      -2.61711858       0.29356719
H       -2.04527874      -0.49896509      -1.38196255
H       -2.21284497       1.21997167       0.85038075
H       -1.45489759       2.29986318      -0.14117077
H       -0.68284089       1.57897787       1.38221079
18
Frame=13 idx=000849 GeodesicLength=1.721809117034576 rxn_smarts="[C:1]([C:2]([C@@:3]1([H:12])[C:4]([H:13])([H:14])[C@:5]1([C:6]([H:16])([H:17])[H:18])[H:15])([H:10])[H:11])([H:7])([H:8])[H:9]>>[C:1](=[C:2]([H:10])[H:11])([H:7])[H:9].[C:3]1([H:12])=[C:5]([H:15])[C:4]1([H:13])[H:14].[C:6]([H:8])([H:16])([H:17])[H:18]"
C        1.76615718       0.96762051      -0.27354069
C        1.72421528      -0.41848076       0.03443236
C       -0.04468163      -1.22749559      -0.66944806
C       -1.04022970      -1.68923155       0.35415724
C       -1.29303653      -0.60034365      -0.63018466
C       -1.20787566       1.38974809       0.45823416
H        2.24408175       1.23138465      -1.21530946
H        0.15226730       1.45560406      -0.27370970
H        1.96560026       1.73166900       0.46883097
H        1.49874349      -0.63458960       1.07801652
H        2.60481595      -0.98777390      -0.26129673
H        0.38133667      -1.71939450      -1.53188313
H       -0.86602056      -1.38118985       1.38499482
H       -1.53065992      -2.65091487       0.24154473
H       -2.06077709      -0.50476989      -1.38224731
H       -2.20386318       1.22327288       0.88647313
H       -1.43835968       2.32075266      -0.06391031
H       -0.65171394       1.49413231       1.39484612
18
Frame=14 idx=000849 GeodesicLength=1.8561968965748539 rxn_smarts="[C:1]([C:2]([C@@:3]1([H:12])[C:4]([H:13])([H:14])[C@:5]1([C:6]([H:16])([H:17])[H:18])[H:15])([H:10])[H:11])([H:7])([H:8])[H:9]>>[C:1](=[C:2]([H:10])[H:11])([H:7])[H:9].[C:3]1([H:12])=[C:5]([H:15])[C:4]1([H:13])[H:14].[C:6]([H:8])([H:16])([H:17])[H:18]"
C        1.78061175       0.97112401      -0.32737852
C        1.72611984      -0.39221781       0.07027725
C       -0.06106475      -1.22054807      -0.67125299
C       -1.05427768      -1.71990080       0.33581367
C       -1.31592274      -0.60524237      -0.62222318
C       -1.20206966       1.37214753       0.47305718
H        2.29962223       1.16377311      -1.26530943
H        0.16778746       1.49705554      -0.30834880
H        1.96932986       1.78339303       0.36524291
H        1.43275057      -0.54312743       1.10855851
H        2.61820516      -0.98148919      -0.13798183
H        0.38656951      -1.67750401      -1.54161073
H       -0.90247085      -1.43144064       1.37513287
H       -1.53198080      -2.68384304       0.19257371
H       -2.07924871      -0.51315094      -1.37970904
H       -2.19346673       1.22821479       0.92186914
H       -1.41740562       2.33842625       0.01070188
H       -0.62308885       1.41433004       1.40058742
18
Frame=15 idx=000849 GeodesicLength=1.9911605381039836 rxn_smarts="[C:1]([C:2]([C@@:3]1([H:12])[C:4]([H:13])([H:14])[C@:5]1([C:6]([H:16])([H:17])[H:18])[H:15])([H:10])[H:11])([H:7])([H:8])[H:9]>>[C:1](=[C:2]([H:10])[H:11])([H:7])[H:9].[C:3]1([H:12])=[C:5]([H:15])[C:4]1([H:13])[H:14].[C:6]([H:8])([H:16])([H:17])[H:18]"
C        1.79452448       0.97167887      -0.37759971
C        1.72782818      -0.36467044       0.10381547
C       -0.07883543      -1.21381293      -0.67378609
C       -1.06642514      -1.75012410       0.31872322
C       -1.34036622      -0.61137785      -0.61268600
C       -1.19686990       1.35556625       0.48520935
H        2.35713246       1.09729147      -1.30246412
H        0.18407413       1.53864155      -0.34150456
H        1.97157581       1.82666964       0.26530126
H        1.36991168      -0.45607422       1.12886202
H        2.62772341      -0.96542231      -0.01916190
H        0.38881197      -1.63545752      -1.55109515
H       -0.93543094      -1.48038958       1.36521202
H       -1.53099413      -2.71570025       0.14675668
H       -2.10049065      -0.52391189      -1.37448981
H       -2.18209913       1.23473010       0.95605761
H       -1.39232987       2.35287766       0.08218836
H       -0.59774071       1.33948555       1.40066135
18
Frame=16 idx=000849 GeodesicLength=2.1264604269893677 rxn_smarts="[C:1]([C:2]([C@@:3]1([H:12])[C:4]([H:13])([H:14])[C@:5]1([C:6]([H:16])([H:17])[H:18])[H:15])([H:10])[H:11])([H:7])([H:8])[H:9]>>[C:1](=[C:2]([H:10])[H:11])([H:7])[H:9].[C:3]1([H:12])=[C:5]([H:15])[C:4]1([H:13])[H:14].[C:6]([H:8])([H:16])([H:17])[H:18]"
C        1.80802920       0.96964591      -0.42443508
C        1.72957099      -0.33622141       0.13512261
C       -0.09801611      -1.20725177      -0.67704681
C       -1.07689715      -1.77979278       0.30281392
C       -1.36622455      -0.61862437      -0.60169150
C       -1.19246923       1.33995913       0.49489298
H        2.41571314       1.03301442      -1.32775411
H        0.20142449       1.58044486      -0.37332506
H        1.97307105       1.86228090       0.16907110
H        1.31075680      -0.37429840       1.14042576
H        2.63415830      -0.94064637       0.09472329
H        0.38789094      -1.59324212      -1.56048344
H       -0.96515267      -1.52805538       1.35534919
H       -1.52815172      -2.74641168       0.10391974
H       -2.12428766      -0.53684153      -1.36675987
H       -2.16999188       1.24272388       0.98877076
H       -1.36342414       2.36407444       0.15027273
H       -0.57599981       1.26924226       1.39613379
