15
Frame=0 idx=000877 GeodesicLength=0.0 rxn_smarts="[O:1]([C:2]([C:3]([N:4]1[C:5]([H:12])([H:13])[C:6]1([H:14])[H:15])([H:10])[H:11])([H:8])[H:9])[H:7]>>[H:11][H:15].[O:1]([C:2]([C:3](=[N+:4]1[C:5]([H:12])([H:13])[C-:6]1[H:14])[H:10])([H:8])[H:9])[H:7]"
O       -2.60550562       0.87986923       0.21749624
C       -1.71894609      -0.20585425      -0.00930853
C       -0.43329696      -0.08607003       0.73985246
N        0.62371561       0.46813552       0.16129379
C        1.25832968       0.25818655      -1.12492826
C        1.93861687       0.21272182       0.19171369
H       -2.16142305       1.68876558      -0.04542533
H       -1.51184129      -0.33090182      -1.07887356
H       -2.24879755      -1.09416400       0.33470860
H       -0.47954164       0.00415779       1.82060759
H        0.73157283      -1.63682730       0.83373227
H        1.07324721      -0.70231423      -1.61035814
H        1.25834014       1.12339077      -1.78154689
H        2.74574517       0.75506336       0.65629375
H        1.52978475      -1.33415899       0.69474227
15
Frame=1 idx=000877 GeodesicLength=0.09097986790668171 rxn_smarts="[O:1]([C:2]([C:3]([N:4]1[C:5]([H:12])([H:13])[C:6]1([H:14])[H:15])([H:10])[H:11])([H:8])[H:9])[H:7]>>[H:11][H:15].[O:1]([C:2]([C:3](=[N+:4]1[C:5]([H:12])([H:13])[C-:6]1[H:14])[H:10])([H:8])[H:9])[H:7]"
O       -2.59186283       0.88607868       0.19412100
C       -1.72317217      -0.22092371       0.00662167
C       -0.43298580      -0.09447135       0.74804705
N        0.61866523       0.45239086       0.15019328
C        1.26212440       0.28561965      -1.13452573
C        1.93608242       0.19099856       0.18235581
H       -2.13037982       1.67782463      -0.09063914
H       -1.52114401      -0.38842091      -1.05819248
H       -2.26637400      -1.08755338       0.38401540
H       -0.47944116       0.03581376       1.82483645
H        0.71300930      -1.63921856       0.84963989
H        1.08237936      -0.65626546      -1.65607857
H        1.26314086       1.17783563      -1.75440484
H        2.73505369       0.73002382       0.66513174
H        1.53490452      -1.34973223       0.68887848
15
Frame=2 idx=000877 GeodesicLength=0.1819217134770545 rxn_smarts="[O:1]([C:2]([C:3]([N:4]1[C:5]([H:12])([H:13])[C:6]1([H:14])[H:15])([H:10])[H:11])([H:8])[H:9])[H:7]>>[H:11][H:15].[O:1]([C:2]([C:3](=[N+:4]1[C:5]([H:12])([H:13])[C-:6]1[H:14])[H:10])([H:8])[H:9])[H:7]"
O       -2.57826008       0.89027043       0.16894033
C       -1.72696322      -0.23585337       0.02279540
C       -0.43249279      -0.10175997       0.75669056
N        0.61377490       0.43599665       0.13863349
C        1.26558378       0.31426374      -1.14356262
C        1.93353483       0.16778543       0.17126229
H       -2.10008089       1.66403581      -0.13734605
H       -1.52973915      -0.44609260      -1.03542730
H       -2.28278022      -1.07940783       0.43312017
H       -0.47898985       0.06951821       1.82785905
H        0.69389774      -1.64099051       0.86813887
H        1.08992613      -0.60637774      -1.70218071
H        1.26808911       1.23291904      -1.72403384
H        2.72489324       0.70184581       0.67238326
H        1.53960646      -1.36615308       0.68272709
15
Frame=3 idx=000877 GeodesicLength=0.2728260732461557 rxn_smarts="[O:1]([C:2]([C:3]([N:4]1[C:5]([H:12])([H:13])[C:6]1([H:14])[H:15])([H:10])[H:11])([H:8])[H:9])[H:7]>>[H:11][H:15].[O:1]([C:2]([C:3](=[N+:4]1[C:5]([H:12])([H:13])[C-:6]1[H:14])[H:10])([H:8])[H:9])[H:7]"
O       -2.56477574       0.89231362       0.14202840
C       -1.73034435      -0.25063705       0.03918253
C       -0.43181651      -0.10788501       0.76568074
N        0.60898657       0.41887625       0.12645568
C        1.26878791       0.34413327      -1.15194882
C        1.93089928       0.14299197       0.15826719
H       -2.07061006       1.64731379      -0.18540950
H       -1.53764221      -0.50381393      -1.01056428
H       -2.29803754      -1.06973897       0.48191006
H       -0.47815413       0.10536852       1.82943007
H        0.67432085      -1.64191721       0.88950544
H        1.09595437      -0.55239091      -1.74851111
H        1.27336373       1.28846673      -1.69016935
H        2.71522076       0.67038460       0.67785751
H        1.54384706      -1.38346567       0.67628543
15
Frame=4 idx=000877 GeodesicLength=0.3636497625237084 rxn_smarts="[O:1]([C:2]([C:3]([N:4]1[C:5]([H:12])([H:13])[C:6]1([H:14])[H:15])([H:10])[H:11])([H:8])[H:9])[H:7]>>[H:11][H:15].[O:1]([C:2]([C:3](=[N+:4]1[C:5]([H:12])([H:13])[C-:6]1[H:14])[H:10])([H:8])[H:9])[H:7]"
O       -2.55152737       0.89205956       0.11352699
C       -1.73335355      -0.26526193       0.05574093
C       -0.43096062      -0.11278153       0.77487723
N        0.60422287       0.40094698       0.11345299
C        1.27185103       0.37520244      -1.15958657
C        1.92808008       0.11653667       0.14319923
H       -2.04210632       1.62759571      -0.23457370
H       -1.54490077      -0.56142671      -0.98362466
H       -2.31215432      -1.05858698       0.53024076
H       -0.47689594       0.14345327       1.82925319
H        0.65439083      -1.64170771       0.91400778
H        1.10061411      -0.49407712      -1.79486446
H        1.27921382       1.34421664      -1.65256170
H        2.70595875       0.63552468       0.68133724
H        1.54756741      -1.40169397       0.66957476
15
Frame=5 idx=000877 GeodesicLength=0.45446966711678827 rxn_smarts="[O:1]([C:2]([C:3]([N:4]1[C:5]([H:12])([H:13])[C:6]1([H:14])[H:15])([H:10])[H:11])([H:8])[H:9])[H:7]>>[H:11][H:15].[O:1]([C:2]([C:3](=[N+:4]1[C:5]([H:12])([H:13])[C-:6]1[H:14])[H:10])([H:8])[H:9])[H:7]"
O       -2.53857619       0.88941229       0.08350007
C       -1.73602470      -0.27972835       0.07248889
C       -0.42990416      -0.11639362       0.78414625
N        0.59939118       0.38211122       0.09943582
C        1.27486343       0.40750370      -1.16632382
C        1.92495172       0.08832567       0.12586068
H       -2.01464570       1.60477705      -0.28488842
H       -1.55158454      -0.61891678      -0.95453618
H       -2.32516041      -1.04592843       0.57813919
H       -0.47512612       0.18383617       1.82700386
H        0.63422351      -1.64007733       0.94180223
H        1.10404637      -0.43108447      -1.84099492
H        1.28578691       1.39995566      -1.61082269
H        2.69702278       0.59707705       0.68262698
H        1.55073592      -1.42086982       0.66256206
15
Frame=6 idx=000877 GeodesicLength=0.5451496913954008 rxn_smarts="[O:1]([C:2]([C:3]([N:4]1[C:5]([H:12])([H:13])[C:6]1([H:14])[H:15])([H:10])[H:11])([H:8])[H:9])[H:7]>>[H:11][H:15].[O:1]([C:2]([C:3](=[N+:4]1[C:5]([H:12])([H:13])[C-:6]1[H:14])[H:10])([H:8])[H:9])[H:7]"
O       -2.52612836       0.88421354       0.05221890
C       -1.73842999      -0.29400849       0.08938334
C       -0.42865720      -0.11862986       0.79326418
N        0.59437011       0.36227736       0.08409841
C        1.27801427       0.44092603      -1.17203015
C        1.92137695       0.05831072       0.10608252
H       -1.98849009       1.57884681      -0.33592095
H       -1.55782100      -0.67604519      -0.92336276
H       -2.33704430      -1.03184205       0.62545881
H       -0.47279379       0.22655113       1.82228899
H        0.61399752      -1.63660792       0.97305687
H        1.10664368      -0.36325799      -1.88657170
H        1.29343107       1.45522751      -1.56472868
H        2.68825296       0.55500865       0.68147768
H        1.55327818      -1.44097026       0.65528454
15
Frame=7 idx=000877 GeodesicLength=0.6356463964658893 rxn_smarts="[O:1]([C:2]([C:3]([N:4]1[C:5]([H:12])([H:13])[C:6]1([H:14])[H:15])([H:10])[H:11])([H:8])[H:9])[H:7]>>[H:11][H:15].[O:1]([C:2]([C:3](=[N+:4]1[C:5]([H:12])([H:13])[C-:6]1[H:14])[H:10])([H:8])[H:9])[H:7]"
O       -2.51434691       0.87636549       0.01991002
C       -1.74064235      -0.30807885       0.10643997
C       -0.42720628      -0.11941447       0.80199170
N        0.58900710       0.34134118       0.06713026
C        1.28147948       0.47537674      -1.17651880
C        1.91718584       0.02646677       0.08369476
H       -1.96385573       1.54977591      -0.38747166
H       -1.56377933      -0.73269738      -0.89008353
H       -2.34780710      -1.01633996       0.67221573
H       -0.46979681       0.27158035       1.81468336
H        0.59389174      -1.63088167       1.00774591
H        1.10885818      -0.29038773      -1.93119244
H        1.30239954       1.50956737      -1.51396283
H        2.67944764       0.50928457       0.67768355
H        1.55516498      -1.46195832       0.64773401
15
Frame=8 idx=000877 GeodesicLength=0.7258903123929524 rxn_smarts="[O:1]([C:2]([C:3]([N:4]1[C:5]([H:12])([H:13])[C:6]1([H:14])[H:15])([H:10])[H:11])([H:8])[H:9])[H:7]>>[H:11][H:15].[O:1]([C:2]([C:3](=[N+:4]1[C:5]([H:12])([H:13])[C-:6]1[H:14])[H:10])([H:8])[H:9])[H:7]"
O       -2.50345518       0.86579643      -0.01310051
C       -1.74276519      -0.32189532       0.12368092
C       -0.42554012      -0.11867315       0.81003111
N        0.58312290       0.31919594       0.04816127
C        1.28548450       0.51068501      -1.17958622
C        1.91221109      -0.00716558       0.05857424
H       -1.94104592       1.51758794      -0.43924595
H       -1.56970404      -0.78870278      -0.85470107
H       -2.35744364      -0.99944015       0.71844497
H       -0.46602289       0.31882901       1.80372813
H        0.57410672      -1.62244581       1.04569376
H        1.11136018      -0.21238442      -1.97436294
H        1.31293330       1.56237226      -1.45828299
H        2.67035300       0.46000369       0.67108057
H        1.55640531      -1.48376307       0.63988469
15
Frame=9 idx=000877 GeodesicLength=0.8159467759503363 rxn_smarts="[O:1]([C:2]([C:3]([N:4]1[C:5]([H:12])([H:13])[C:6]1([H:14])[H:15])([H:10])[H:11])([H:8])[H:9])[H:7]>>[H:11][H:15].[O:1]([C:2]([C:3](=[N+:4]1[C:5]([H:12])([H:13])[C-:6]1[H:14])[H:10])([H:8])[H:9])[H:7]"
O       -2.49362344       0.85247251      -0.04664330
C       -1.74487812      -0.33540626       0.14121244
C       -0.42359815      -0.11632334       0.81708512
N        0.57652787       0.29574035       0.02686149
C        1.29020008       0.54673115      -1.18092245
C        1.90625416      -0.04252516       0.03059731
H       -1.92030682       1.48217235      -0.49137655
H       -1.57584630      -0.84410202      -0.81702813
H       -2.36594298      -0.98098946       0.76441982
H       -0.46131377       0.36821471       1.78893739
H        0.55484860      -1.61086589       1.08656506
H        1.11479104      -0.12903105      -2.01549493
H        1.32512952       1.61305034      -1.39722477
H        2.66071224       0.40718975       0.66157080
H        1.55704608      -1.50632798       0.63144069
15
Frame=10 idx=000877 GeodesicLength=0.9056117005982612 rxn_smarts="[O:1]([C:2]([C:3]([N:4]1[C:5]([H:12])([H:13])[C:6]1([H:14])[H:15])([H:10])[H:11])([H:8])[H:9])[H:7]>>[H:11][H:15].[O:1]([C:2]([C:3](=[N+:4]1[C:5]([H:12])([H:13])[C-:6]1[H:14])[H:10])([H:8])[H:9])[H:7]"
O       -2.48516430       0.83640221      -0.08020565
C       -1.74711169      -0.34850375       0.15906332
C       -0.42135746      -0.11231259       0.82272633
N        0.56899954       0.27092918       0.00279106
C        1.29588874       0.58313205      -1.18027436
C        1.89917888      -0.07934048      -0.00017351
H       -1.90207777       1.44367429      -0.54334604
H       -1.58256022      -0.89859651      -0.77709581
H       -2.37324824      -0.96097604       0.81018361
H       -0.45556832       0.41940432       1.76983959
H        0.53636084      -1.59567591       1.12975841
H        1.12025005      -0.04064679      -2.05384031
H        1.33907572       1.66066766      -1.33081433
H        2.65015869       0.35134476       0.64917151
H        1.55717553      -1.52950241       0.62221618
15
Frame=11 idx=000877 GeodesicLength=0.9948203200333396 rxn_smarts="[O:1]([C:2]([C:3]([N:4]1[C:5]([H:12])([H:13])[C:6]1([H:14])[H:15])([H:10])[H:11])([H:8])[H:9])[H:7]>>[H:11][H:15].[O:1]([C:2]([C:3](=[N+:4]1[C:5]([H:12])([H:13])[C-:6]1[H:14])[H:10])([H:8])[H:9])[H:7]"
O       -2.47831779       0.81765016      -0.11340543
C       -1.74954059      -0.36105907       0.17730438
C       -0.41874668      -0.10659692       0.82653172
N        0.56033098       0.24480831      -0.02438096
C        1.30269940       0.61949420      -1.17730684
C        1.89087034      -0.11723780      -0.03357879
H       -1.88671756       1.40217102      -0.59493427
H       -1.59014130      -0.95202942      -0.73480555
H       -2.37926323      -0.93924335       0.85590845
H       -0.44869139       0.47201209       1.74602051
H        0.51887482      -1.57646341       1.17449878
H        1.12875631       0.05235662      -2.08851591
H        1.35462635       1.70429478      -1.25905317
H        2.63835678       0.29303284       0.63404085
H        1.55690356      -1.55319006       0.61167623
15
Frame=12 idx=000877 GeodesicLength=1.0835988820903812 rxn_smarts="[O:1]([C:2]([C:3]([N:4]1[C:5]([H:12])([H:13])[C:6]1([H:14])[H:15])([H:10])[H:11])([H:8])[H:9])[H:7]>>[H:11][H:15].[O:1]([C:2]([C:3](=[N+:4]1[C:5]([H:12])([H:13])[C-:6]1[H:14])[H:10])([H:8])[H:9])[H:7]"
O       -2.47332081       0.79631389      -0.14593070
C       -1.75219563      -0.37291550       0.19598278
C       -0.41568109      -0.09913887       0.82812129
N        0.55039448       0.21763785      -0.05479660
C        1.31067766       0.65536737      -1.17167960
C        1.88131301      -0.15571364      -0.06932296
H       -1.87456995       1.35774642      -0.64600985
H       -1.59876241      -1.00423030      -0.69005436
H       -2.38387273      -0.91559376       0.90172406
H       -0.44070486       0.52553805       1.71725719
H        0.50265143      -1.55285618       1.21994118
H        1.14117898       0.14931830      -2.11853490
H        1.37146190       1.74298210      -1.18215944
H        2.62511114       0.23291423       0.61647396
H        1.55631888      -1.57736996       0.59898796
15
Frame=13 idx=000877 GeodesicLength=1.1721054647479814 rxn_smarts="[O:1]([C:2]([C:3]([N:4]1[C:5]([H:12])([H:13])[C:6]1([H:14])[H:15])([H:10])[H:11])([H:8])[H:9])[H:7]>>[H:11][H:15].[O:1]([C:2]([C:3](=[N+:4]1[C:5]([H:12])([H:13])[C-:6]1[H:14])[H:10])([H:8])[H:9])[H:7]"
O       -2.47018401       0.77243966      -0.17771031
C       -1.75491311      -0.38391173       0.21509319
C       -0.41207349      -0.08990205       0.82722395
N        0.53913208       0.19007871      -0.08819157
C        1.31963732       0.69028923      -1.16302097
C        1.87046834      -0.19415804      -0.10701819
H       -1.86571885       1.31041891      -0.69659897
H       -1.60822813      -1.05507193      -0.64263118
H       -2.38682813      -0.88981934       0.94758250
H       -0.43183674       0.57941268       1.68352341
H        0.48787553      -1.52452952       1.26522118
H        1.15763520       0.24935818      -2.14272784
H        1.38929522       1.77586305      -1.10054487
H        2.61036787       0.17162504       0.59676632
H        1.55537090      -1.60209285       0.58303336
15
Frame=14 idx=000877 GeodesicLength=1.2602998085156378 rxn_smarts="[O:1]([C:2]([C:3]([N:4]1[C:5]([H:12])([H:13])[C:6]1([H:14])[H:15])([H:10])[H:11])([H:8])[H:9])[H:7]>>[H:11][H:15].[O:1]([C:2]([C:3](=[N+:4]1[C:5]([H:12])([H:13])[C-:6]1[H:14])[H:10])([H:8])[H:9])[H:7]"
O       -2.46906097       0.74613935      -0.20839226
C       -1.75752257      -0.39390705       0.23443314
C       -0.40793814      -0.07885533       0.82379601
N        0.52673918       0.16323780      -0.12390360
C        1.32938223       0.72362057      -1.15127079
C        1.85846208      -0.23182946      -0.14604424
H       -1.86037440       1.26059943      -0.74610334
H       -1.61799355      -1.10402771      -0.59287679
H       -2.38796065      -0.86212595       0.99294974
H       -0.42270155       0.63286603       1.64546194
H        0.47483683      -1.49120325       1.30960615
H        1.17824234       0.35080302      -2.16012585
H        1.40780826       1.80211841      -1.01558048
H        2.59425159       0.11000841       0.57533078
H        1.55382932      -1.62744428       0.56271962
15
Frame=15 idx=000877 GeodesicLength=1.348371762946056 rxn_smarts="[O:1]([C:2]([C:3]([N:4]1[C:5]([H:12])([H:13])[C:6]1([H:14])[H:15])([H:10])[H:11])([H:8])[H:9])[H:7]>>[H:11][H:15].[O:1]([C:2]([C:3](=[N+:4]1[C:5]([H:12])([H:13])[C-:6]1[H:14])[H:10])([H:8])[H:9])[H:7]"
O       -2.46988069       0.71737585      -0.23792611
C       -1.75969995      -0.40287524       0.25377697
C       -0.40336947      -0.06594777       0.81809618
N        0.51346746       0.13856372      -0.16084743
C        1.33965015       0.75491169      -1.13651562
C        1.84529233      -0.26811455      -0.18587270
H       -1.85842707       1.20859963      -0.79414060
H       -1.62705922      -1.15073808      -0.54107412
H       -2.38711255      -0.83290867       1.03716015
H       -0.41416477       0.68536560       1.60399557
H        0.46370914      -1.45259254       1.35269777
H        1.20221433       0.45209030      -2.17002695
H        1.42718032       1.82137690      -0.92869814
H        2.57698917       0.04851033       0.55243668
H        1.55121083      -1.65361716       0.53693834
15
Frame=16 idx=000877 GeodesicLength=1.4365198191211181 rxn_smarts="[O:1]([C:2]([C:3]([N:4]1[C:5]([H:12])([H:13])[C:6]1([H:14])[H:15])([H:10])[H:11])([H:8])[H:9])[H:7]>>[H:11][H:15].[O:1]([C:2]([C:3](=[N+:4]1[C:5]([H:12])([H:13])[C-:6]1[H:14])[H:10])([H:8])[H:9])[H:7]"
O       -2.47257903       0.68604376      -0.26619981
C       -1.76116162      -0.41090915       0.27291035
C       -0.39856207      -0.05111758       0.81058042
N        0.49958939       0.11742831      -0.19793522
C        1.35036159       0.78388080      -1.11908714
C        1.83090509      -0.30257282      -0.22607650
H       -1.85973416       1.15475708      -0.84023937
H       -1.63431393      -1.19488082      -0.48765114
H       -2.38426196      -0.80282985       1.07954269
H       -0.40718691       0.73666374       1.56020033
H        0.45463010      -1.40840961       1.39442033
H        1.22880973       0.55178985      -2.17226406
H        1.44790025       1.83365468      -0.84136437
H        2.55871432      -0.01267595       0.52832427
H        1.54688921      -1.68082243       0.50483923
