11
Frame=0 idx=009186 GeodesicLength=0.0 rxn_smarts="[O:1]=[c:2]1[c:3]([H:8])[c:4]([H:9])[n:5]([H:10])[c:6]([H:11])[n:7]1>>[H:8][H:9].[O:1]=[c:2]1[c:3]#[c:4][n:5]([H:10])[c:6]([H:11])[n:7]1"
O        2.31668084      -0.94877615      -0.13576301
C        1.16914146      -0.60677692      -0.07351025
C        0.58054577       0.69459769       0.00467794
C       -0.60064153       1.18986516       0.07281314
N       -1.55121085       0.21197743       0.07227107
C       -1.14853646      -1.09511962       0.00334225
N        0.06369276      -1.50135188      -0.06336964
H        1.84223290       1.71335201       0.38542296
H        1.81052369       1.74500043      -0.39482430
H       -2.53352887       0.42889853       0.12181589
H       -1.94889970      -1.83166665       0.00712391
11
Frame=1 idx=009186 GeodesicLength=0.08692507901506642 rxn_smarts="[O:1]=[c:2]1[c:3]([H:8])[c:4]([H:9])[n:5]([H:10])[c:6]([H:11])[n:7]1>>[H:8][H:9].[O:1]=[c:2]1[c:3]#[c:4][n:5]([H:10])[c:6]([H:11])[n:7]1"
O        2.31656006      -0.95958964      -0.15972329
C        1.17249461      -0.62319334      -0.03516788
C        0.59576265       0.67732084       0.12323584
C       -0.58250128       1.18299900       0.08157369
N       -1.54362615       0.21552092       0.05063531
C       -1.14990156      -1.09454231      -0.02324078
N        0.06030077      -1.50895196      -0.07643433
H        1.85686966       1.73105195       0.35740446
H        1.75203109       1.76573971      -0.43363495
H       -2.52397122       0.43995152       0.10293214
H       -1.95401861      -1.82630670       0.01241980
11
Frame=2 idx=009186 GeodesicLength=0.17537317496180382 rxn_smarts="[O:1]=[c:2]1[c:3]([H:8])[c:4]([H:9])[n:5]([H:10])[c:6]([H:11])[n:7]1>>[H:8][H:9].[O:1]=[c:2]1[c:3]#[c:4][n:5]([H:10])[c:6]([H:11])[n:7]1"
O        2.31504215      -0.96796402      -0.18005811
C        1.17613013      -0.63898213      -0.00094744
C        0.60968501       0.66020023       0.21255908
C       -0.56048527       1.17486100       0.09481414
N       -1.53289981       0.22034678       0.03135335
C       -1.14910282      -1.09327925      -0.03831463
N        0.05855705      -1.51564870      -0.08347775
H        1.86049069       1.74140784       0.33295960
H        1.69166359       1.78463289      -0.46477221
H       -2.51101021       0.45317509       0.08582379
H       -1.95807053      -1.81874972       0.01006018
11
Frame=3 idx=009186 GeodesicLength=0.26448533080523917 rxn_smarts="[O:1]=[c:2]1[c:3]([H:8])[c:4]([H:9])[n:5]([H:10])[c:6]([H:11])[n:7]1>>[H:8][H:9].[O:1]=[c:2]1[c:3]#[c:4][n:5]([H:10])[c:6]([H:11])[n:7]1"
O        2.31289094      -0.97580891      -0.19761557
C        1.17972313      -0.65410298       0.02592845
C        0.62310464       0.64440788       0.27968925
C       -0.53800159       1.16656356       0.10640035
N       -1.52111787       0.22516245       0.01778752
C       -1.14755122      -1.09201977      -0.04696167
N        0.05743334      -1.52250396      -0.08316561
H        1.85886020       1.74771081       0.31359861
H        1.63391436       1.80459820      -0.48872762
H       -2.49707206       0.46683993       0.06964920
H       -1.96218385      -1.81084721       0.00341707
11
Frame=4 idx=009186 GeodesicLength=0.35389952057463414 rxn_smarts="[O:1]=[c:2]1[c:3]([H:8])[c:4]([H:9])[n:5]([H:10])[c:6]([H:11])[n:7]1>>[H:8][H:9].[O:1]=[c:2]1[c:3]#[c:4][n:5]([H:10])[c:6]([H:11])[n:7]1"
O        2.31040839      -0.98384540      -0.21243659
C        1.18319538      -0.66870147       0.04797902
C        0.63637684       0.62990344       0.33298159
C       -0.51583249       1.15823646       0.11612192
N       -1.50904968       0.22973584       0.00766920
C       -1.14573873      -1.09088282      -0.05143520
N        0.05641689      -1.52948101      -0.07936931
H        1.85488298       1.75203927       0.29744184
H        1.57853120       1.82562173      -0.50809100
H       -2.48282694       0.48037127       0.05482231
H       -1.96636384      -1.80299730      -0.00568377
11
Frame=5 idx=009186 GeodesicLength=0.443395940774468 rxn_smarts="[O:1]=[c:2]1[c:3]([H:8])[c:4]([H:9])[n:5]([H:10])[c:6]([H:11])[n:7]1>>[H:8][H:9].[O:1]=[c:2]1[c:3]#[c:4][n:5]([H:10])[c:6]([H:11])[n:7]1"
O        2.30790222      -0.99248320      -0.22340934
C        1.18654628      -0.68283280       0.06759672
C        0.64962197       0.61674456       0.37697226
C       -0.49415127       1.15006557       0.12378399
N       -1.49704655       0.23408001       0.00027499
C       -1.14378980      -1.08978556      -0.05368345
N        0.05541240      -1.53640798      -0.07360880
H        1.84968795       1.75548805       0.28243166
H        1.52492149       1.84693648      -0.52529335
H       -2.46854253       0.49345182       0.04390975
H       -1.97056215      -1.79525696      -0.01897441
11
Frame=6 idx=009186 GeodesicLength=0.5329684559692154 rxn_smarts="[O:1]=[c:2]1[c:3]([H:8])[c:4]([H:9])[n:5]([H:10])[c:6]([H:11])[n:7]1>>[H:8][H:9].[O:1]=[c:2]1[c:3]#[c:4][n:5]([H:10])[c:6]([H:11])[n:7]1"
O        2.30542814      -1.00178428      -0.23160396
C        1.18974542      -0.69662225       0.08527943
C        0.66289034       0.60469907       0.41421989
C       -0.47298294       1.14196373       0.12983847
N       -1.48521575       0.23820854      -0.00560372
C       -1.14184940      -1.08874254      -0.05413500
N        0.05432115      -1.54322440      -0.06710657
H        1.84392860       1.75831944       0.26850530
H        1.47264861       1.86867744      -0.54057163
H       -2.45435013       0.50611085       0.03549180
H       -1.97456405      -1.78760561      -0.03431400
11
Frame=7 idx=009186 GeodesicLength=0.6225685150521185 rxn_smarts="[O:1]=[c:2]1[c:3]([H:8])[c:4]([H:9])[n:5]([H:10])[c:6]([H:11])[n:7]1>>[H:8][H:9].[O:1]=[c:2]1[c:3]#[c:4][n:5]([H:10])[c:6]([H:11])[n:7]1"
O        2.30298449      -1.01172404      -0.23784063
C        1.19279804      -0.71015194       0.10144722
C        0.67623233       0.59357138       0.44638516
C       -0.45229231       1.13390432       0.13468471
N       -1.47357312       0.24214279      -0.01051196
C       -1.13997057      -1.08776338      -0.05327098
N        0.05312195      -1.54992395      -0.06031069
H        1.83796049       1.76068788       0.25553471
H        1.42132181       1.89086783      -0.55413753
H       -2.44028573       0.51841085       0.02854738
H       -1.97829738      -1.78002174      -0.05052740
11
Frame=8 idx=009186 GeodesicLength=0.7121870952485732 rxn_smarts="[O:1]=[c:2]1[c:3]([H:8])[c:4]([H:9])[n:5]([H:10])[c:6]([H:11])[n:7]1>>[H:8][H:9].[O:1]=[c:2]1[c:3]#[c:4][n:5]([H:10])[c:6]([H:11])[n:7]1"
O        2.30061500      -1.02230826      -0.24235635
C        1.19569417      -0.72348644       0.11642887
C        0.68963094       0.58322471       0.47448576
C       -0.43203838       1.12586706       0.13833137
N       -1.46213327       0.24591104      -0.01491111
C       -1.13818081      -1.08681933      -0.05176080
N        0.05180358      -1.55648979      -0.05359995
H        1.83197085       1.76271079       0.24345961
H        1.37070718       1.91349745      -0.56619665
H       -2.42636458       0.53036185       0.02295663
H       -1.98170469      -1.77246908      -0.06683738
11
Frame=9 idx=009186 GeodesicLength=0.8018110308907029 rxn_smarts="[O:1]=[c:2]1[c:3]([H:8])[c:4]([H:9])[n:5]([H:10])[c:6]([H:11])[n:7]1>>[H:8][H:9].[O:1]=[c:2]1[c:3]#[c:4][n:5]([H:10])[c:6]([H:11])[n:7]1"
O        2.29836065      -1.03338423      -0.24594966
C        1.19840368      -0.73673606       0.12989968
C        0.70297412       0.57330261       0.49924371
C       -0.41218328       1.11776567       0.14080708
N       -1.45084514       0.24954366      -0.01987365
C       -1.13650847      -1.08590586      -0.05071342
N        0.05036354      -1.56290108      -0.04829117
H        1.82606312       1.76435636       0.23318889
H        1.32075959       1.93690896      -0.57600022
H       -2.41254548       0.54207563       0.01693588
H       -1.98484234      -1.76502565      -0.07924712
11
Frame=10 idx=009186 GeodesicLength=0.8914359369787902 rxn_smarts="[O:1]=[c:2]1[c:3]([H:8])[c:4]([H:9])[n:5]([H:10])[c:6]([H:11])[n:7]1>>[H:8][H:9].[O:1]=[c:2]1[c:3]#[c:4][n:5]([H:10])[c:6]([H:11])[n:7]1"
O        2.29627121      -1.04500241      -0.24842413
C        1.20094884      -0.74992283       0.14230231
C        0.71628392       0.56380905       0.52115214
C       -0.39265552       1.10961534       0.14207700
N       -1.43970038       0.25306898      -0.02526187
C       -1.13489677      -1.08497159      -0.05042896
N        0.04883085      -1.56918818      -0.04394977
H        1.82036795       1.76575358       0.22427809
H        1.27120539       1.96100098      -0.58409175
H       -2.39881645       0.55352942       0.01124051
H       -1.98783904      -1.75769234      -0.08889358
11
Frame=11 idx=009186 GeodesicLength=0.9810628977219371 rxn_smarts="[O:1]=[c:2]1[c:3]([H:8])[c:4]([H:9])[n:5]([H:10])[c:6]([H:11])[n:7]1>>[H:8][H:9].[O:1]=[c:2]1[c:3]#[c:4][n:5]([H:10])[c:6]([H:11])[n:7]1"
O        2.29432406      -1.05726873      -0.24955192
C        1.20336082      -0.76303487       0.15418258
C        0.72966806       0.55486564       0.54058742
C       -0.37336620       1.10144638       0.14216488
N       -1.42870267       0.25649049      -0.03051301
C       -1.13333126      -1.08401892      -0.05017179
N        0.04720817      -1.57538488      -0.03967700
H        1.81501245       1.76703142       0.21596012
H        1.22167399       1.98554438      -0.59129857
H       -2.38517389       0.56470301       0.00694504
H       -1.99067352      -1.75037393      -0.09862774
11
Frame=12 idx=009186 GeodesicLength=1.0706892343276484 rxn_smarts="[O:1]=[c:2]1[c:3]([H:8])[c:4]([H:9])[n:5]([H:10])[c:6]([H:11])[n:7]1>>[H:8][H:9].[O:1]=[c:2]1[c:3]#[c:4][n:5]([H:10])[c:6]([H:11])[n:7]1"
O        2.29251660      -1.07021170      -0.24936849
C        1.20564818      -0.77609363       0.16571849
C        0.74315851       0.54645094       0.55784139
C       -0.35424006       1.09325073       0.14106403
N       -1.41783586       0.25982544      -0.03557640
C       -1.13180447      -1.08303878      -0.04990151
N        0.04549572      -1.58150223      -0.03534960
H        1.81008122       1.76822384       0.20810979
H        1.17190321       2.01050067      -0.59784098
H       -2.37159428       0.57562824       0.00416927
H       -1.99332878      -1.74303352      -0.10886598
11
Frame=13 idx=009186 GeodesicLength=1.1603127451944617 rxn_smarts="[O:1]=[c:2]1[c:3]([H:8])[c:4]([H:9])[n:5]([H:10])[c:6]([H:11])[n:7]1>>[H:8][H:9].[O:1]=[c:2]1[c:3]#[c:4][n:5]([H:10])[c:6]([H:11])[n:7]1"
O        2.29085909      -1.08383799      -0.24794395
C        1.20781256      -0.78912934       0.17697546
C        0.75675906       0.53850409       0.57313549
C       -0.33520364       1.08500899       0.13872902
N       -1.40707475       0.26309667      -0.04054267
C       -1.13030285      -1.08201576      -0.04980426
N        0.04369742      -1.58754576      -0.03106293
H        1.80564764       1.76934180       0.20080515
H        1.12165789       2.03588380      -0.60376442
H       -2.35803969       0.58634974       0.00279936
H       -1.99581275      -1.73565623      -0.11932624
11
Frame=14 idx=009186 GeodesicLength=1.2499297515470726 rxn_smarts="[O:1]=[c:2]1[c:3]([H:8])[c:4]([H:9])[n:5]([H:10])[c:6]([H:11])[n:7]1>>[H:8][H:9].[O:1]=[c:2]1[c:3]#[c:4][n:5]([H:10])[c:6]([H:11])[n:7]1"
O        2.28937651      -1.09810511      -0.24548155
C        1.20985345      -0.80219063       0.18785745
C        0.77043767       0.53089076       0.58665054
C       -0.31618275       1.07668389       0.13510310
N       -1.39636699       0.26633091      -0.04572155
C       -1.12879540      -1.08093106      -0.05034934
N        0.04183028      -1.59352219      -0.02720481
H        1.80177898       1.77037856       0.19442378
H        1.07073215       2.06180201      -0.60884615
H       -2.34444420       0.59693860       0.00222762
H       -1.99821970      -1.72827573      -0.12865911
11
Frame=15 idx=009186 GeodesicLength=1.339538672902008 rxn_smarts="[O:1]=[c:2]1[c:3]([H:8])[c:4]([H:9])[n:5]([H:10])[c:6]([H:11])[n:7]1>>[H:8][H:9].[O:1]=[c:2]1[c:3]#[c:4][n:5]([H:10])[c:6]([H:11])[n:7]1"
O        2.28805814      -1.11303278      -0.24204206
C        1.21178245      -0.81530129       0.19844476
C        0.78422677       0.52357937       0.59852143
C       -0.29708519       1.06825806       0.13013590
N       -1.38567149       0.26954732      -0.05107032
C       -1.12726323      -1.07977608      -0.05149118
N        0.03989879      -1.59944771      -0.02368992
H        1.79856878       1.77135943       0.18900278
H        1.01880831       2.08822988      -0.61319695
H       -2.33074496       0.60744797       0.00241366
H       -2.00057836      -1.72086418      -0.13702809
11
Frame=16 idx=009186 GeodesicLength=1.429138385259384 rxn_smarts="[O:1]=[c:2]1[c:3]([H:8])[c:4]([H:9])[n:5]([H:10])[c:6]([H:11])[n:7]1>>[H:8][H:9].[O:1]=[c:2]1[c:3]#[c:4][n:5]([H:10])[c:6]([H:11])[n:7]1"
O        2.28689546      -1.12864471      -0.23767272
C        1.21360977      -0.82848707       0.20879708
C        0.79815615       0.51653594       0.60884535
C       -0.27781038       1.05971116       0.12374360
N       -1.37494061       0.27276914      -0.05656919
C       -1.12568635      -1.07853829      -0.05322417
N        0.03790664      -1.60533600      -0.02047145
H        1.79611878       1.77230743       0.18464269
H        0.96553500       2.11513238      -0.61690715
H       -2.31686858       0.61793735       0.00330698
H       -2.00291588      -1.71338733      -0.14449101
