11
Frame=0 idx=005081 GeodesicLength=0.0 rxn_smarts="[N:1]#[C:2][C:3]([C@@:4]1([H:9])[C:5]([H:10])([H:11])[O:6]1)([H:7])[H:8]>>[C:5](=[O:6])([H:10])[H:11].[N:1]#[C:2][C:4](=[C:3]([H:7])[H:8])[H:9]"
N        2.33827144       0.97728311       0.21134047
C        1.35235466       0.36580637       0.26275928
C        0.63588332      -1.14114446      -0.24875283
C       -0.05756805      -0.13480755       0.46938920
C       -1.28442664       0.76906042      -0.21067607
O       -2.26039224       0.01666037       0.13254083
H        0.94726564      -2.07574062       0.20687422
H        0.76907461      -1.03867226      -1.31998065
H       -0.25638608      -0.33663855       1.51799074
H       -1.18206370       1.76541970       0.26127826
H       -1.00201301       0.83277345      -1.28276347
11
Frame=1 idx=005081 GeodesicLength=0.097506196611262 rxn_smarts="[N:1]#[C:2][C:3]([C@@:4]1([H:9])[C:5]([H:10])([H:11])[O:6]1)([H:7])[H:8]>>[C:5](=[O:6])([H:10])[H:11].[N:1]#[C:2][C:4](=[C:3]([H:7])[H:8])[H:9]"
N        2.33420045       0.99879034       0.18177331
C        1.36944804       0.35907671       0.26349454
C        0.63783556      -1.15058417      -0.23669504
C       -0.05459251      -0.14533846       0.48304677
C       -1.28475236       0.78527446      -0.22042311
O       -2.23917539      -0.01031303       0.08863990
H        0.94127892      -2.08714795       0.21992085
H        0.73728470      -1.05614673      -1.31221246
H       -0.24339772      -0.34240730       1.53444703
H       -1.21104708       1.76752170       0.28313571
H       -0.98708261       0.88127444      -1.28512750
11
Frame=2 idx=005081 GeodesicLength=0.19499818522485707 rxn_smarts="[N:1]#[C:2][C:3]([C@@:4]1([H:9])[C:5]([H:10])([H:11])[O:6]1)([H:7])[H:8]>>[C:5](=[O:6])([H:10])[H:11].[N:1]#[C:2][C:4](=[C:3]([H:7])[H:8])[H:9]"
N        2.32899849       1.01968311       0.15391794
C        1.38684137       0.35242307       0.26354748
C        0.64004668      -1.15987920      -0.22510872
C       -0.05142901      -0.15616617       0.49686959
C       -1.28525229       0.80159906      -0.23010158
O       -2.21624842      -0.03497160       0.04536931
H        0.93541526      -2.09853466       0.23228213
H        0.70544935      -1.07332875      -1.30382109
H       -0.22949337      -0.34884495       1.55102540
H       -1.24087568       1.76906903       0.30268395
H       -0.97345237       0.92895107      -1.28666441
11
Frame=3 idx=005081 GeodesicLength=0.2924915321805939 rxn_smarts="[N:1]#[C:2][C:3]([C@@:4]1([H:9])[C:5]([H:10])([H:11])[O:6]1)([H:7])[H:8]>>[C:5](=[O:6])([H:10])[H:11].[N:1]#[C:2][C:4](=[C:3]([H:7])[H:8])[H:9]"
N        2.32279633       1.03995093       0.12781015
C        1.40448816       0.34582554       0.26289015
C        0.64247628      -1.16905526      -0.21399179
C       -0.04810336      -0.16732279       0.51086340
C       -1.28596224       0.81805724      -0.23975703
O       -2.19173295      -0.05739843       0.00286554
H        0.92968150      -2.10988669       0.24397099
H        0.67365614      -1.09025868      -1.29478736
H       -0.21462878      -0.35594627       1.56772536
H       -1.27149602       1.77017191       0.31995137
H       -0.96117505       0.97586250      -1.28754080
11
Frame=4 idx=005081 GeodesicLength=0.3899984595070516 rxn_smarts="[N:1]#[C:2][C:3]([C@@:4]1([H:9])[C:5]([H:10])([H:11])[O:6]1)([H:7])[H:8]>>[C:5](=[O:6])([H:10])[H:11].[N:1]#[C:2][C:4](=[C:3]([H:7])[H:8])[H:9]"
N        2.31573917       1.05957092       0.10361820
C        1.42234149       0.33928011       0.26147399
C        0.64508460      -1.17812609      -0.20336285
C       -0.04464108      -0.17883655       0.52503385
C       -1.28692242       0.83467214      -0.24943809
O       -2.16575840      -0.07761611      -0.03865155
H        0.92410299      -2.12119774       0.25496049
H        0.64199913      -1.10693946      -1.28511886
H       -0.19874990      -0.36372193       1.58454542
H       -1.30279649       1.77093507       0.33485463
H       -0.95039909       1.02197965      -1.28791524
11
Frame=5 idx=005081 GeodesicLength=0.4875358784856245 rxn_smarts="[N:1]#[C:2][C:3]([C@@:4]1([H:9])[C:5]([H:10])([H:11])[O:6]1)([H:7])[H:8]>>[C:5](=[O:6])([H:10])[H:11].[N:1]#[C:2][C:4](=[C:3]([H:7])[H:8])[H:9]"
N        2.30792259       1.07856085       0.08137512
C        1.44035747       0.33275487       0.25929279
C        0.64783266      -1.18712550      -0.19321330
C       -0.04106780      -0.19075380       0.53939276
C       -1.28814587       0.85147153      -0.25920237
O       -2.13848037      -0.09569529      -0.07903312
H        0.91870272      -2.13246362       0.26525687
H        0.61057652      -1.12340203      -1.27480918
H       -0.18181736      -0.37218751       1.60147436
H       -1.33470642       1.77150261       0.34746280
H       -0.94117414       1.06733789      -1.28799674
11
Frame=6 idx=005081 GeodesicLength=0.5850851467455059 rxn_smarts="[N:1]#[C:2][C:3]([C@@:4]1([H:9])[C:5]([H:10])([H:11])[O:6]1)([H:7])[H:8]>>[C:5](=[O:6])([H:10])[H:11].[N:1]#[C:2][C:4](=[C:3]([H:7])[H:8])[H:9]"
N        2.29945485       1.09693886       0.06119201
C        1.45849778       0.32623898       0.25633731
C        0.65068169      -1.19606491      -0.18355509
C       -0.03740835      -0.20310761       0.55396060
C       -1.28965705       0.86847723      -0.26909020
O       -2.11001859      -0.11158619      -0.11806995
H        0.91351241      -2.14369755       0.27482490
H        0.57947772      -1.13963928      -1.26388334
H       -0.16380536      -0.38137955       1.61852006
H       -1.36712244       1.77192538       0.35766650
H       -0.93361265       1.11189465      -1.28790280
11
Frame=7 idx=005081 GeodesicLength=0.682659903057677 rxn_smarts="[N:1]#[C:2][C:3]([C@@:4]1([H:9])[C:5]([H:10])([H:11])[O:6]1)([H:7])[H:8]>>[C:5](=[O:6])([H:10])[H:11].[N:1]#[C:2][C:4](=[C:3]([H:7])[H:8])[H:9]"
N        2.29039311       1.11473972       0.04308674
C        1.47672907       0.31969941       0.25263617
C        0.65359655      -1.20496919      -0.17437107
C       -0.03368475      -0.21595226       0.56876505
C       -1.29147220       0.88571855      -0.27913785
O       -2.08050727      -0.12531690      -0.15560633
H        0.90856436      -2.15491190       0.28365579
H        0.54878860      -1.15565339      -1.25235297
H       -0.14468915      -0.39134447       1.63566688
H       -1.39996322       1.77233935       0.36549609
H       -0.92775509       1.15565108      -1.28783850
11
Frame=8 idx=005081 GeodesicLength=0.7802520572814791 rxn_smarts="[N:1]#[C:2][C:3]([C@@:4]1([H:9])[C:5]([H:10])([H:11])[O:6]1)([H:7])[H:8]>>[C:5](=[O:6])([H:10])[H:11].[N:1]#[C:2][C:4](=[C:3]([H:7])[H:8])[H:9]"
N        2.28081612       1.13198989       0.02713759
C        1.49502478       0.31311457       0.24821172
C        0.65653819      -1.21385244      -0.16565973
C       -0.02991329      -0.22932413       0.58384011
C       -1.29359980       0.90323015      -0.28938197
O       -2.05003841      -0.13684546      -0.19145619
H        0.90388396      -2.16612136       0.29171262
H        0.51858599      -1.17142011      -1.24025019
H       -0.12444702      -0.40213500       1.65291501
H       -1.43312806       1.77281218       0.37084695
H       -0.92372245       1.19855171      -1.28791594
11
Frame=9 idx=005081 GeodesicLength=0.8778753796456307 rxn_smarts="[N:1]#[C:2][C:3]([C@@:4]1([H:9])[C:5]([H:10])([H:11])[O:6]1)([H:7])[H:8]>>[C:5](=[O:6])([H:10])[H:11].[N:1]#[C:2][C:4](=[C:3]([H:7])[H:8])[H:9]"
N        2.27077090       1.14855343       0.01364877
C        1.51334312       0.30655022       0.24302458
C        0.65948931      -1.22267571      -0.15742521
C       -0.02606730      -0.24325951       0.59919124
C       -1.29602258       0.92107510      -0.29996063
O       -2.01871985      -0.14610346      -0.22530233
H        0.89954480      -2.17732575       0.29895640
H        0.48884924      -1.18682449      -1.22767595
H       -0.10300131      -0.41377504       1.67020154
H       -1.46659079       1.77353658       0.37386493
H       -0.92159555       1.24024863      -1.28852334
11
Frame=10 idx=005081 GeodesicLength=0.9755253939182249 rxn_smarts="[N:1]#[C:2][C:3]([C@@:4]1([H:9])[C:5]([H:10])([H:11])[O:6]1)([H:7])[H:8]>>[C:5](=[O:6])([H:10])[H:11].[N:1]#[C:2][C:4](=[C:3]([H:7])[H:8])[H:9]"
N        2.26031772       1.16459695       0.00242051
C        1.53167307       0.29990635       0.23716791
C        0.66240663      -1.23149309      -0.14962714
C       -0.02219317      -0.25781257       0.61487802
C       -1.29876899       0.93926139      -0.31081792
O       -1.98668444      -0.15328433      -0.25714273
H        0.89553548      -2.18854457       0.30538612
H        0.45968880      -1.20194964      -1.21459426
H       -0.08038345      -0.42632810       1.68755571
H       -1.50020923       1.77460239       0.37445658
H       -0.92138242       1.28104523      -1.28968280
11
Frame=11 idx=005081 GeodesicLength=1.0732008974330125 rxn_smarts="[N:1]#[C:2][C:3]([C@@:4]1([H:9])[C:5]([H:10])([H:11])[O:6]1)([H:7])[H:8]>>[C:5](=[O:6])([H:10])[H:11].[N:1]#[C:2][C:4](=[C:3]([H:7])[H:8])[H:9]"
N        2.24948610       1.18014524      -0.00644781
C        1.54998556       0.29318284       0.23065731
C        0.66526989      -1.24030685      -0.14225240
C       -0.01829537      -0.27302959       0.63094462
C       -1.30184732       0.95782253      -0.32198782
O       -1.95407292      -0.15847807      -0.28681770
H        0.89190235      -2.19979285       0.31096560
H        0.43110907      -1.21676476      -1.20104584
H       -0.05656635      -0.43984653       1.70496836
H       -1.53384096       1.77617916       0.37263972
H       -0.92313007       1.32088888      -1.29162405
11
Frame=12 idx=005081 GeodesicLength=1.1708907095673848 rxn_smarts="[N:1]#[C:2][C:3]([C@@:4]1([H:9])[C:5]([H:10])([H:11])[O:6]1)([H:7])[H:8]>>[C:5](=[O:6])([H:10])[H:11].[N:1]#[C:2][C:4](=[C:3]([H:7])[H:8])[H:9]"
N        2.23831569       1.19521233      -0.01287464
C        1.56825813       0.28638860       0.22351481
C        0.66806563      -1.24911398      -0.13529032
C       -0.01437384      -0.28894345       0.64743732
C       -1.30525629       0.97678713      -0.33352675
O       -1.92098795      -0.16173375      -0.31417382
H        0.88868483      -2.21109581       0.31565235
H        0.40310813      -1.23123896      -1.18706880
H       -0.03153188      -0.45438600       1.72243952
H       -1.56737973       1.77840238       0.36840782
H       -0.92690272       1.35972150      -1.29451750
11
Frame=13 idx=005081 GeodesicLength=1.2686034973838107 rxn_smarts="[N:1]#[C:2][C:3]([C@@:4]1([H:9])[C:5]([H:10])([H:11])[O:6]1)([H:7])[H:8]>>[C:5](=[O:6])([H:10])[H:11].[N:1]#[C:2][C:4](=[C:3]([H:7])[H:8])[H:9]"
N        2.22684330       1.20977471      -0.01675322
C        1.58647867       0.27954933       0.21575504
C        0.67079465      -1.25789827      -0.12871999
C       -0.01041340      -0.30560237       0.66438939
C       -1.30897940       0.99620186      -0.34548748
O       -1.88754072      -0.16317476      -0.33907970
H        0.88593535      -2.22246353       0.31942208
H        0.37564700      -1.24535680      -1.17268157
H       -0.00525739      -0.46999778       1.73992533
H       -1.60076022       1.78146450       0.36189035
H       -0.93274784       1.39750313      -1.29866023
11
Frame=14 idx=005081 GeodesicLength=1.366327344694287 rxn_smarts="[N:1]#[C:2][C:3]([C@@:4]1([H:9])[C:5]([H:10])([H:11])[O:6]1)([H:7])[H:8]>>[C:5](=[O:6])([H:10])[H:11].[N:1]#[C:2][C:4](=[C:3]([H:7])[H:8])[H:9]"
N        2.21511514       1.22382702      -0.01801034
C        1.60462619       0.27269146       0.20741598
C        0.67345022      -1.26664405      -0.12253168
C       -0.00639921      -0.32305219       0.68186681
C       -1.31302430       1.01610006      -0.35790014
O       -1.85378787      -0.16279982      -0.36139708
H        0.88369687      -2.23391484       0.32221633
H        0.34868727      -1.25906759      -1.15790039
H        0.02227506      -0.48675404       1.75742353
H       -1.63390605       1.78546358       0.35309300
H       -0.94073331       1.43415042      -1.30427604
11
Frame=15 idx=005081 GeodesicLength=1.4640551127662007 rxn_smarts="[N:1]#[C:2][C:3]([C@@:4]1([H:9])[C:5]([H:10])([H:11])[O:6]1)([H:7])[H:8]>>[C:5](=[O:6])([H:10])[H:11].[N:1]#[C:2][C:4](=[C:3]([H:7])[H:8])[H:9]"
N        2.20317448       1.23733596      -0.01655460
C        1.62268696       0.26585362       0.19853266
C        0.67603285      -1.27532553      -0.11671527
C       -0.00230582      -0.34134330       0.69993336
C       -1.31738442       1.03651880      -0.37080884
O       -1.81977263      -0.16060471      -0.38097743
H        0.88201621      -2.24545989       0.32397172
H        0.32216936      -1.27231764      -1.14273048
H        0.05108853      -0.50473370       1.77491671
H       -1.66676840       1.79050767       0.34203529
H       -0.95093711       1.46956870      -1.31160311
11
Frame=16 idx=005081 GeodesicLength=1.5617862572484706 rxn_smarts="[N:1]#[C:2][C:3]([C@@:4]1([H:9])[C:5]([H:10])([H:11])[O:6]1)([H:7])[H:8]>>[C:5](=[O:6])([H:10])[H:11].[N:1]#[C:2][C:4](=[C:3]([H:7])[H:8])[H:9]"
N        2.19106610       1.25024900      -0.01231127
C        1.64064815       0.25908676       0.18915199
C        0.67855171      -1.28391048      -0.11125804
C        0.00189665      -0.36053272       0.71865144
C       -1.32205026       1.05750732      -0.38425223
O       -1.78553243      -0.15661133      -0.39769270
H        0.88094717      -2.25710447       0.32462621
H        0.29601417      -1.28505662      -1.12715403
H        0.08120275      -0.52402147       1.79238028
H       -1.69931816       1.79670655       0.32878725
H       -0.96342583       1.50368746      -1.32092891
