15
Frame=0 idx=007229 GeodesicLength=0.0 rxn_smarts="[O:1]([C:2]([C@@:3]1([H:11])[C:4]([H:12])([H:13])[C:5]([H:14])([H:15])[C:6]1=[O:7])([H:9])[H:10])[H:8]>>[O:1]([C:2]([C@@:3]([C:4]([H:12])([H:13])[H:14])([C:6](=[C+:5][H:15])[O-:7])[H:11])([H:9])[H:10])[H:8]"
O        2.33116872       0.38640551       0.15178852
C        1.31034492      -0.54176701      -0.15916525
C        0.03901495      -0.07747650       0.53284710
C       -0.48916774       1.25638820       0.00483948
C       -1.99014365      -0.46842210      -0.74856740
C       -1.09992055      -1.02270729       0.23326394
O       -1.27713787      -2.15522845       0.63546263
H        3.13052213       0.13746786      -0.31374346
H        1.55912875      -1.54735970       0.19618317
H        1.13985960      -0.59364290      -1.24281769
H        0.22414230      -0.04710756       1.60811901
H       -1.02974514       1.82868287       0.75519541
H        0.28457457       1.87514084      -0.44804219
H       -1.19753813       1.05117121      -0.85483303
H       -2.93510287      -0.08154493      -0.35053025
15
Frame=1 idx=007229 GeodesicLength=0.07114519364305602 rxn_smarts="[O:1]([C:2]([C@@:3]1([H:11])[C:4]([H:12])([H:13])[C:5]([H:14])([H:15])[C:6]1=[O:7])([H:9])[H:10])[H:8]>>[O:1]([C:2]([C@@:3]([C:4]([H:12])([H:13])[H:14])([C:6](=[C+:5][H:15])[O-:7])[H:11])([H:9])[H:10])[H:8]"
O        2.33559638       0.38525993       0.15875393
C        1.31557739      -0.54251790      -0.15580287
C        0.04243983      -0.07613891       0.53041649
C       -0.49452100       1.25237352      -0.00343761
C       -2.00228438      -0.45058763      -0.72485063
C       -1.09832994      -1.01890259       0.23514074
O       -1.27034446      -2.16627893       0.59572012
H        3.13791136       0.13302655      -0.29986244
H        1.56201086      -1.54816473       0.20113333
H        1.14975396      -0.59559197      -1.24011395
H        0.22282690      -0.04325036       1.60658413
H       -1.03110047       1.82944859       0.74645151
H        0.27925682       1.87350996      -0.45312377
H       -1.20224589       1.04842996      -0.88613752
H       -2.94654736      -0.08061550      -0.31087148
15
Frame=2 idx=007229 GeodesicLength=0.1422536503175951 rxn_smarts="[O:1]([C:2]([C@@:3]1([H:11])[C:4]([H:12])([H:13])[C:5]([H:14])([H:15])[C:6]1=[O:7])([H:9])[H:10])[H:8]>>[O:1]([C:2]([C@@:3]([C:4]([H:12])([H:13])[H:14])([C:6](=[C+:5][H:15])[O-:7])[H:11])([H:9])[H:10])[H:8]"
O        2.33994877       0.38419916       0.16583561
C        1.32079418      -0.54324386      -0.15227991
C        0.04583809      -0.07479925       0.52810843
C       -0.49988190       1.24830947      -0.01162192
C       -2.01392216      -0.43268991      -0.70067245
C       -1.09675032      -1.01519904       0.23708627
O       -1.26391737      -2.17617914       0.55436058
H        3.14519713       0.12865077      -0.28575616
H        1.56482376      -1.54894165       0.20626689
H        1.15962396      -0.59755809      -1.23722615
H        0.22150567      -0.03939437       1.60514231
H       -1.03168977       1.83051186       0.73804760
H        0.27351682       1.87138958      -0.45942534
H       -1.20793270       1.04482406      -0.91681561
H       -2.95715416      -0.07987959      -0.27105015
15
Frame=3 idx=007229 GeodesicLength=0.21333051599480374 rxn_smarts="[O:1]([C:2]([C@@:3]1([H:11])[C:4]([H:12])([H:13])[C:5]([H:14])([H:15])[C:6]1=[O:7])([H:9])[H:10])[H:8]>>[O:1]([C:2]([C@@:3]([C:4]([H:12])([H:13])[H:14])([C:6](=[C+:5][H:15])[O-:7])[H:11])([H:9])[H:10])[H:8]"
O        2.34423911       0.38320385       0.17302906
C        1.32599296      -0.54394512      -0.14860752
C        0.04921984      -0.07345339       0.52593217
C       -0.50523833       1.24420867      -0.01966883
C       -2.02500340      -0.41477141      -0.67606884
C       -1.09517105      -1.01159886       0.23911149
O       -1.25789074      -2.18478238       0.51147247
H        3.15238265       0.12432134      -0.27144161
H        1.56754569      -1.54970371       0.21154686
H        1.16945587      -0.59951580      -1.23416387
H        0.22020788      -0.03553929       1.60380074
H       -1.03155444       1.83185702       0.72998263
H        0.26738313       1.86878379      -0.46688759
H       -1.21465840       1.04033188      -0.94686196
H       -2.96691077      -0.07939656      -0.23117521
15
Frame=4 idx=007229 GeodesicLength=0.284375632913782 rxn_smarts="[O:1]([C:2]([C@@:3]1([H:11])[C:4]([H:12])([H:13])[C:5]([H:14])([H:15])[C:6]1=[O:7])([H:9])[H:10])[H:8]>>[O:1]([C:2]([C@@:3]([C:4]([H:12])([H:13])[H:14])([C:6](=[C+:5][H:15])[O-:7])[H:11])([H:9])[H:10])[H:8]"
O        2.34847930       0.38225764       0.18032759
C        1.33117294      -0.54462221      -0.14479812
C        0.05259518      -0.07209852       0.52389481
C       -0.51058015       1.24008140      -0.02753960
C       -2.03547966      -0.39687388      -0.65107872
C       -1.09357854      -1.00810943       0.24122474
O       -1.25229448      -2.19193554       0.46714669
H        3.15947425       0.12001415      -0.25692556
H        1.57015812      -1.55046400       0.21693623
H        1.17923957      -0.60144188      -1.23093996
H        0.21896097      -0.03168456       1.60256517
H       -1.03073883       1.83346583       0.72224714
H        0.26087392       1.86569615      -0.47544503
H       -1.22247694       1.03493010      -0.97627262
H       -2.97580566      -0.07921525      -0.19134275
15
Frame=5 idx=007229 GeodesicLength=0.35541529109363157 rxn_smarts="[O:1]([C:2]([C@@:3]1([H:11])[C:4]([H:12])([H:13])[C:5]([H:14])([H:15])[C:6]1=[O:7])([H:9])[H:10])[H:8]>>[O:1]([C:2]([C@@:3]([C:4]([H:12])([H:13])[H:14])([C:6](=[C+:5][H:15])[O-:7])[H:11])([H:9])[H:10])[H:8]"
O        2.35268235       0.38134220       0.18772781
C        1.33633595      -0.54527629      -0.14086607
C        0.05597452      -0.07073656       0.52200143
C       -0.51589946       1.23593277      -0.03519508
C       -2.04530966      -0.37903841      -0.62574503
C       -1.09195317      -1.00474910       0.24342438
O       -1.24716028      -2.19747138       0.42151210
H        3.16648067       0.11570636      -0.24221550
H        1.57264800      -1.55123807       0.22239154
H        1.18896988      -0.60330861      -1.22757115
H        0.21779106      -0.02783477       1.60143918
H       -1.02929366       1.83530580       0.71483663
H        0.25400283       1.86214125      -0.48502506
H       -1.23143675       1.02859579      -1.00505776
H       -2.98383227      -0.07937099      -0.15165742
15
Frame=6 idx=007229 GeodesicLength=0.42643746652941805 rxn_smarts="[O:1]([C:2]([C@@:3]1([H:11])[C:4]([H:12])([H:13])[C:5]([H:14])([H:15])[C:6]1=[O:7])([H:9])[H:10])[H:8]>>[O:1]([C:2]([C@@:3]([C:4]([H:12])([H:13])[H:14])([C:6](=[C+:5][H:15])[O-:7])[H:11])([H:9])[H:10])[H:8]"
O        2.35686608       0.38043292       0.19522197
C        1.34147976      -0.54590640      -0.13683688
C        0.05937240      -0.06936177       0.52025705
C       -0.52118563       1.23178240      -0.04258641
C       -2.05443028      -0.36130755      -0.60015159
C       -1.09027937      -1.00150973       0.24570131
O       -1.24254215      -2.20128168       0.37480861
H        3.17340707       0.11137879      -0.22733972
H        1.57499303      -1.55204317       0.22784798
H        1.19863402      -0.60507367      -1.22408265
H        0.21672930      -0.02399887       1.60042877
H       -1.02727023       1.83736728       0.70777036
H        0.24679804       1.85812326      -0.49553911
H       -1.24159222       1.02132612      -1.03319165
H       -2.99097982      -0.07992794      -0.11230803
15
Frame=7 idx=007229 GeodesicLength=0.49744593266726145 rxn_smarts="[O:1]([C:2]([C@@:3]1([H:11])[C:4]([H:12])([H:13])[C:5]([H:14])([H:15])[C:6]1=[O:7])([H:9])[H:10])[H:8]>>[O:1]([C:2]([C@@:3]([C:4]([H:12])([H:13])[H:14])([C:6](=[C+:5][H:15])[O-:7])[H:11])([H:9])[H:10])[H:8]"
O        2.36104215       0.37951503       0.20280778
C        1.34661006      -0.54651335      -0.13273057
C        0.06279852      -0.06798090       0.51865748
C       -0.52643154       1.22763256      -0.04968462
C       -2.06281022      -0.34371971      -0.57435800
C       -1.08853288      -0.99841863       0.24802946
O       -1.23846557      -2.20320436       0.32721777
H        3.18026622       0.10700493      -0.21228580
H        1.57718840      -1.55289492       0.23325434
H        1.20823745      -0.60670626      -1.22050039
H        0.21579329      -0.02019105       1.59952965
H       -1.02471729       1.83961078       0.70103232
H        0.23925715       1.85366029      -0.50690431
H       -1.25298169       1.01310671      -1.06068108
H       -2.99725406      -0.08090111      -0.07338402
15
Frame=8 idx=007229 GeodesicLength=0.5684356462013286 rxn_smarts="[O:1]([C:2]([C@@:3]1([H:11])[C:4]([H:12])([H:13])[C:5]([H:14])([H:15])[C:6]1=[O:7])([H:9])[H:10])[H:8]>>[O:1]([C:2]([C@@:3]([C:4]([H:12])([H:13])[H:14])([C:6](=[C+:5][H:15])[O-:7])[H:11])([H:9])[H:10])[H:8]"
O        2.36522915       0.37856988       0.21047707
C        1.35172815      -0.54709470      -0.12857661
C        0.06626704      -0.06659409       0.51720051
C       -0.53162741       1.22350031      -0.05644876
C       -2.07040266      -0.32630594      -0.54845509
C       -1.08669556      -0.99547917       0.25038282
O       -1.23497808      -2.20314626       0.27901760
H        3.18707062       0.10256266      -0.19706738
H        1.57922464      -1.55380969       0.23854070
H        1.21777321      -0.60816440      -1.21685678
H        0.21501168      -0.01642969       1.59874092
H       -1.02169745       1.84201984       0.69463465
H        0.23139541       1.84877201      -0.51901822
H       -1.26563648       1.00392141      -1.08751095
H       -3.00266226      -0.08232217      -0.03506049
15
Frame=9 idx=007229 GeodesicLength=0.6392985504409132 rxn_smarts="[O:1]([C:2]([C@@:3]1([H:11])[C:4]([H:12])([H:13])[C:5]([H:14])([H:15])[C:6]1=[O:7])([H:9])[H:10])[H:8]>>[O:1]([C:2]([C@@:3]([C:4]([H:12])([H:13])[H:14])([C:6](=[C+:5][H:15])[O-:7])[H:11])([H:9])[H:10])[H:8]"
O        2.36942063       0.37755121       0.21824163
C        1.35683056      -0.54765712      -0.12440912
C        0.06976626      -0.06521414       0.51584925
C       -0.53675923       1.21938027      -0.06287820
C       -2.07726043      -0.30904724      -0.52252657
C       -1.08475349      -0.99269844       0.25267392
O       -1.23197025      -2.20113444       0.23062430
H        3.19380236       0.09802305      -0.18170396
H        1.58108856      -1.55479669       0.24363058
H        1.22726643      -0.60939915      -1.21318859
H        0.21434841      -0.01275035       1.59802396
H       -1.01830613       1.84449716       0.68854365
H        0.22321370       1.84353275      -0.53167649
H       -1.27944069       0.99387673      -1.11382252
H       -3.00724669      -0.08416361       0.00261815
15
Frame=10 idx=007229 GeodesicLength=0.710184401171311 rxn_smarts="[O:1]([C:2]([C@@:3]1([H:11])[C:4]([H:12])([H:13])[C:5]([H:14])([H:15])[C:6]1=[O:7])([H:9])[H:10])[H:8]>>[O:1]([C:2]([C@@:3]([C:4]([H:12])([H:13])[H:14])([C:6](=[C+:5][H:15])[O-:7])[H:11])([H:9])[H:10])[H:8]"
O        2.37365499       0.37645928       0.22607388
C        1.36191910      -0.54819149      -0.12024399
C        0.07333445      -0.06381506       0.51464554
C       -0.54182475       1.21531270      -0.06890123
C       -2.08325984      -0.29202110      -0.49666133
C       -1.08269491      -0.99004232       0.25496716
O       -1.22959717      -2.19709519       0.18214911
H        3.20049637       0.09336328      -0.16621794
H        1.58277099      -1.55587281       0.24847790
H        1.23667522      -0.61038216      -1.20951263
H        0.21388541      -0.00913786       1.59742565
H       -1.01455778       1.84710349       0.68282661
H        0.21474039       1.83792759      -0.54489464
H       -1.29456014       0.98287973      -1.13948530
H       -3.01098232      -0.08648807       0.03935122
15
Frame=11 idx=007229 GeodesicLength=0.7810862558719223 rxn_smarts="[O:1]([C:2]([C@@:3]1([H:11])[C:4]([H:12])([H:13])[C:5]([H:14])([H:15])[C:6]1=[O:7])([H:9])[H:10])[H:8]>>[O:1]([C:2]([C@@:3]([C:4]([H:12])([H:13])[H:14])([C:6](=[C+:5][H:15])[O-:7])[H:11])([H:9])[H:10])[H:8]"
O        2.37794590       0.37526723       0.23396159
C        1.36699539      -0.54869652      -0.11611250
C        0.07698501      -0.06239478       0.51358617
C       -0.54681272       1.21131058      -0.07448236
C       -2.08837404      -0.27526784      -0.47097078
C       -1.08050381      -0.98750161       0.25724193
O       -1.22784940      -2.19101537       0.13392492
H        3.20715884       0.08854482      -0.15062354
H        1.58426739      -1.55704742       0.25301129
H        1.24599645      -0.61107076      -1.20586128
H        0.21364108      -0.00561076       1.59694230
H       -1.01050714       1.84979632       0.67750076
H        0.20598203       1.83200248      -0.55856539
H       -1.31101613       0.97097190      -1.16450334
H       -3.01390884      -0.08928827       0.07495020
15
Frame=12 idx=007229 GeodesicLength=0.8520153886361106 rxn_smarts="[O:1]([C:2]([C@@:3]1([H:11])[C:4]([H:12])([H:13])[C:5]([H:14])([H:15])[C:6]1=[O:7])([H:9])[H:10])[H:8]>>[O:1]([C:2]([C@@:3]([C:4]([H:12])([H:13])[H:14])([C:6](=[C+:5][H:15])[O-:7])[H:11])([H:9])[H:10])[H:8]"
O        2.38230938       0.37395027       0.24188975
C        1.37205834      -0.54917096      -0.11204740
C        0.08073159      -0.06094884       0.51267117
C       -0.55171313       1.20739392      -0.07958137
C       -2.09257717      -0.25881637      -0.44556635
C       -1.07816962      -0.98505910       0.25948261
O       -1.22673193      -2.18292736       0.08630431
H        3.21379432       0.08354115      -0.13495550
H        1.58557443      -1.55833251       0.25715875
H        1.25521868      -0.61142272      -1.20227013
H        0.21363866      -0.00218754       1.59657607
H       -1.00621793       1.85254687       0.67259522
H        0.19694921       1.82580554      -0.57256228
H       -1.32880699       0.95818373      -1.18889479
H       -3.01605786      -0.09255610       0.10919993
15
Frame=13 idx=007229 GeodesicLength=0.92294475960299 rxn_smarts="[O:1]([C:2]([C@@:3]1([H:11])[C:4]([H:12])([H:13])[C:5]([H:14])([H:15])[C:6]1=[O:7])([H:9])[H:10])[H:8]>>[O:1]([C:2]([C@@:3]([C:4]([H:12])([H:13])[H:14])([C:6](=[C+:5][H:15])[O-:7])[H:11])([H:9])[H:10])[H:8]"
O        2.38676087       0.37248899       0.24984318
C        1.37711006      -0.54961093      -0.10808037
C        0.08458694      -0.05947417       0.51189539
C       -0.55651268       1.20358164      -0.08416737
C       -2.09586160      -0.24268148      -0.42056743
C       -1.07568253      -0.98269672       0.26167277
O       -1.22623214      -2.17292029       0.03962125
H        3.22041036       0.07832683      -0.11924030
H        1.58669875      -1.55973162       0.26085652
H        1.26433707      -0.61140033      -1.19877234
H        0.21389605       0.00111210       1.59632344
H       -1.00174882       1.85532595       0.66812963
H        0.18764962       1.81938624      -0.58676241
H       -1.34791698       0.94454589      -1.21267466
H       -3.01749498      -0.09625211       0.14192269
15
Frame=14 idx=007229 GeodesicLength=0.9938767835522403 rxn_smarts="[O:1]([C:2]([C@@:3]1([H:11])[C:4]([H:12])([H:13])[C:5]([H:14])([H:15])[C:6]1=[O:7])([H:9])[H:10])[H:8]>>[O:1]([C:2]([C@@:3]([C:4]([H:12])([H:13])[H:14])([C:6](=[C+:5][H:15])[O-:7])[H:11])([H:9])[H:10])[H:8]"
O        2.39131529       0.37086262       0.25780326
C        1.38214776      -0.55001462      -0.10423655
C        0.08856230      -0.05796394       0.51126312
C       -0.56119890       1.19989828      -0.08820244
C       -2.09821752      -0.22687427      -0.39608600
C       -1.07304421      -0.98038374       0.26381705
O       -1.22632917      -2.16112473      -0.00582213
H        3.22700757       0.07288588      -0.10353059
H        1.58764538      -1.56124749       0.26405450
H        1.27333353      -0.61097652      -1.19539374
H        0.21443505       0.00427480       1.59619036
H       -0.99715414       1.85811718       0.66413765
H        0.17810261       1.81279776      -0.60104814
H       -1.36833317       0.93008539      -1.23586043
H       -3.01827239      -0.10033659       0.17291408
15
Frame=15 idx=007229 GeodesicLength=1.0647885700185487 rxn_smarts="[O:1]([C:2]([C@@:3]1([H:11])[C:4]([H:12])([H:13])[C:5]([H:14])([H:15])[C:6]1=[O:7])([H:9])[H:10])[H:8]>>[O:1]([C:2]([C@@:3]([C:4]([H:12])([H:13])[H:14])([C:6](=[C+:5][H:15])[O-:7])[H:11])([H:9])[H:10])[H:8]"
O        2.39598703       0.36905592       0.26575376
C        1.38717227      -0.55037882      -0.10054006
C        0.09266801      -0.05641230       0.51077314
C       -0.56575540       1.19636764      -0.09165908
C       -2.09965698      -0.21139612      -0.37222567
C       -1.07025561      -0.97809094       0.26591651
O       -1.22698995      -2.14770062      -0.04976069
H        3.23359020       0.06720226      -0.08786602
H        1.58842706      -1.56287765       0.26671052
H        1.28219891      -0.61012778      -1.19215894
H        0.21527194       0.00728756       1.59617834
H       -0.99248096       1.86090584       0.66064455
H        0.16832028       1.80609109      -0.61530646
H       -1.39002972       0.91482319      -1.25847619
H       -3.01846707      -0.10474926       0.20201629
15
Frame=16 idx=007229 GeodesicLength=1.1356614912380305 rxn_smarts="[O:1]([C:2]([C@@:3]1([H:11])[C:4]([H:12])([H:13])[C:5]([H:14])([H:15])[C:6]1=[O:7])([H:9])[H:10])[H:8]>>[O:1]([C:2]([C@@:3]([C:4]([H:12])([H:13])[H:14])([C:6](=[C+:5][H:15])[O-:7])[H:11])([H:9])[H:10])[H:8]"
O        2.40078958       0.36705471       0.27368256
C        1.39218531      -0.55070077      -0.09701291
C        0.09691296      -0.05481413       0.51042392
C       -0.57016602       1.19301499      -0.09451351
C       -2.10019759      -0.19623983      -0.34908290
C       -1.06731855      -0.97578920       0.26797258
O       -1.22818489      -2.13281817      -0.09195208
H        3.24016145       0.06126458      -0.07228936
H        1.58905835      -1.56462006       0.26878759
H        1.29092673      -0.60883292      -1.18909117
H        0.21641928       0.01013749       1.59629074
H       -0.98777519       1.86368113       0.65767768
H        0.15831834       1.79932028      -0.62942938
H       -1.41297730       0.89877266      -1.28055337
H       -3.01815245      -0.10943076       0.22908961
