16
Frame=0 idx=010045 GeodesicLength=0.0 rxn_smarts="[C:1]([C:2]([N:3]([C:4](=[O:5])[O:6][C:7]([H:14])([H:15])[H:16])[H:13])([H:11])[H:12])([H:8])([H:9])[H:10]>>[C:1](/[C:2](=[N:3]\[H:13])[H:11])([H:8])([H:9])[H:10].[C:4](=[O:5])([O:6][C:7]([H:14])([H:15])[H:16])[H:12]"
C       -2.47397702       0.13142452       0.31737142
C       -1.12096518       0.37675794       0.86888231
N       -0.26537814       1.28553578       0.39937027
C        0.91910459       0.28571863       0.44265483
O        1.71921660       0.34414845       1.36536020
O        1.26563645       0.24151171      -0.91405236
C        2.23401650      -0.75632966      -1.17461950
H       -2.52169063       0.32518421      -0.75297424
H       -2.79207885      -0.88932696       0.52588501
H       -3.17027769       0.80306345       0.83165582
H       -0.91942743       0.04030190       1.88186864
H        0.14575443      -0.76141002       0.51294652
H       -0.45215262       1.60187287      -0.54260837
H        2.48919617      -0.67126787      -2.22926263
H        3.11999759      -0.60407716      -0.55620550
H        1.82302522      -1.75310777      -0.97627248
16
Frame=1 idx=010045 GeodesicLength=0.1439654854563196 rxn_smarts="[C:1]([C:2]([N:3]([C:4](=[O:5])[O:6][C:7]([H:14])([H:15])[H:16])[H:13])([H:11])[H:12])([H:8])([H:9])[H:10]>>[C:1](/[C:2](=[N:3]\[H:13])[H:11])([H:8])([H:9])[H:10].[C:4](=[O:5])([O:6][C:7]([H:14])([H:15])[H:16])[H:12]"
C       -2.52868125       0.17555865       0.35257145
C       -1.14604757       0.35969041       0.85581116
N       -0.28001707       1.25015051       0.36552024
C        0.91555507       0.22227698       0.41410667
O        1.69612523       0.27806815       1.35241676
O        1.26700709       0.17451872      -0.93686579
C        2.31687218      -0.74258168      -1.17901297
H       -2.60510592       0.37069400      -0.71602435
H       -2.88442457      -0.83022824       0.57388797
H       -3.17660974       0.87715565       0.88951732
H       -0.93710137       0.03310994       1.87106697
H        0.09625530      -0.81624562       0.49174466
H       -0.47631298       1.56677768      -0.57472735
H        2.55431203      -0.66771829      -2.23848571
H        3.18959518      -0.48630309      -0.57594108
H        1.99857838      -1.76492376      -0.94558593
16
Frame=2 idx=010045 GeodesicLength=0.284780356254955 rxn_smarts="[C:1]([C:2]([N:3]([C:4](=[O:5])[O:6][C:7]([H:14])([H:15])[H:16])[H:13])([H:11])[H:12])([H:8])([H:9])[H:10]>>[C:1](/[C:2](=[N:3]\[H:13])[H:11])([H:8])([H:9])[H:10].[C:4](=[O:5])([O:6][C:7]([H:14])([H:15])[H:16])[H:12]"
C       -2.57999957       0.22166312       0.38849938
C       -1.17158909       0.34107571       0.84135174
N       -0.29452152       1.21060652       0.32839850
C        0.91103033       0.15240982       0.38471111
O        1.67226115       0.20773306       1.33767764
O        1.26814499       0.09812659      -0.96022130
C        2.39774183      -0.72499082      -1.18205970
H       -2.68547519       0.41854998      -0.67744025
H       -2.97377079      -0.76661374       0.62501765
H       -3.17586246       0.95260276       0.94607753
H       -0.95453808       0.02623077       1.85918733
H        0.04363601      -0.87471505       0.47199515
H       -0.50012278       1.52634857      -0.61045510
H        2.62177583      -0.66232630      -2.24513744
H        3.24338283      -0.36274513      -0.59461006
H        2.17790651      -1.76395587      -0.91299217
16
Frame=3 idx=010045 GeodesicLength=0.42242073913316963 rxn_smarts="[C:1]([C:2]([N:3]([C:4](=[O:5])[O:6][C:7]([H:14])([H:15])[H:16])[H:13])([H:11])[H:12])([H:8])([H:9])[H:10]>>[C:1](/[C:2](=[N:3]\[H:13])[H:11])([H:8])([H:9])[H:10].[C:4](=[O:5])([O:6][C:7]([H:14])([H:15])[H:16])[H:12]"
C       -2.62676053       0.26952068       0.42437027
C       -1.19723121       0.32128900       0.82587126
N       -0.30852125       1.16673478       0.28819201
C        0.90568383       0.07567773       0.35525975
O        1.64801410       0.13305575       1.32184112
O        1.26963785       0.01163211      -0.98310138
C        2.47501883      -0.70311141      -1.18369511
H       -2.76096782       0.46816247      -0.63815545
H       -3.05851155      -0.69854267       0.67867227
H       -3.16751092       1.02893691       0.99967025
H       -0.97135533       0.02023763       1.84660268
H       -0.01202459      -0.93672199       0.45494669
H       -0.52311360       1.48018197      -0.64974525
H        2.68989510      -0.65380493      -2.24927361
H        3.27908112      -0.23476079      -0.61281151
H        2.35866596      -1.74848725      -0.87864397
16
Frame=4 idx=010045 GeodesicLength=0.55727718759148 rxn_smarts="[C:1]([C:2]([N:3]([C:4](=[O:5])[O:6][C:7]([H:14])([H:15])[H:16])[H:13])([H:11])[H:12])([H:8])([H:9])[H:10]>>[C:1](/[C:2](=[N:3]\[H:13])[H:11])([H:8])([H:9])[H:10].[C:4](=[O:5])([O:6][C:7]([H:14])([H:15])[H:16])[H:12]"
C       -2.66800356       0.31906970       0.45952445
C       -1.22247703       0.30026471       0.80946030
N       -0.32166018       1.11814199       0.24491605
C        0.89976231      -0.00841349       0.32652330
O        1.62370556       0.05391030       1.30577231
O        1.27259411      -0.08537076      -1.00443173
C        2.54706845      -0.67634407      -1.18381247
H       -2.83036033       0.51904709      -0.59903472
H       -3.13760495      -0.62577937       0.73453755
H       -3.15065709       1.10629319       1.04892344
H       -0.98694222       0.01515958       1.83338178
H       -0.07050666      -1.00236910       0.44121369
H       -0.54489909       1.42757319      -0.69278014
H        2.75691023      -0.64065460      -2.25089916
H        3.29441075      -0.10387345      -0.63073880
H        2.53865971      -1.71665491      -0.84255583
16
Frame=5 idx=010045 GeodesicLength=0.6890908685402727 rxn_smarts="[C:1]([C:2]([N:3]([C:4](=[O:5])[O:6][C:7]([H:14])([H:15])[H:16])[H:13])([H:11])[H:12])([H:8])([H:9])[H:10]>>[C:1](/[C:2](=[N:3]\[H:13])[H:11])([H:8])([H:9])[H:10].[C:4](=[O:5])([O:6][C:7]([H:14])([H:15])[H:16])[H:12]"
C       -2.70273200       0.37030701       0.49334420
C       -1.24678227       0.27769570       0.79200988
N       -0.33361907       1.06410804       0.19854063
C        0.89361602      -0.09993049       0.29902981
O        1.59959311      -0.02921013       1.28967736
O        1.27848169      -0.19262086      -1.02322645
C        2.61212904      -0.64436214      -1.18201525
H       -2.89254259       0.57237796      -0.56035047
H       -3.20984652      -0.54825673       0.79078368
H       -3.12444059       1.18357817       1.09388490
H       -1.00075550       0.01076829       1.81905793
H       -0.13128055      -1.07125527       0.43108150
H       -0.56494524       1.36734743      -0.73950375
H        2.82068439      -0.62239715      -2.24959593
H        3.28726094       0.02816378      -0.64879072
H        2.71517913      -1.66631360      -0.80392731
16
Frame=6 idx=010045 GeodesicLength=0.8185824493760275 rxn_smarts="[C:1]([C:2]([N:3]([C:4](=[O:5])[O:6][C:7]([H:14])([H:15])[H:16])[H:13])([H:11])[H:12])([H:8])([H:9])[H:10]>>[C:1](/[C:2](=[N:3]\[H:13])[H:11])([H:8])([H:9])[H:10].[C:4](=[O:5])([O:6][C:7]([H:14])([H:15])[H:16])[H:12]"
C       -2.72982164       0.42210487       0.52480834
C       -1.26937036       0.25356825       0.77360411
N       -0.34439746       1.00573838       0.15005234
C        0.88812165      -0.19699546       0.27376418
O        1.57651836      -0.11459421       1.27488203
O        1.28948193      -0.30619388      -1.03800611
C        2.66784454      -0.60764767      -1.17819203
H       -2.94600121       0.62628811      -0.52356030
H       -3.27347408      -0.46717956       0.84683087
H       -3.08851177       1.25976839       1.13262339
H       -1.01179121       0.00621124       1.80353270
H       -0.19265886      -1.14222267       0.42399967
H       -0.58350747       1.30112414      -0.78890792
H        2.87879613      -0.59859889      -2.24535348
H        3.25742934       0.15609822      -0.66648497
H        2.88134210      -1.59746927      -0.76359283
16
Frame=7 idx=010045 GeodesicLength=0.9464946700584368 rxn_smarts="[C:1]([C:2]([N:3]([C:4](=[O:5])[O:6][C:7]([H:14])([H:15])[H:16])[H:13])([H:11])[H:12])([H:8])([H:9])[H:10]>>[C:1](/[C:2](=[N:3]\[H:13])[H:11])([H:8])([H:9])[H:10].[C:4](=[O:5])([O:6][C:7]([H:14])([H:15])[H:16])[H:12]"
C       -2.74898065       0.47382743       0.55362822
C       -1.29003533       0.22755589       0.75407693
N       -0.35442169       0.94369097       0.10003780
C        0.88394168      -0.29767405       0.25081862
O        1.55481124      -0.20026603       1.26155939
O        1.30719657      -0.42219280      -1.04840709
C        2.71332163      -0.56711066      -1.17209156
H       -2.99055013       0.68104636      -0.48879547
H       -3.32777952      -0.38340834       0.90150144
H       -3.04287904       1.33335303       1.16558565
H       -1.01968655       0.00039527       1.78627910
H       -0.25323159      -1.21410311       0.41877029
H       -0.60120194       1.23000689      -0.84014706
H        2.93027937      -0.57019449      -2.23792454
H        3.20659618       0.27624712      -0.68366867
H        3.03261978      -1.51117347      -0.72122305
16
Frame=8 idx=010045 GeodesicLength=1.0744171864503356 rxn_smarts="[C:1]([C:2]([N:3]([C:4](=[O:5])[O:6][C:7]([H:14])([H:15])[H:16])[H:13])([H:11])[H:12])([H:8])([H:9])[H:10]>>[C:1](/[C:2](=[N:3]\[H:13])[H:11])([H:8])([H:9])[H:10].[C:4](=[O:5])([O:6][C:7]([H:14])([H:15])[H:16])[H:12]"
C       -2.76067261       0.52460255       0.57981278
C       -1.30898320       0.19972413       0.73348701
N       -0.36426913       0.87944968       0.04912008
C        0.88177442      -0.39949748       0.22998557
O        1.53497188      -0.28417712       1.24981655
O        1.33251089      -0.53592219      -1.05460585
C        2.74875891      -0.52413296      -1.16374225
H       -3.02688175       0.73613854      -0.45619275
H       -3.37280447      -0.29825751       0.95467230
H       -2.98844664       1.40291630       1.19311221
H       -1.02438758      -0.00769681       1.76718813
H       -0.31193168      -1.28563543       0.41413225
H       -0.61904737       1.15642870      -0.89236455
H        2.97550460      -0.53842454      -2.22737001
H        3.13884358       0.38502919      -0.70017037
H        3.16506014      -1.41054505      -0.67688111
16
Frame=9 idx=010045 GeodesicLength=1.1997324101286637 rxn_smarts="[C:1]([C:2]([N:3]([C:4](=[O:5])[O:6][C:7]([H:14])([H:15])[H:16])[H:13])([H:11])[H:12])([H:8])([H:9])[H:10]>>[C:1](/[C:2](=[N:3]\[H:13])[H:11])([H:8])([H:9])[H:10].[C:4](=[O:5])([O:6][C:7]([H:14])([H:15])[H:16])[H:12]"
C       -2.76430462       0.57430774       0.60385916
C       -1.32656312       0.16967756       0.71127467
N       -0.37534535       0.81295411      -0.00229622
C        0.88134522      -0.50083174       0.21025336
O        1.51524293      -0.36422981       1.23838640
O        1.36531186      -0.64508478      -1.05724632
C        2.77432652      -0.47979044      -1.15271458
H       -3.05418986       0.79293983      -0.42421156
H       -3.40719806      -0.21190445       1.00486942
H       -2.92479159       1.46708068       1.21743039
H       -1.02652206      -0.01861982       1.74493127
H       -0.36733482      -1.35586271       0.40813522
H       -0.63834243       1.08027875      -0.94438695
H        3.01525890      -0.50550986      -2.21275084
H        3.05575944       0.48149822      -0.71646529
H        3.27734703      -1.29690327      -0.62906813
16
Frame=10 idx=010045 GeodesicLength=1.3254075259602551 rxn_smarts="[C:1]([C:2]([N:3]([C:4](=[O:5])[O:6][C:7]([H:14])([H:15])[H:16])[H:13])([H:11])[H:12])([H:8])([H:9])[H:10]>>[C:1](/[C:2](=[N:3]\[H:13])[H:11])([H:8])([H:9])[H:10].[C:4](=[O:5])([O:6][C:7]([H:14])([H:15])[H:16])[H:12]"
C       -2.76138410       0.62218647       0.62579089
C       -1.34330091       0.13831772       0.68813630
N       -0.38765745       0.74625280      -0.05370418
C        0.88346240      -0.59999765       0.19169294
O        1.49688892      -0.43967611       1.22783484
O        1.40504044      -0.74694125      -1.05660719
C        2.79144311      -0.43530398      -1.13966856
H       -3.07397569       0.85052307      -0.39349229
H       -3.43234320      -0.12615245       1.05256402
H       -2.85436867       1.52510572       1.23832951
H       -1.02635865      -0.03243203       1.72062312
H       -0.41944050      -1.42429040       0.40116680
H       -0.65961390       1.00491325      -0.99586578
H        3.05080922      -0.47203179      -2.19486777
H        2.96273915       0.56425658      -0.73318975
H        3.36805983      -1.17472996      -0.57874289
16
Frame=11 idx=010045 GeodesicLength=1.4518020083192695 rxn_smarts="[C:1]([C:2]([N:3]([C:4](=[O:5])[O:6][C:7]([H:14])([H:15])[H:16])[H:13])([H:11])[H:12])([H:8])([H:9])[H:10]>>[C:1](/[C:2](=[N:3]\[H:13])[H:11])([H:8])([H:9])[H:10].[C:4](=[O:5])([O:6][C:7]([H:14])([H:15])[H:16])[H:12]"
C       -2.75274159       0.66766263       0.64567372
C       -1.35944729       0.10656291       0.66452363
N       -0.40125186       0.68060869      -0.10467457
C        0.88830615      -0.69597316       0.17401537
O        1.48015210      -0.51023013       1.21772656
O        1.45043403      -0.84003176      -1.05293677
C        2.80118497      -0.39146641      -1.12480499
H       -3.08706233       0.90734683      -0.36417108
H       -3.44870739      -0.04200160       1.09838349
H       -2.77870023       1.57678172       1.25529292
H       -1.02416408      -0.04855103       1.69461626
H       -0.46857251      -1.49033607       0.39342946
H       -0.68309048       0.93246487      -1.04605615
H        3.08283482      -0.43793188      -2.17369056
H        2.86355190       0.63302402      -0.75028767
H        3.43727379      -1.04792963      -0.52703961
16
Frame=12 idx=010045 GeodesicLength=1.5784542613242802 rxn_smarts="[C:1]([C:2]([N:3]([C:4](=[O:5])[O:6][C:7]([H:14])([H:15])[H:16])[H:13])([H:11])[H:12])([H:8])([H:9])[H:10]>>[C:1](/[C:2](=[N:3]\[H:13])[H:11])([H:8])([H:9])[H:10].[C:4](=[O:5])([O:6][C:7]([H:14])([H:15])[H:16])[H:12]"
C       -2.73855211       0.71125227       0.66389697
C       -1.37546004       0.07426831       0.64039398
N       -0.41662135       0.61544882      -0.15531717
C        0.89571911      -0.78914410       0.15701843
O        1.46404026      -0.57635800       1.20802076
O        1.50093841      -0.92531756      -1.04643267
C        2.80432848      -0.34827574      -1.10839489
H       -3.09335048       0.96468870      -0.33564323
H       -3.45663148       0.04102267       1.14192177
H       -2.69788797       1.62239091       1.26952373
H       -1.02066597      -0.06703157       1.66692155
H       -0.51472423      -1.55444328       0.38478225
H       -0.70902628       0.86226173      -1.09509990
H        3.11230444      -0.40349122      -2.14928096
H        2.75896430       0.68932492      -0.76903249
H        3.48662492      -0.91659685      -0.47327814
16
Frame=13 idx=010045 GeodesicLength=1.7055707831088125 rxn_smarts="[C:1]([C:2]([N:3]([C:4](=[O:5])[O:6][C:7]([H:14])([H:15])[H:16])[H:13])([H:11])[H:12])([H:8])([H:9])[H:10]>>[C:1](/[C:2](=[N:3]\[H:13])[H:11])([H:8])([H:9])[H:10].[C:4](=[O:5])([O:6][C:7]([H:14])([H:15])[H:16])[H:12]"
C       -2.71952905       0.75254826       0.68042627
C       -1.39141219       0.04222623       0.61616561
N       -0.43357075       0.55165378      -0.20532803
C        0.90580361      -0.87907592       0.14067441
O        1.44877375      -0.63828371       1.19861419
O        1.55541767      -1.00221422      -1.03711272
C        2.80167523      -0.30610319      -1.09067520
H       -3.09368825       1.02087536      -0.30829411
H       -3.45655052       0.12227385       1.18398422
H       -2.61316523       1.66220733       1.28016225
H       -1.01603479      -0.08722599       1.63802329
H       -0.55846836      -1.61629105       0.37560470
H       -0.73722058       0.79593740      -1.14256180
H        3.13943840      -0.36810083      -2.12174865
H        2.65174419       0.73336920      -0.78912994
H        3.51678688      -0.78379653      -0.41880449
16
Frame=14 idx=010045 GeodesicLength=1.8329307560758807 rxn_smarts="[C:1]([C:2]([N:3]([C:4](=[O:5])[O:6][C:7]([H:14])([H:15])[H:16])[H:13])([H:11])[H:12])([H:8])([H:9])[H:10]>>[C:1](/[C:2](=[N:3]\[H:13])[H:11])([H:8])([H:9])[H:10].[C:4](=[O:5])([O:6][C:7]([H:14])([H:15])[H:16])[H:12]"
C       -2.69577152       0.79194820       0.69549678
C       -1.40755372       0.01033490       0.59181425
N       -0.45232634       0.48862873      -0.25489666
C        0.91862527      -0.96609561       0.12493035
O        1.43379354      -0.69645423       1.18941633
O        1.61360545      -1.07149532      -1.02483309
C        2.79363534      -0.26486955      -1.07182196
H       -3.08779805       1.07709995      -0.28162439
H       -3.44888580       0.20211167       1.22404562
H       -2.52461389       1.69624206       1.28816533
H       -1.01071508      -0.10911724       1.60783213
H       -0.59981383      -1.67621891       0.36599493
H       -0.76766654       0.73277771      -1.18860114
H        3.16465170      -0.33174108      -2.09094442
H        2.54221684       0.76618671      -0.81164539
H        3.52861664      -0.64933799      -0.36332869
16
Frame=15 idx=010045 GeodesicLength=1.9607351208126085 rxn_smarts="[C:1]([C:2]([N:3]([C:4](=[O:5])[O:6][C:7]([H:14])([H:15])[H:16])[H:13])([H:11])[H:12])([H:8])([H:9])[H:10]>>[C:1](/[C:2](=[N:3]\[H:13])[H:11])([H:8])([H:9])[H:10].[C:4](=[O:5])([O:6][C:7]([H:14])([H:15])[H:16])[H:12]"
C       -2.66790839       0.82926238       0.70910041
C       -1.42400000      -0.02092296       0.56758405
N       -0.47277237       0.42684315      -0.30383903
C        0.93431307      -1.05003399       0.10993440
O        1.41924194      -0.75105643       1.18050688
O        1.67470343      -1.13296964      -1.00948650
C        2.78087042      -0.22482778      -1.05214438
H       -3.07644378       1.13241793      -0.25589883
H       -3.43415415       0.28020561       1.26263560
H       -2.43310307       1.72472015       1.29311592
H       -1.00494000      -0.13234708       1.57669477
H       -0.63928075      -1.73408534       0.35621996
H       -0.80009853       0.67386335      -1.23298220
H        3.18812768      -0.29399379      -2.05704083
H        2.43234030       0.78807176      -0.83644926
H        3.52310423      -0.51514733      -0.30795094
16
Frame=16 idx=010045 GeodesicLength=2.0888613871262818 rxn_smarts="[C:1]([C:2]([N:3]([C:4](=[O:5])[O:6][C:7]([H:14])([H:15])[H:16])[H:13])([H:11])[H:12])([H:8])([H:9])[H:10]>>[C:1](/[C:2](=[N:3]\[H:13])[H:11])([H:8])([H:9])[H:10].[C:4](=[O:5])([O:6][C:7]([H:14])([H:15])[H:16])[H:12]"
C       -2.63581945       0.86463597       0.72128799
C       -1.44071122      -0.05153332       0.54353188
N       -0.49489829       0.36608228      -0.35214788
C        0.95293050      -1.13109514       0.09571879
O        1.40478172      -0.80265087       1.17190319
O        1.73835319      -1.18705631      -0.99080491
C        2.76337773      -0.18577864      -1.03163326
H       -3.05939070       1.18694504      -0.23104225
H       -3.41230374       0.35664563       1.29961729
H       -2.33855222       1.74798177       1.29506084
H       -0.99881815      -0.15682251       1.54465835
H       -0.67701259      -1.79021814       0.34622124
H       -0.83423896       0.61907623      -1.27566238
H        3.20957754      -0.25438855      -2.01972177
H        2.32244281       0.79984927      -0.86418118
H        3.50028183      -0.38167270      -0.25280593
