17
Frame=0 idx=010578 GeodesicLength=0.0 rxn_smarts="[C:1]([C@@:2]1([H:11])[C:3]([H:12])([H:13])[C@:4]1([C:5]([C:6]#[C:7][H:17])([H:15])[H:16])[H:14])([H:8])([H:9])[H:10]>>[C:1]([C@@:2]1([H:11])[C:3]([H:12])([H:13])[C@:4]1([C:5](=[C:6]=[C:7]([H:16])[H:17])[H:15])[H:14])([H:8])([H:9])[H:10]"
C       -1.81923802       1.26022726      -0.12348260
C       -1.45960602      -0.18557875       0.10034997
C       -0.89192978      -1.01876541      -0.99260813
C       -0.02194364      -0.66463007       0.19730978
C        1.09523722       0.27727820       0.06604876
C        2.37003366       0.01187822       0.52617327
C        3.32850450      -0.66876816       1.08531189
H       -2.85231758       1.33965536      -0.46741500
H       -1.72594370       1.84203684       0.79564378
H       -1.19174353       1.72691449      -0.88428814
H       -2.12108169      -0.70341236       0.78621319
H       -1.19666832      -2.05177235      -1.09344334
H       -0.65939342      -0.52323101      -1.92776046
H        0.17056740      -1.46811290       0.89719386
H        0.93884643       1.18733962      -0.50338828
H        2.54215107       0.21701569      -0.62089471
H        3.49452534      -0.57807471       2.15903619
17
Frame=1 idx=010578 GeodesicLength=0.09422010481485828 rxn_smarts="[C:1]([C@@:2]1([H:11])[C:3]([H:12])([H:13])[C@:4]1([C:5]([C:6]#[C:7][H:17])([H:15])[H:16])[H:14])([H:8])([H:9])[H:10]>>[C:1]([C@@:2]1([H:11])[C:3]([H:12])([H:13])[C@:4]1([C:5](=[C:6]=[C:7]([H:16])[H:17])[H:15])[H:14])([H:8])([H:9])[H:10]"
C       -1.81602608       1.25987772      -0.11492007
C       -1.45685804      -0.18725012       0.10120691
C       -0.90073765      -1.01895929      -0.99989609
C       -0.02004931      -0.66915034       0.18228935
C        1.09830220       0.27137728       0.03801146
C        2.35415782       0.05225866       0.56798006
C        3.31039959      -0.64630798       1.10148293
H       -2.85188465       1.34285663      -0.44957740
H       -1.71328996       1.83834065       0.80535582
H       -1.19408671       1.72801690      -0.87939402
H       -2.11386303      -0.70585187       0.79084346
H       -1.21032527      -2.05051192      -1.10138527
H       -0.67885679      -0.52123920      -1.93652164
H        0.17659681      -1.47409388       0.87941284
H        0.94230712       1.17342845      -0.54422705
H        2.56663923       0.18619182      -0.61145445
H        3.50757472      -0.57898350       2.17079317
17
Frame=2 idx=010578 GeodesicLength=0.1886383704822472 rxn_smarts="[C:1]([C@@:2]1([H:11])[C:3]([H:12])([H:13])[C@:4]1([C:5]([C:6]#[C:7][H:17])([H:15])[H:16])[H:14])([H:8])([H:9])[H:10]>>[C:1]([C@@:2]1([H:11])[C:3]([H:12])([H:13])[C@:4]1([C:5](=[C:6]=[C:7]([H:16])[H:17])[H:15])[H:14])([H:8])([H:9])[H:10]"
C       -1.80984664       1.25988632      -0.10370018
C       -1.45395608      -0.18964759       0.10154020
C       -0.91191720      -1.01867311      -1.00963174
C       -0.01899120      -0.67713254       0.16462090
C        1.10231660       0.26004603       0.00854072
C        2.33499156       0.08702687       0.60538823
C        3.29086775      -0.61876361       1.12297597
H       -2.84842783       1.34910976      -0.42819259
H       -1.69597927       1.83288159       0.81870235
H       -1.19303360       1.72982458      -0.87120642
H       -2.10682539      -0.70910914       0.79448755
H       -1.22828398      -2.04796545      -1.11342538
H       -0.70038089      -0.51730497      -1.94672851
H        0.18096473      -1.48521552       0.85719930
H        0.94717621       1.15519182      -0.58461610
H        2.59129260       0.14980145      -0.60124971
H        3.52003261      -0.55995650       2.18529540
17
Frame=3 idx=010578 GeodesicLength=0.28335945167959575 rxn_smarts="[C:1]([C@@:2]1([H:11])[C:3]([H:12])([H:13])[C@:4]1([C:5]([C:6]#[C:7][H:17])([H:15])[H:16])[H:14])([H:8])([H:9])[H:10]>>[C:1]([C@@:2]1([H:11])[C:3]([H:12])([H:13])[C@:4]1([C:5](=[C:6]=[C:7]([H:16])[H:17])[H:15])[H:14])([H:8])([H:9])[H:10]"
C       -1.80128661       1.26007004      -0.09066859
C       -1.45093321      -0.19262657       0.10142959
C       -0.92464884      -1.01797894      -1.02103780
C       -0.01865870      -0.68758956       0.14525139
C        1.10702347       0.24478760      -0.02137302
C        2.31263447       0.11805752       0.63924368
C        3.26977915      -0.58762599       1.14767803
H       -2.84239157       1.35751952      -0.40458463
H       -1.67527654       1.82596203       0.83456094
H       -1.18905292       1.73209659      -0.86054772
H       -2.10003850      -0.71304263       0.79722401
H       -1.24917615      -2.04439675      -1.12835326
H       -0.72294016      -0.51182691      -1.95775982
H        0.18388279      -1.50000459       0.83203952
H        0.95289637       1.13379349      -0.62418942
H        2.61558099       0.10921956      -0.58977836
H        3.53260596      -0.52641441       2.20086545
17
Frame=4 idx=010578 GeodesicLength=0.37837213037462336 rxn_smarts="[C:1]([C@@:2]1([H:11])[C:3]([H:12])([H:13])[C@:4]1([C:5]([C:6]#[C:7][H:17])([H:15])[H:16])[H:14])([H:8])([H:9])[H:10]>>[C:1]([C@@:2]1([H:11])[C:3]([H:12])([H:13])[C@:4]1([C:5](=[C:6]=[C:7]([H:16])[H:17])[H:15])[H:14])([H:8])([H:9])[H:10]"
C       -1.79085555       1.26026683      -0.07650712
C       -1.44777376      -0.19603705       0.10099558
C       -0.93812344      -1.01693206      -1.03338182
C       -0.01888468      -0.69965671       0.12504486
C        1.11225527       0.22688843      -0.05082983
C        2.28736062       0.14662362       0.67001997
C        3.24736045      -0.55362621       1.17365990
H       -2.83416986       1.36730524      -0.37983179
H       -1.65231222       1.81785483       0.85199712
H       -1.18254703       1.73458681      -0.84808094
H       -2.09352899      -0.71747846       0.79916423
H       -1.27169022      -2.04001420      -1.14506510
H       -0.74553359      -0.50517821      -1.96901381
H        0.18557978      -1.51715193       0.80526336
H        0.95908860       1.11021609      -0.66252339
H        2.63903526       0.06558207      -0.57684728
H        3.54473937      -0.48324909       2.21593605
17
Frame=5 idx=010578 GeodesicLength=0.47365753095823143 rxn_smarts="[C:1]([C@@:2]1([H:11])[C:3]([H:12])([H:13])[C@:4]1([C:5]([C:6]#[C:7][H:17])([H:15])[H:16])[H:14])([H:8])([H:9])[H:10]>>[C:1]([C@@:2]1([H:11])[C:3]([H:12])([H:13])[C@:4]1([C:5](=[C:6]=[C:7]([H:16])[H:17])[H:15])[H:14])([H:8])([H:9])[H:10]"
C       -1.77909733       1.26035622      -0.06184986
C       -1.44449737      -0.19972368       0.10035231
C       -0.95160823      -1.01558723      -1.04600580
C       -0.01950749      -0.71255130       0.10482584
C        1.11787043       0.20751902      -0.07896585
C        2.25958796       0.17363408       0.69810477
C        3.22414478      -0.51712286       1.19927918
H       -2.82422852       1.37777763      -0.35496010
H       -1.62820669       1.80885544       0.87016786
H       -1.17395907       1.73709071      -0.83442732
H       -2.08736866      -0.72223539       0.80040614
H       -1.29463133      -2.03502253      -1.16258321
H       -0.76725270      -0.49771753      -1.97996920
H        0.18626040      -1.53547775       0.77813383
H        0.96546817       1.08538074      -0.69911165
H        2.66123316       0.01989362      -0.56244486
H        3.55579249      -0.43506918       2.22904790
17
Frame=6 idx=010578 GeodesicLength=0.5691461188677376 rxn_smarts="[C:1]([C@@:2]1([H:11])[C:3]([H:12])([H:13])[C@:4]1([C:5]([C:6]#[C:7][H:17])([H:15])[H:16])[H:14])([H:8])([H:9])[H:10]>>[C:1]([C@@:2]1([H:11])[C:3]([H:12])([H:13])[C@:4]1([C:5](=[C:6]=[C:7]([H:16])[H:17])[H:15])[H:14])([H:8])([H:9])[H:10]"
C       -1.76646943       1.26029209      -0.04712756
C       -1.44129575      -0.20357848       0.09944760
C       -0.96468432      -1.01389436      -1.05863823
C       -0.02060625      -0.72584405       0.08515151
C        1.12365619       0.18732160      -0.10495822
C        2.22959531       0.19918444       0.72410038
C        3.20041645      -0.47898691       1.22359036
H       -2.81294466       1.38860159      -0.33078422
H       -1.60388319       1.79909649       0.88859450
H       -1.16355895       1.73953908      -0.81988554
H       -2.08191273      -0.72721626       0.80073868
H       -1.31732436      -2.02943466      -1.18059678
H       -0.78741910      -0.48952422      -1.99037680
H        0.18572943      -1.55437055       0.75143756
H        0.97192245       1.05983408      -0.73327178
H        2.68178408      -0.02760316      -0.54639433
H        3.56699485      -0.38341672       2.23897287
17
Frame=7 idx=010578 GeodesicLength=0.6648585019838171 rxn_smarts="[C:1]([C@@:2]1([H:11])[C:3]([H:12])([H:13])[C@:4]1([C:5]([C:6]#[C:7][H:17])([H:15])[H:16])[H:14])([H:8])([H:9])[H:10]>>[C:1]([C@@:2]1([H:11])[C:3]([H:12])([H:13])[C@:4]1([C:5](=[C:6]=[C:7]([H:16])[H:17])[H:15])[H:14])([H:8])([H:9])[H:10]"
C       -1.75332192       1.26005940      -0.03258755
C       -1.43825780      -0.20752460       0.09829488
C       -0.97705394      -1.01185846      -1.07110108
C       -0.02214614      -0.73921992       0.06636582
C        1.12950510       0.16680541      -0.12840501
C        2.19769698       0.22346179       0.74846581
C        3.17664102      -0.43945389       1.24586524
H       -2.80065791       1.39953615      -0.30772743
H       -1.57994417       1.78873182       0.90699746
H       -1.15164902       1.74189390      -0.80469954
H       -2.07730535      -0.73235615       0.80013835
H       -1.33927973      -2.02332767      -1.19886946
H       -0.80565215      -0.48071084      -2.00013322
H        0.18401143      -1.57339497       0.72569166
H        0.97840244       1.03402641      -0.76474473
H        2.70048789      -0.07681996      -0.52871288
H        3.57852329      -0.32984842       2.24516168
17
Frame=8 idx=010578 GeodesicLength=0.7607715958838461 rxn_smarts="[C:1]([C@@:2]1([H:11])[C:3]([H:12])([H:13])[C@:4]1([C:5]([C:6]#[C:7][H:17])([H:15])[H:16])[H:14])([H:8])([H:9])[H:10]>>[C:1]([C@@:2]1([H:11])[C:3]([H:12])([H:13])[C@:4]1([C:5](=[C:6]=[C:7]([H:16])[H:17])[H:15])[H:14])([H:8])([H:9])[H:10]"
C       -1.73996180       1.25965859      -0.01840978
C       -1.43554120      -0.21150407       0.09683351
C       -0.98854189      -1.00943559      -1.08335779
C       -0.02419019      -0.75250571       0.04870675
C        1.13529883       0.14624072      -0.14891797
C        2.16407334       0.24636006       0.77182622
C        3.15317715      -0.39885481       1.26574250
H       -2.78765932       1.41046957      -0.28615391
H       -1.55691866       1.77782858       0.92521609
H       -1.13844170       1.74414991      -0.78897973
H       -2.07381160      -0.73761245       0.79844119
H       -1.36021521      -2.01668121      -1.21741369
H       -0.82164950      -0.47127739      -2.00921598
H        0.18095834      -1.59233909       0.70121022
H        0.98493974       1.00823560      -0.79316417
H        2.71716917      -0.12795817      -0.50922062
H        3.59131451      -0.27477454       2.24685716
17
Frame=9 idx=010578 GeodesicLength=0.856843796390236 rxn_smarts="[C:1]([C@@:2]1([H:11])[C:3]([H:12])([H:13])[C@:4]1([C:5]([C:6]#[C:7][H:17])([H:15])[H:16])[H:14])([H:8])([H:9])[H:10]>>[C:1]([C@@:2]1([H:11])[C:3]([H:12])([H:13])[C@:4]1([C:5](=[C:6]=[C:7]([H:16])[H:17])[H:15])[H:14])([H:8])([H:9])[H:10]"
C       -1.72673702       1.25906570      -0.00481801
C       -1.43310218      -0.21542095       0.09518294
C       -0.99885011      -1.00670239      -1.09511792
C       -0.02652443      -0.76531744       0.03246787
C        1.14105037       0.12621142      -0.16640275
C        2.12915043       0.26834445       0.79435820
C        3.13095279      -0.35648195       1.28229440
H       -2.77434938       1.42106591      -0.26635375
H       -1.53531499       1.76663692       0.94292453
H       -1.12437935       1.74621793      -0.77305227
H       -2.07130987      -0.74285707       0.79585415
H       -1.37960163      -2.00966999      -1.23575109
H       -0.83520626      -0.46149750      -2.01746672
H        0.17691512      -1.61064167       0.67845990
H        0.99146125       0.98295743      -0.81848747
H        2.73174911      -0.18070052      -0.48831539
H        3.60409617      -0.22121028       2.24422337
17
Frame=10 idx=010578 GeodesicLength=0.9530369622253794 rxn_smarts="[C:1]([C@@:2]1([H:11])[C:3]([H:12])([H:13])[C@:4]1([C:5]([C:6]#[C:7][H:17])([H:15])[H:16])[H:14])([H:8])([H:9])[H:10]>>[C:1]([C@@:2]1([H:11])[C:3]([H:12])([H:13])[C@:4]1([C:5](=[C:6]=[C:7]([H:16])[H:17])[H:15])[H:14])([H:8])([H:9])[H:10]"
C       -1.71381116       1.25830853       0.00817957
C       -1.43106314      -0.21926043       0.09327251
C       -1.00796084      -1.00361124      -1.10649232
C       -0.02921967      -0.77766173       0.01768272
C        1.14669702       0.10672326      -0.18071287
C        2.09298095       0.28913580       0.81664234
C        3.11036886      -0.31228448       1.29517098
H       -2.76089446       1.43136415      -0.24840741
H       -1.51537355       1.75516133       0.96017677
H       -1.10957710       1.74814700      -0.75686875
H       -2.06999912      -0.74810357       0.79222079
H       -1.39741490      -2.00224336      -1.25410761
H       -0.84623940      -0.45129331      -2.02498244
H        0.17172506      -1.62837423       0.65743462
H        0.99806505       0.95828455      -0.84050451
H        2.74409987      -0.23561090      -0.46583235
H        3.61761652      -0.16868137       2.23712795
17
Frame=11 idx=010578 GeodesicLength=1.0493949494711983 rxn_smarts="[C:1]([C@@:2]1([H:11])[C:3]([H:12])([H:13])[C@:4]1([C:5]([C:6]#[C:7][H:17])([H:15])[H:16])[H:14])([H:8])([H:9])[H:10]>>[C:1]([C@@:2]1([H:11])[C:3]([H:12])([H:13])[C@:4]1([C:5](=[C:6]=[C:7]([H:16])[H:17])[H:15])[H:14])([H:8])([H:9])[H:10]"
C       -1.70124277       1.25741812       0.02066797
C       -1.42963195      -0.22304320       0.09092372
C       -1.01594366      -1.00002716      -1.11777166
C       -0.03248797      -0.78974019       0.00429862
C        1.15215993       0.08745564      -0.19156639
C        2.05535480       0.30806409       0.83962131
C        3.09156356      -0.26622579       1.30445450
H       -2.74731561       1.44158408      -0.23235066
H       -1.49724064       1.74323801       0.97720221
H       -1.09392948       1.75001701      -0.74016294
H       -2.07027119      -0.75341289       0.78715398
H       -1.41382070      -1.99418505      -1.27305839
H       -0.85462575      -0.44039302      -2.03193973
H        0.16494870      -1.64591165       0.63792910
H        1.00496217       0.93405367      -0.85881461
H        2.75407040      -0.29376515      -0.44105537
H        3.63345014      -0.11512655       2.22446835
17
Frame=12 idx=010578 GeodesicLength=1.1458728673513623 rxn_smarts="[C:1]([C@@:2]1([H:11])[C:3]([H:12])([H:13])[C@:4]1([C:5]([C:6]#[C:7][H:17])([H:15])[H:16])[H:14])([H:8])([H:9])[H:10]>>[C:1]([C@@:2]1([H:11])[C:3]([H:12])([H:13])[C@:4]1([C:5](=[C:6]=[C:7]([H:16])[H:17])[H:15])[H:14])([H:8])([H:9])[H:10]"
C       -1.68915660       1.25638526       0.03264018
C       -1.42874364      -0.22674179       0.08821180
C       -1.02267649      -0.99598231      -1.12886808
C       -0.03616828      -0.80141476      -0.00762127
C        1.15751815       0.06862666      -0.19903348
C        2.01644636       0.32530633       0.86353346
C        3.07538603      -0.21688224       1.30894262
H       -2.73378720       1.45159478      -0.21815128
H       -1.48105042       1.73096126       0.99395995
H       -1.07765484       1.75180315      -0.72301015
H       -2.07199265      -0.75875664       0.78079112
H       -1.42860741      -1.98557037      -1.29245071
H       -0.86034216      -0.42889686      -2.03831422
H        0.15681522      -1.66308231       0.62002903
H        1.01219601       0.91047239      -0.87350219
H        2.76153071      -0.35555763      -0.41399866
H        3.65028721      -0.06226492       2.20684187
17
Frame=13 idx=010578 GeodesicLength=1.2424842443161201 rxn_smarts="[C:1]([C@@:2]1([H:11])[C:3]([H:12])([H:13])[C@:4]1([C:5]([C:6]#[C:7][H:17])([H:15])[H:16])[H:14])([H:8])([H:9])[H:10]>>[C:1]([C@@:2]1([H:11])[C:3]([H:12])([H:13])[C@:4]1([C:5](=[C:6]=[C:7]([H:16])[H:17])[H:15])[H:14])([H:8])([H:9])[H:10]"
C       -1.67759099       1.25521533       0.04417759
C       -1.42846238      -0.23035838       0.08504760
C       -1.02809287      -0.99138464      -1.13991744
C       -0.04030994      -0.81277289      -0.01809167
C        1.16277366       0.05006714      -0.20291473
C        1.97608242       0.34041356       0.88910125
C        3.06220202      -0.16292506       1.30765260
H       -2.72032155       1.46149053      -0.20578563
H       -1.46692570       1.71823326       1.01059609
H       -1.06071994       1.75352892      -0.70520424
H       -2.07531455      -0.76415272       0.77290552
H       -1.44171479      -1.97625452      -1.31259255
H       -0.86321736      -0.41665084      -2.04415195
H        0.14713344      -1.68007293       0.60358930
H        1.01991261       0.88746593      -0.88426113
H        2.76621568      -0.42209138      -0.38386331
H        3.66835024      -0.00975129       2.18371268
17
Frame=14 idx=010578 GeodesicLength=1.3392770509055418 rxn_smarts="[C:1]([C@@:2]1([H:11])[C:3]([H:12])([H:13])[C@:4]1([C:5]([C:6]#[C:7][H:17])([H:15])[H:16])[H:14])([H:8])([H:9])[H:10]>>[C:1]([C@@:2]1([H:11])[C:3]([H:12])([H:13])[C@:4]1([C:5](=[C:6]=[C:7]([H:16])[H:17])[H:15])[H:14])([H:8])([H:9])[H:10]"
C       -1.66632506       1.25396571       0.05565159
C       -1.42956845      -0.23404590       0.08060880
C       -1.03238522      -0.98557283      -1.15207297
C       -0.04597285      -0.82484243      -0.02725819
C        1.16760029       0.03005828      -0.20151099
C        1.93303210       0.35011456       0.91941447
C        3.05056771      -0.10595986       1.30192248
H       -2.70633675       1.47228611      -0.19556771
H       -1.45518118       1.70409696       1.02806687
H       -1.04195113       1.75548377      -0.68535016
H       -2.08196114      -0.76991975       0.76159405
H       -1.45382463      -1.96513422      -1.33592187
H       -0.86229624      -0.40230310      -2.04990958
H        0.13367577      -1.69862753       0.58778294
H        1.02894618       0.86402959      -0.88879485
H        2.76725092      -0.49706009      -0.34681695
H        3.69472968       0.05343074       2.14816208
17
Frame=15 idx=010578 GeodesicLength=1.436054443270558 rxn_smarts="[C:1]([C@@:2]1([H:11])[C:3]([H:12])([H:13])[C@:4]1([C:5]([C:6]#[C:7][H:17])([H:15])[H:16])[H:14])([H:8])([H:9])[H:10]>>[C:1]([C@@:2]1([H:11])[C:3]([H:12])([H:13])[C@:4]1([C:5](=[C:6]=[C:7]([H:16])[H:17])[H:15])[H:14])([H:8])([H:9])[H:10]"
C       -1.65550416       1.25247632       0.06691202
C       -1.43101749      -0.23760397       0.07573791
C       -1.03479750      -0.97904801      -1.16417085
C       -0.05181940      -0.83649823      -0.03488394
C        1.17250766       0.01028467      -0.19618205
C        1.88852297       0.35711321       0.95255359
C        3.04192442      -0.03979521       1.28606788
H       -2.69225541       1.48282900      -0.18696026
H       -1.44562853       1.68935555       1.04563831
H       -1.02248104       1.75723104      -0.66447202
H       -2.08996543      -0.77566640       0.74859897
H       -1.46352075      -1.95305506      -1.36017295
H       -0.85789640      -0.38708704      -2.05498931
H        0.11878532      -1.71690059       0.57334285
H        1.03865678       0.84120163      -0.88891086
H        2.76479738      -0.57870044      -0.30359793
H        3.71969157       0.11386354       2.10548863
17
Frame=16 idx=010578 GeodesicLength=1.5326634841226918 rxn_smarts="[C:1]([C@@:2]1([H:11])[C:3]([H:12])([H:13])[C@:4]1([C:5]([C:6]#[C:7][H:17])([H:15])[H:16])[H:14])([H:8])([H:9])[H:10]>>[C:1]([C@@:2]1([H:11])[C:3]([H:12])([H:13])[C@:4]1([C:5](=[C:6]=[C:7]([H:16])[H:17])[H:15])[H:14])([H:8])([H:9])[H:10]"
C       -1.64549958       1.25075927       0.07762748
C       -1.43227808      -0.24099157       0.07082559
C       -1.03492836      -0.97227717      -1.17556436
C       -0.05696747      -0.84703552      -0.04080628
C        1.17787444      -0.00789897      -0.18765122
C        1.84351971       0.36400525       0.98760096
C        3.03375149       0.03738179       1.25806516
H       -2.67875294       1.49241892      -0.17996978
H       -1.43838224       1.67471350       1.06263155
H       -1.00333531       1.75877229      -0.64345078
H       -2.09819778      -0.78139590       0.73486290
H       -1.46996140      -1.94089667      -1.38398926
H       -0.85040237      -0.37181805      -2.05914688
H        0.10416979      -1.73376905       0.56091335
H        1.04850433       0.81989036      -0.88585396
H        2.76015503      -0.66384664      -0.25200830
H        3.74073074       0.16198817       2.05591385
