12
Frame=0 idx=011178 GeodesicLength=0.0 rxn_smarts="[N:1]([c:2]1[n:3][c:4]([O:5][H:10])[c:6]([H:11])[n:7]1[H:12])([H:8])[H:9]>>[N+:1](=[c:2]1[n:3]([H:10])[c:4]([O-:5])[c:6]([H:11])[n:7]1[H:12])([H:8])[H:9]"
N       -1.75337383      -0.69457632       0.86357588
C       -0.60191107      -0.22110763       0.28586312
N        0.57010558      -0.81704744       0.24645935
C        1.50387295       0.02709058      -0.35215374
O        2.60539563      -0.64466961      -0.37314684
C        0.87116056       1.18718074      -0.68753639
N       -0.47687106       0.98670055      -0.27608494
H       -1.70853987      -1.66968544       1.10779286
H       -2.60851778      -0.45247857       0.39114102
H        1.60221482      -1.47888967       0.23554795
H        1.18045617       2.08009283      -1.19563519
H       -1.18399215       1.69738994      -0.24582309
12
Frame=1 idx=011178 GeodesicLength=0.03828924718529353 rxn_smarts="[N:1]([c:2]1[n:3][c:4]([O:5][H:10])[c:6]([H:11])[n:7]1[H:12])([H:8])[H:9]>>[N+:1](=[c:2]1[n:3]([H:10])[c:4]([O-:5])[c:6]([H:11])[n:7]1[H:12])([H:8])[H:9]"
N       -1.75954512      -0.68899792       0.85868118
C       -0.60209898      -0.21545898       0.29076685
N        0.56985411      -0.81309222       0.25538811
C        1.50978679       0.03970004      -0.32499150
O        2.59974923      -0.64884141      -0.38613009
C        0.86915651       1.18772747      -0.68862177
N       -0.47427348       0.99400112      -0.26622034
H       -1.70380062      -1.65320138       1.14151506
H       -2.60597647      -0.48374788       0.35382909
H        1.59933229      -1.49835918       0.20953430
H        1.18115052       2.07721987      -1.20114519
H       -1.18333479       1.70305047      -0.24260572
12
Frame=2 idx=011178 GeodesicLength=0.07629089764236337 rxn_smarts="[N:1]([c:2]1[n:3][c:4]([O:5][H:10])[c:6]([H:11])[n:7]1[H:12])([H:8])[H:9]>>[N+:1](=[c:2]1[n:3]([H:10])[c:4]([O-:5])[c:6]([H:11])[n:7]1[H:12])([H:8])[H:9]"
N       -1.76535913      -0.68340586       0.85395576
C       -0.60206397      -0.20971344       0.29604476
N        0.56988405      -0.80875428       0.26547212
C        1.51347089       0.04831235      -0.30661580
O        2.59297868      -0.65308330      -0.40043659
C        0.86804495       1.18919665      -0.68657166
N       -0.47180183       1.00056890      -0.25762552
H       -1.70002897      -1.63513205       1.17477877
H       -2.60145146      -0.51571529       0.31862344
H        1.59678474      -1.51558447       0.18696318
H        1.18331847       2.07642092      -1.20100810
H       -1.18377641       1.70688987      -0.24358036
12
Frame=3 idx=011178 GeodesicLength=0.11438588108021941 rxn_smarts="[N:1]([c:2]1[n:3][c:4]([O:5][H:10])[c:6]([H:11])[n:7]1[H:12])([H:8])[H:9]>>[N+:1](=[c:2]1[n:3]([H:10])[c:4]([O-:5])[c:6]([H:11])[n:7]1[H:12])([H:8])[H:9]"
N       -1.77118482      -0.67831699       0.84860272
C       -0.60171315      -0.20358826       0.30240698
N        0.57019594      -0.80411506       0.27646437
C        1.51599964       0.05474430      -0.29331592
O        2.58559041      -0.65771267      -0.41571029
C        0.86701747       1.19093186      -0.68380145
N       -0.46921603       1.00733570      -0.24836288
H       -1.69769780      -1.61641925       1.20601651
H       -2.59485923      -0.54833868       0.28408478
H        1.59472523      -1.53114880       0.16808226
H        1.18546946       2.07604551      -1.19993386
H       -1.18432712       1.71058233      -0.24453322
12
Frame=4 idx=011178 GeodesicLength=0.15275583896767675 rxn_smarts="[N:1]([c:2]1[n:3][c:4]([O:5][H:10])[c:6]([H:11])[n:7]1[H:12])([H:8])[H:9]>>[N+:1](=[c:2]1[n:3]([H:10])[c:4]([O-:5])[c:6]([H:11])[n:7]1[H:12])([H:8])[H:9]"
N       -1.77702454      -0.67365930       0.84275328
C       -0.60106534      -0.19706220       0.30984065
N        0.57084047      -0.79911899       0.28849483
C        1.51815198       0.06019341      -0.28230739
O        2.57751300      -0.66275415      -0.43196285
C        0.86631611       1.19330360      -0.67972494
N       -0.46645982       1.01442031      -0.23834202
H       -1.69673841      -1.59692907       1.23594791
H       -2.58620958      -0.58189974       0.25014897
H        1.59242996      -1.54611646       0.15039695
H        1.18753643       2.07576494      -1.19878818
H       -1.18529025       1.71385765      -0.24645721
12
Frame=5 idx=011178 GeodesicLength=0.19101769067397703 rxn_smarts="[N:1]([c:2]1[n:3][c:4]([O:5][H:10])[c:6]([H:11])[n:7]1[H:12])([H:8])[H:9]>>[N+:1](=[c:2]1[n:3]([H:10])[c:4]([O-:5])[c:6]([H:11])[n:7]1[H:12])([H:8])[H:9]"
N       -1.78233205      -0.66911695       0.83721808
C       -0.60069256      -0.19125861       0.31571762
N        0.57108920      -0.79494847       0.29865328
C        1.52002906       0.06508379      -0.27253446
O        2.56972576      -0.66691917      -0.44642829
C        0.86561216       1.19563593      -0.67563554
N       -0.46393715       1.02097250      -0.22937865
H       -1.69668704      -1.57687525       1.26429185
H       -2.57668927      -0.61455440       0.22020490
H        1.59028830      -1.56059656       0.13341972
H        1.18996567       2.07611698      -1.19615981
H       -1.18637208       1.71646022      -0.24936869
12
Frame=6 idx=011178 GeodesicLength=0.22933927073390203 rxn_smarts="[N:1]([c:2]1[n:3][c:4]([O:5][H:10])[c:6]([H:11])[n:7]1[H:12])([H:8])[H:9]>>[N+:1](=[c:2]1[n:3]([H:10])[c:4]([O-:5])[c:6]([H:11])[n:7]1[H:12])([H:8])[H:9]"
N       -1.78775304      -0.66548917       0.83031876
C       -0.59993379      -0.18499107       0.32293072
N        0.57197973      -0.78984357       0.31086772
C        1.52158182       0.06937674      -0.26459639
O        2.56084403      -0.67178613      -0.46264881
C        0.86451057       1.19771517      -0.67219576
N       -0.46087613       1.02849851      -0.21788697
H       -1.69837104      -1.55744246       1.28907513
H       -2.56508796      -0.64732320       0.18967596
H        1.58877218      -1.57385462       0.12030474
H        1.19112428       2.07520586      -1.19641640
H       -1.18679065       1.71993394      -0.24942869
12
Frame=7 idx=011178 GeodesicLength=0.26765961499003627 rxn_smarts="[N:1]([c:2]1[n:3][c:4]([O:5][H:10])[c:6]([H:11])[n:7]1[H:12])([H:8])[H:9]>>[N+:1](=[c:2]1[n:3]([H:10])[c:4]([O-:5])[c:6]([H:11])[n:7]1[H:12])([H:8])[H:9]"
N       -1.79272085      -0.66167555       0.82401074
C       -0.59954510      -0.17947386       0.32833986
N        0.57245763      -0.78551655       0.32129745
C        1.52304616       0.07338850      -0.25718609
O        2.55222505      -0.67597852      -0.47749717
C        0.86359565       1.19995793      -0.66840760
N       -0.45837567       1.03501818      -0.20873641
H       -1.70049562      -1.53679498       1.31386145
H       -2.55300381      -0.67981797       0.16299353
H        1.58711602      -1.58722601       0.10653632
H        1.19330434       2.07574756      -1.19358135
H       -1.18760380       1.72237129      -0.25163073
12
Frame=8 idx=011178 GeodesicLength=0.3060812798787573 rxn_smarts="[N:1]([c:2]1[n:3][c:4]([O:5][H:10])[c:6]([H:11])[n:7]1[H:12])([H:8])[H:9]>>[N+:1](=[c:2]1[n:3]([H:10])[c:4]([O-:5])[c:6]([H:11])[n:7]1[H:12])([H:8])[H:9]"
N       -1.79770360      -0.65860897       0.81636449
C       -0.59871265      -0.17331185       0.33533065
N        0.57355151      -0.78019833       0.33379244
C        1.52424654       0.07702472      -0.25108624
O        2.54226130      -0.68099707      -0.49408290
C        0.86234978       1.20215322      -0.66487473
N       -0.45536625       1.04250258      -0.19729314
H       -1.70413863      -1.51645804       1.33589935
H       -2.53851081      -0.71290140       0.13530638
H        1.58565473      -1.59990589       0.09559312
H        1.19427350       2.07514001      -1.19335155
H       -1.18790544       1.72556103      -0.25159788
12
Frame=9 idx=011178 GeodesicLength=0.34459029025507737 rxn_smarts="[N:1]([c:2]1[n:3][c:4]([O:5][H:10])[c:6]([H:11])[n:7]1[H:12])([H:8])[H:9]>>[N+:1](=[c:2]1[n:3]([H:10])[c:4]([O-:5])[c:6]([H:11])[n:7]1[H:12])([H:8])[H:9]"
N       -1.80239740      -0.65546938       0.80904411
C       -0.59814791      -0.16768031       0.34101457
N        0.57438832      -0.77537475       0.34513412
C        1.52547151       0.08052987      -0.24516834
O        2.53236947      -0.68554599      -0.50976694
C        0.86143973       1.20474360      -0.66058826
N       -0.45286534       1.04912096      -0.18794542
H       -1.70830794      -1.49480991       1.35816471
H       -2.52339485      -0.74627009       0.11060592
H        1.58385547      -1.61283658       0.08361557
H        1.19609215       2.07565468      -1.19083574
H       -1.18850322       1.72793790      -0.25327430
12
Frame=10 idx=011178 GeodesicLength=0.3831792091725302 rxn_smarts="[N:1]([c:2]1[n:3][c:4]([O:5][H:10])[c:6]([H:11])[n:7]1[H:12])([H:8])[H:9]>>[N+:1](=[c:2]1[n:3]([H:10])[c:4]([O-:5])[c:6]([H:11])[n:7]1[H:12])([H:8])[H:9]"
N       -1.80700089      -0.65288409       0.80079329
C       -0.59743220      -0.16189576       0.34716639
N        0.57550171      -0.77013352       0.35726056
C        1.52659634       0.08395762      -0.23976098
O        2.52204811      -0.69005436      -0.52519261
C        0.86025814       1.20719355      -0.65670476
N       -0.45022460       1.05605743      -0.17776185
H       -1.71373951      -1.47344131       1.37800556
H       -2.50664895      -0.77961961       0.08621435
H        1.58218322      -1.62540898       0.07305892
H        1.19685720       2.07496689      -1.19092531
H       -1.18839857       1.73126213      -0.25215356
12
Frame=11 idx=011178 GeodesicLength=0.42187041138081804 rxn_smarts="[N:1]([c:2]1[n:3][c:4]([O:5][H:10])[c:6]([H:11])[n:7]1[H:12])([H:8])[H:9]>>[N+:1](=[c:2]1[n:3]([H:10])[c:4]([O-:5])[c:6]([H:11])[n:7]1[H:12])([H:8])[H:9]"
N       -1.81143834      -0.65045163       0.79244138
C       -0.59691135      -0.15653830       0.35235144
N        0.57644789      -0.76524164       0.36857968
C        1.52777348       0.08742903      -0.23424539
O        2.51215874      -0.69386144      -0.53896990
C        0.85917935       1.20974259      -0.65267762
N       -0.44792477       1.06242617      -0.16891149
H       -1.71989789      -1.45140580       1.39711157
H       -2.48931782      -0.81300908       0.06403420
H        1.58032661      -1.63810411       0.06169882
H        1.19763584       2.07420614      -1.19114893
H       -1.18803174       1.73480806      -0.25026376
12
Frame=12 idx=011178 GeodesicLength=0.4607171266329205 rxn_smarts="[N:1]([c:2]1[n:3][c:4]([O:5][H:10])[c:6]([H:11])[n:7]1[H:12])([H:8])[H:9]>>[N+:1](=[c:2]1[n:3]([H:10])[c:4]([O-:5])[c:6]([H:11])[n:7]1[H:12])([H:8])[H:9]"
N       -1.81582896      -0.64862435       0.78293256
C       -0.59611308      -0.15078137       0.35853268
N        0.57781366      -0.75966596       0.38119712
C        1.52888154       0.09083166      -0.22927594
O        2.50143093      -0.69800273      -0.55327644
C        0.85794920       1.21235075      -0.64871759
N       -0.44537123       1.06926835      -0.15894321
H       -1.72751666      -1.42938663       1.41422993
H       -2.46985344      -0.84701593       0.04141666
H        1.57835483      -1.65052649       0.05168726
H        1.19733984       2.07226341      -1.19395924
H       -1.18708663       1.73928929      -0.24582380
12
Frame=13 idx=011178 GeodesicLength=0.4995685580331351 rxn_smarts="[N:1]([c:2]1[n:3][c:4]([O:5][H:10])[c:6]([H:11])[n:7]1[H:12])([H:8])[H:9]>>[N+:1](=[c:2]1[n:3]([H:10])[c:4]([O-:5])[c:6]([H:11])[n:7]1[H:12])([H:8])[H:9]"
N       -1.81989964      -0.64668827       0.77357347
C       -0.59563953      -0.14567489       0.36308901
N        0.57879875      -0.75468219       0.39248910
C        1.52998565       0.09422638      -0.22405801
O        2.49111443      -0.70147729      -0.56605371
C        0.85696207       1.21516193      -0.64426099
N       -0.44337518       1.07516716      -0.15119054
H       -1.73543212      -1.40568945       1.43162046
H       -2.44992164      -0.88159755       0.02184806
H        1.57592061      -1.66328435       0.04000750
H        1.19778944       2.07117591      -1.19475817
H       -1.18630281       1.74336260      -0.24230619
12
Frame=14 idx=011178 GeodesicLength=0.5385171407040631 rxn_smarts="[N:1]([c:2]1[n:3][c:4]([O:5][H:10])[c:6]([H:11])[n:7]1[H:12])([H:8])[H:9]>>[N+:1](=[c:2]1[n:3]([H:10])[c:4]([O-:5])[c:6]([H:11])[n:7]1[H:12])([H:8])[H:9]"
N       -1.82386097      -0.64520998       0.76344699
C       -0.59506202      -0.14050379       0.36790980
N        0.57999042      -0.74941621       0.40421120
C        1.53108012       0.09762927      -0.21908229
O        2.48063844      -0.70484103      -0.57835095
C        0.85582763       1.21789251      -0.64004367
N       -0.44130028       1.08119253      -0.14300869
H       -1.74456549      -1.38207930       1.44703916
H       -2.42864706      -0.91610251       0.00295572
H        1.57357244      -1.67585562       0.02903507
H        1.19736494       2.06905494      -1.19762289
H       -1.18503818       1.74823918      -0.23648944
12
Frame=15 idx=011178 GeodesicLength=0.5776129122838658 rxn_smarts="[N:1]([c:2]1[n:3][c:4]([O:5][H:10])[c:6]([H:11])[n:7]1[H:12])([H:8])[H:9]>>[N+:1](=[c:2]1[n:3]([H:10])[c:4]([O-:5])[c:6]([H:11])[n:7]1[H:12])([H:8])[H:9]"
N       -1.82766540      -0.64415326       0.75264207
C       -0.59441226      -0.13535076       0.37281440
N        0.58134361      -0.74396167       0.41625451
C        1.53220362       0.10106685      -0.21424191
O        2.46997683      -0.70809099      -0.59024605
C        0.85468408       1.22073984      -0.63575599
N       -0.43914648       1.08732822      -0.13451674
H       -1.75481067      -1.35850829       1.46070606
H       -2.40619328      -0.95053516      -0.01502078
H        1.57124258      -1.68835581       0.01856205
H        1.19617732       2.06606265      -1.20225960
H       -1.18339996       1.75375838      -0.22893802
12
Frame=16 idx=011178 GeodesicLength=0.6166835399950957 rxn_smarts="[N:1]([c:2]1[n:3][c:4]([O:5][H:10])[c:6]([H:11])[n:7]1[H:12])([H:8])[H:9]>>[N+:1](=[c:2]1[n:3]([H:10])[c:4]([O-:5])[c:6]([H:11])[n:7]1[H:12])([H:8])[H:9]"
N       -1.83122306      -0.64309804       0.74200211
C       -0.59401935      -0.13078754       0.37635331
N        0.58243173      -0.73896548       0.42722878
C        1.53333000       0.10449164      -0.20932036
O        2.45984599      -0.71077466      -0.60083267
C        0.85359360       1.22350842      -0.63155910
N       -0.43739541       1.09273391      -0.12760120
H       -1.76537292      -1.33388978       1.47395345
H       -2.38371954      -0.98494143      -0.03003212
H        1.56884338      -1.70102793       0.00701420
H        1.19560423       2.06381716      -1.20520688
H       -1.18191865       1.75893374      -0.22199954
