16
Frame=0 idx=009268 GeodesicLength=0.0 rxn_smarts="[C:1]([C@@:2]12[C@@:3]3([H:11])[C:4]([H:12])([H:13])[N:5]1[C:6]([H:14])([H:15])[C@@:7]23[H:16])([H:8])([H:9])[H:10]>>[C:1](=[C:2]1[C@@:3]2([H:11])[C:4]([H:12])([H:13])[N:5]1[C:6]([H:14])([H:15])[C:7]2([H:9])[H:16])([H:8])[H:10]"
C        2.12380830       0.26781531      -0.04581600
C        0.71360095       0.26366098      -0.03674040
C       -0.36326175       0.53305851       0.94602482
C       -1.12026064       1.18706840      -0.19473842
N       -0.34441118       0.29192670      -1.13533497
C       -0.91314236      -1.03614991      -0.77121496
C       -0.42263743      -0.97571548       0.65072480
H        2.62783949      -0.13509632      -0.91115050
H        1.20967018      -0.87245282       0.35332505
H        2.66392439       0.87839224       0.66265423
H       -0.23165317       0.89208108       1.95976931
H       -2.20367723       1.07335875      -0.25623011
H       -0.83830317       2.22569977      -0.35949123
H       -0.44252290      -1.82348527      -1.36099656
H       -1.99216511      -1.05977858      -0.94667727
H       -0.46680835      -1.71038331       1.44589221
16
Frame=1 idx=009268 GeodesicLength=0.08657240698546023 rxn_smarts="[C:1]([C@@:2]12[C@@:3]3([H:11])[C:4]([H:12])([H:13])[N:5]1[C:6]([H:14])([H:15])[C@@:7]23[H:16])([H:8])([H:9])[H:10]>>[C:1](=[C:2]1[C@@:3]2([H:11])[C:4]([H:12])([H:13])[N:5]1[C:6]([H:14])([H:15])[C:7]2([H:9])[H:16])([H:8])[H:10]"
C        2.12360227       0.26143559      -0.04682669
C        0.71412653       0.26683398      -0.03978540
C       -0.36175497       0.53476002       0.94588253
C       -1.12042444       1.18659936      -0.19536718
N       -0.34364705       0.29352716      -1.13633191
C       -0.91010569      -1.03561446      -0.77108323
C       -0.41781864      -0.97434124       0.65201755
H        2.62441123      -0.10513926      -0.93043276
H        1.21896198      -0.89725782       0.36362761
H        2.66408173       0.86416287       0.66862243
H       -0.22958687       0.89662888       1.95858633
H       -2.20387359       1.07018161      -0.25348023
H       -0.84078379       2.22571789      -0.36123075
H       -0.43613935      -1.82104913      -1.36062635
H       -1.98892709      -1.06565661      -0.94574374
H       -0.49212225      -1.70078885       1.45217180
16
Frame=2 idx=009268 GeodesicLength=0.17289876765954454 rxn_smarts="[C:1]([C@@:2]12[C@@:3]3([H:11])[C:4]([H:12])([H:13])[N:5]1[C:6]([H:14])([H:15])[C@@:7]23[H:16])([H:8])([H:9])[H:10]>>[C:1](=[C:2]1[C@@:3]2([H:11])[C:4]([H:12])([H:13])[N:5]1[C:6]([H:14])([H:15])[C:7]2([H:9])[H:16])([H:8])[H:10]"
C        2.12330560       0.25433959      -0.04813663
C        0.71458670       0.27061586      -0.04307236
C       -0.36020112       0.53667376       0.94568275
C       -1.12089449       1.18614945      -0.19593523
N       -0.34309663       0.29535107      -1.13739423
C       -0.90687384      -1.03500015      -0.77092272
C       -0.41264449      -0.97278958       0.65331480
H        2.62080721      -0.07498928      -0.94856977
H        1.22833340      -0.92273132       0.37427671
H        2.66440568       0.84903625       0.67414694
H       -0.22734866       0.90142664       1.95730728
H       -2.20434302       1.06673440      -0.25049894
H       -0.84391036       2.22583950      -0.36294847
H       -0.42941592      -1.81839730      -1.36027706
H       -1.98546863      -1.07174871      -0.94467672
H       -0.51724144      -1.69051018       1.45770365
16
Frame=3 idx=009268 GeodesicLength=0.2590887851869297 rxn_smarts="[C:1]([C@@:2]12[C@@:3]3([H:11])[C:4]([H:12])([H:13])[N:5]1[C:6]([H:14])([H:15])[C@@:7]23[H:16])([H:8])([H:9])[H:10]>>[C:1](=[C:2]1[C@@:3]2([H:11])[C:4]([H:12])([H:13])[N:5]1[C:6]([H:14])([H:15])[C:7]2([H:9])[H:16])([H:8])[H:10]"
C        2.12288197       0.24646894      -0.04975735
C        0.71496892       0.27507651      -0.04661584
C       -0.35860958       0.53883025       0.94542007
C       -1.12170315       1.18572878      -0.19644062
N       -0.34278041       0.29742933      -1.13852693
C       -0.90342910      -1.03428696      -0.77073557
C       -0.40709576      -0.97102859       0.65461376
H        2.61705730      -0.04471306      -0.96552417
H        1.23777222      -0.94893656       0.38533752
H        2.66487279       0.83294589       0.67919681
H       -0.22494798       0.90650513       1.95592585
H       -2.20510946       1.06299978      -0.24727789
H       -0.84774549       2.22607796      -0.36464223
H       -0.42231662      -1.81549347      -1.35995120
H       -1.98176376      -1.07806084      -0.94347711
H       -0.54205188      -1.67954309       1.46245488
16
Frame=4 idx=009268 GeodesicLength=0.3452147982641342 rxn_smarts="[C:1]([C@@:2]12[C@@:3]3([H:11])[C:4]([H:12])([H:13])[N:5]1[C:6]([H:14])([H:15])[C@@:7]23[H:16])([H:8])([H:9])[H:10]>>[C:1](=[C:2]1[C@@:3]2([H:11])[C:4]([H:12])([H:13])[N:5]1[C:6]([H:14])([H:15])[C:7]2([H:9])[H:16])([H:8])[H:10]"
C        2.12228373       0.23777852      -0.05171698
C        0.71525988       0.28029178      -0.05043942
C       -0.35698803       0.54126284       0.94508502
C       -1.12288763       1.18534905      -0.19688082
N       -0.34272446       0.29979724      -1.13973887
C       -0.89975305      -1.03345234      -0.77052680
C       -0.40114839      -0.96902328       0.65590573
H        2.61319205      -0.01441023      -0.98123268
H        1.24726811      -0.97592430       0.39687787
H        2.66545672       0.81581258       0.68375305
H       -0.22239013       0.91189722       1.95443152
H       -2.20620220       1.05895995      -0.24380247
H       -0.85236043       2.22644937      -0.36631023
H       -0.41480261      -1.81229723      -1.35965679
H       -1.97778714      -1.08459948      -0.94214277
H       -0.56641642      -1.66789169       1.46639466
16
Frame=5 idx=009268 GeodesicLength=0.43137076941830943 rxn_smarts="[C:1]([C@@:2]12[C@@:3]3([H:11])[C:4]([H:12])([H:13])[N:5]1[C:6]([H:14])([H:15])[C@@:7]23[H:16])([H:8])([H:9])[H:10]>>[C:1](=[C:2]1[C@@:3]2([H:11])[C:4]([H:12])([H:13])[N:5]1[C:6]([H:14])([H:15])[C:7]2([H:9])[H:16])([H:8])[H:10]"
C        2.12145272       0.22822006      -0.05404425
C        0.71544695       0.28634881      -0.05456226
C       -0.35534355       0.54400695       0.94467072
C       -1.12448477       1.18501963      -0.19724913
N       -0.34295320       0.30249403      -1.14103462
C       -0.89582034      -1.03246865      -0.77030265
C       -0.39477329      -0.96673436       0.65718191
H        2.60925480       0.01579808      -0.99563152
H        1.25680569      -1.00376408       0.40896626
H        2.66610776       0.79756965       0.68776992
H       -0.21968344       0.91763757       1.95281701
H       -2.20764409       1.05458970      -0.24005699
H       -0.85783099       2.22696581      -0.36794233
H       -0.40682681      -1.80875565      -1.35940365
H       -1.97350118      -1.09136876      -0.94067677
H       -0.59020629      -1.65555878       1.46949836
16
Frame=6 idx=009268 GeodesicLength=0.5176010685968022 rxn_smarts="[C:1]([C@@:2]12[C@@:3]3([H:11])[C:4]([H:12])([H:13])[N:5]1[C:6]([H:14])([H:15])[C@@:7]23[H:16])([H:8])([H:9])[H:10]>>[C:1](=[C:2]1[C@@:3]2([H:11])[C:4]([H:12])([H:13])[N:5]1[C:6]([H:14])([H:15])[C:7]2([H:9])[H:16])([H:8])[H:10]"
C        2.12032108       0.21776133      -0.05677822
C        0.71551707       0.29334142      -0.05901508
C       -0.35368209       0.54710132       0.94416467
C       -1.12653963       1.18475438      -0.19754074
N       -0.34349570       0.30556552      -1.14242540
C       -0.89160518      -1.03130744      -0.77007322
C       -0.38793435      -0.96411865       0.65842603
H        2.60527567       0.04575646      -1.00864552
H        1.26637274      -1.03250322       0.42167547
H        2.66679262       0.77812302       0.69123517
H       -0.21683341       0.92376330       1.95106951
H       -2.20947125       1.04986468      -0.23602010
H       -0.86424685       2.22764897      -0.36953278
H       -0.39833765      -1.80481595      -1.35920786
H       -1.96887066      -1.09837807      -0.93907799
H       -0.61326241      -1.64255706       1.47174606
16
Frame=7 idx=009268 GeodesicLength=0.6039796703427004 rxn_smarts="[C:1]([C@@:2]12[C@@:3]3([H:11])[C:4]([H:12])([H:13])[N:5]1[C:6]([H:14])([H:15])[C@@:7]23[H:16])([H:8])([H:9])[H:10]>>[C:1](=[C:2]1[C@@:3]2([H:11])[C:4]([H:12])([H:13])[N:5]1[C:6]([H:14])([H:15])[C:7]2([H:9])[H:16])([H:8])[H:10]"
C        2.11879960       0.20637618      -0.05995815
C        0.71545941       0.30137459      -0.06382348
C       -0.35200840       0.55058726       0.94355661
C       -1.12909402       1.18456425      -0.19774503
N       -0.34437910       0.30906097      -1.14391634
C       -0.88707398      -1.02993308      -0.76985084
C       -0.38058953      -0.96112808       0.65962091
H        2.60129676       0.07526864      -1.02020162
H        1.27595349      -1.06220946       0.43508447
H        2.66744426       0.75740523       0.69410605
H       -0.21385001       0.93031418       1.94917917
H       -2.21170764       1.04475264      -0.23166815
H       -0.87169691       2.22851110      -0.37106297
H       -0.38927404      -1.80041075      -1.35908822
H       -1.96384804      -1.10563057      -0.93735277
H       -0.63543185      -1.62890311       1.47312036
16
Frame=8 idx=009268 GeodesicLength=0.6905084087763863 rxn_smarts="[C:1]([C@@:2]12[C@@:3]3([H:11])[C:4]([H:12])([H:13])[N:5]1[C:6]([H:14])([H:15])[C@@:7]23[H:16])([H:8])([H:9])[H:10]>>[C:1](=[C:2]1[C@@:3]2([H:11])[C:4]([H:12])([H:13])[N:5]1[C:6]([H:14])([H:15])[C:7]2([H:9])[H:16])([H:8])[H:10]"
C        2.11678866       0.19406593      -0.06361647
C        0.71526648       0.31054887      -0.06901634
C       -0.35032215       0.55450660       0.94283249
C       -1.13218614       1.18446316      -0.19784725
N       -0.34562779       0.31302752      -1.14551111
C       -0.88219434      -1.02831795      -0.76965225
C       -0.37269317      -0.95771821       0.66074030
H        2.59734998       0.10410414      -1.03022969
H        1.28554061      -1.09292608       0.44926208
H        2.66798736       0.73535458       0.69635420
H       -0.21073894       0.93733230       1.94713279
H       -2.21437706       1.03922519      -0.22697083
H       -0.88026414       2.22957364      -0.37250594
H       -0.37957513      -1.79548364      -1.35907350
H       -1.95838771      -1.11313767      -0.93550766
H       -0.65656652      -1.61461838       1.47360919
16
Frame=9 idx=009268 GeodesicLength=0.7774503999418421 rxn_smarts="[C:1]([C@@:2]12[C@@:3]3([H:11])[C:4]([H:12])([H:13])[N:5]1[C:6]([H:14])([H:15])[C@@:7]23[H:16])([H:8])([H:9])[H:10]>>[C:1](=[C:2]1[C@@:3]2([H:11])[C:4]([H:12])([H:13])[N:5]1[C:6]([H:14])([H:15])[C:7]2([H:9])[H:16])([H:8])[H:10]"
C        2.11412540       0.18087332      -0.06783263
C        0.71493497       0.32103233      -0.07465493
C       -0.34858846       0.55889382       0.94197482
C       -1.13585903       1.18443576      -0.19783642
N       -0.34726892       0.31754377      -1.14723187
C       -0.87687165      -1.02639100      -0.76949714
C       -0.36412947      -0.95381126       0.66175767
H        2.59329400       0.13194829      -1.03871358
H        1.29515020      -1.12477131       0.46429866
H        2.66831669       0.71183024       0.69803984
H       -0.20748597       0.94483394       1.94492005
H       -2.21748901       1.03320019      -0.22188547
H       -0.89007817       2.23080732      -0.37385310
H       -0.36910101      -1.78988982      -1.35918552
H       -1.95236157      -1.12088556      -0.93355239
H       -0.67658799      -1.59965003       1.47325201
16
Frame=10 idx=009268 GeodesicLength=0.8644807388690883 rxn_smarts="[C:1]([C@@:2]12[C@@:3]3([H:11])[C:4]([H:12])([H:13])[N:5]1[C:6]([H:14])([H:15])[C@@:7]23[H:16])([H:8])([H:9])[H:10]>>[C:1](=[C:2]1[C@@:3]2([H:11])[C:4]([H:12])([H:13])[N:5]1[C:6]([H:14])([H:15])[C:7]2([H:9])[H:16])([H:8])[H:10]"
C        2.11075814       0.16678959      -0.07256203
C        0.71445548       0.33284598      -0.08071438
C       -0.34684635       0.56377707       0.94098458
C       -1.14012908       1.18451566      -0.19769613
N       -0.34930734       0.32262969      -1.14905921
C       -0.87112981      -1.02414592      -0.76939979
C       -0.35492267      -0.94940034       0.66265300
H        2.58932906       0.15855564      -1.04559173
H        1.30470826      -1.15772005       0.48024520
H        2.66836639       0.68697248       0.69901750
H       -0.20414526       0.95285143       1.94254390
H       -2.22105530       1.02670411      -0.21641060
H       -0.90115223       2.23225940      -0.37505816
H       -0.35787153      -1.78362775      -1.35945392
H       -1.94579106      -1.12887695      -0.93150079
H       -0.69526670      -1.58413003       1.47200257
16
Frame=11 idx=009268 GeodesicLength=0.951610056916808 rxn_smarts="[C:1]([C@@:2]12[C@@:3]3([H:11])[C:4]([H:12])([H:13])[N:5]1[C:6]([H:14])([H:15])[C@@:7]23[H:16])([H:8])([H:9])[H:10]>>[C:1](=[C:2]1[C@@:3]2([H:11])[C:4]([H:12])([H:13])[N:5]1[C:6]([H:14])([H:15])[C:7]2([H:9])[H:16])([H:8])[H:10]"
C        2.10656298       0.15185872      -0.07780924
C        0.71382272       0.34608935      -0.08719481
C       -0.34510178       0.56917825       0.93986316
C       -1.14502338       1.18470325      -0.19740960
N       -0.35175309       0.32834238      -1.15098704
C       -0.86492597      -1.02152889      -0.76937978
C       -0.34502326      -0.94444303       0.66340617
H        2.58550788       0.18355810      -1.05088905
H        1.31417978      -1.19182701       0.49716704
H        2.66803570       0.66084547       0.69923726
H       -0.20075400       0.96139061       1.94001574
H       -2.22507953       1.01969914      -0.21053351
H       -0.91355550       2.23392430      -0.37608558
H       -0.34581765      -1.77659307      -1.35990170
H       -1.93860785      -1.13709107      -0.92937801
H       -0.71246705      -1.56810650       1.46987895
16
Frame=12 idx=009268 GeodesicLength=1.0387665844628096 rxn_smarts="[C:1]([C@@:2]12[C@@:3]3([H:11])[C:4]([H:12])([H:13])[N:5]1[C:6]([H:14])([H:15])[C@@:7]23[H:16])([H:8])([H:9])[H:10]>>[C:1](=[C:2]1[C@@:3]2([H:11])[C:4]([H:12])([H:13])[N:5]1[C:6]([H:14])([H:15])[C:7]2([H:9])[H:16])([H:8])[H:10]"
C        2.10143561       0.13615463      -0.08356269
C        0.71303772       0.36082622      -0.09411413
C       -0.34335079       0.57511174       0.93860281
C       -1.15055031       1.18500403      -0.19696469
N       -0.35461154       0.33472074      -1.15301729
C       -0.85823184      -1.01850195      -0.76945482
C       -0.33439067      -0.93891011       0.66399226
H        2.58184186       0.20663060      -1.05463456
H        1.32351520      -1.22710385       0.51511873
H        2.66722744       0.63352422       0.69869779
H       -0.19733528       0.97045469       1.93733544
H       -2.22955064       1.01216739      -0.20423340
H       -0.92732592       2.23580126      -0.37690814
H       -0.33289573      -1.76871705      -1.36055631
H       -1.93076136      -1.14551053      -0.92719456
H       -0.72805376      -1.55165202       1.46689356
16
Frame=13 idx=009268 GeodesicLength=1.1259046199820368 rxn_smarts="[C:1]([C@@:2]12[C@@:3]3([H:11])[C:4]([H:12])([H:13])[N:5]1[C:6]([H:14])([H:15])[C@@:7]23[H:16])([H:8])([H:9])[H:10]>>[C:1](=[C:2]1[C@@:3]2([H:11])[C:4]([H:12])([H:13])[N:5]1[C:6]([H:14])([H:15])[C:7]2([H:9])[H:16])([H:8])[H:10]"
C        2.09526794       0.11977990      -0.08979070
C        0.71210586       0.37709660      -0.10147481
C       -0.34158522       0.58157954       0.93719938
C       -1.15670394       1.18541789      -0.19634663
N       -0.35787409       0.34179012      -1.15514322
C       -0.85102366      -1.01503796      -0.76964319
C       -0.32299109      -0.93278711       0.66438731
H        2.57833983       0.22747140      -1.05690331
H        1.33267158      -1.26356614       0.53413478
H        2.66585007       0.60512935       0.69739912
H       -0.19391455       0.98003483       1.93450855
H       -2.23444571       1.00409870      -0.19749775
H       -0.94246938       2.23788327      -0.37749067
H       -0.31907251      -1.75994666      -1.36144409
H       -1.92220963      -1.15411610      -0.92496949
H       -0.74194551      -1.53482764       1.46307472
16
Frame=14 idx=009268 GeodesicLength=1.2129797202491293 rxn_smarts="[C:1]([C@@:2]12[C@@:3]3([H:11])[C:4]([H:12])([H:13])[N:5]1[C:6]([H:14])([H:15])[C@@:7]23[H:16])([H:8])([H:9])[H:10]>>[C:1](=[C:2]1[C@@:3]2([H:11])[C:4]([H:12])([H:13])[N:5]1[C:6]([H:14])([H:15])[C:7]2([H:9])[H:16])([H:8])[H:10]"
C        2.08798172       0.10284837      -0.09644632
C        0.71103642       0.39491339      -0.10926908
C       -0.33979735       0.58857355       0.93565289
C       -1.16346240       1.18594232      -0.19554326
N       -0.36152572       0.34956381      -1.15735418
C       -0.84328888      -1.01111308      -0.76995911
C       -0.31080339      -0.92606974       0.66457388
H        2.57502529       0.24579795      -1.05781001
H        1.34157728      -1.30121772       0.55422965
H        2.66378666       0.57583446       0.69535154
H       -0.19051761       0.99011213       1.93154490
H       -2.23972450       0.99548778      -0.19032122
H       -0.95896304       2.24015296      -0.37779933
H       -0.30433525      -1.75023585      -1.36258349
H       -1.91291757      -1.16287959      -0.92272294
H       -0.75407165      -1.51771074       1.45845611
16
Frame=15 idx=009268 GeodesicLength=1.299985010607577 rxn_smarts="[C:1]([C@@:2]12[C@@:3]3([H:11])[C:4]([H:12])([H:13])[N:5]1[C:6]([H:14])([H:15])[C@@:7]23[H:16])([H:8])([H:9])[H:10]>>[C:1](=[C:2]1[C@@:3]2([H:11])[C:4]([H:12])([H:13])[N:5]1[C:6]([H:14])([H:15])[C:7]2([H:9])[H:16])([H:8])[H:10]"
C        2.07951202       0.08549419      -0.10346885
C        0.70984208       0.41425317      -0.11748924
C       -0.33797290       0.59607187       0.93396131
C       -1.17078639       1.18657066      -0.19454742
N       -0.36554146       0.35803460      -1.15964113
C       -0.83502682      -1.00671748      -0.77041359
C       -0.29781868      -0.91876997       0.66453698
H        2.57189938       0.26141177      -1.05749494
H        1.35015684      -1.34005538       0.57540432
H        2.66094288       0.54582834       0.69259222
H       -0.18716287       1.00065521       1.92845208
H       -2.24533621       0.98634678      -0.18270487
H       -0.97675025       2.24259014      -0.37780990
H       -0.28869381      -1.73956609      -1.36398869
H       -1.90286778      -1.17177044      -0.92047053
H       -0.76439601      -1.50037737       1.45308225
16
Frame=16 idx=009268 GeodesicLength=1.386960667237794 rxn_smarts="[C:1]([C@@:2]12[C@@:3]3([H:11])[C:4]([H:12])([H:13])[N:5]1[C:6]([H:14])([H:15])[C@@:7]23[H:16])([H:8])([H:9])[H:10]>>[C:1](=[C:2]1[C@@:3]2([H:11])[C:4]([H:12])([H:13])[N:5]1[C:6]([H:14])([H:15])[C:7]2([H:9])[H:16])([H:8])[H:10]"
C        2.06981104       0.06786730      -0.11079019
C        0.70854250       0.43505637      -0.12612380
C       -0.33609055       0.60404001       0.93212263
C       -1.17861668       1.18729309      -0.19335633
N       -0.36988736       0.36717540      -1.16199371
C       -0.82624827      -1.00185343      -0.77101292
C       -0.28404113      -0.91091489       0.66426724
H        2.56895201       0.27420175      -1.05612564
H        1.35831146      -1.38007316       0.59764945
H        2.65722625       0.51532279       0.68917510
H       -0.18386047       1.01162308       1.92523672
H       -2.25121237       0.97670074      -0.17465589
H       -0.99573617       2.24516606      -0.37750481
H       -0.27217909      -1.72794293      -1.36566676
H       -1.89205673      -1.18075676      -0.91822425
H       -0.77291446      -1.48290541       1.44700315
