16
Frame=0 idx=001512 GeodesicLength=0.0 rxn_smarts="[C:1]([C@:2]12[C:3]([H:10])([H:11])[C@@:4]1([H:12])[C:5]([H:13])([H:14])[C:6]2([H:15])[H:16])([H:7])([H:8])[H:9]>>[C:1](=[C:2]1[C:3]([H:10])([H:11])[C:4]([H:9])([H:12])[C:5]([H:13])([H:14])[C:6]1([H:15])[H:16])([H:7])[H:8]"
C        2.01152535      -0.14770150       0.02345969
C        0.66116456       0.13583346      -0.27112926
C       -0.07976221       1.35649211       0.14627077
C       -0.82092671       0.33241061       0.96778534
C       -1.51576627      -0.58767412      -0.00609616
C       -0.31337140      -0.79443461      -0.95617210
H        2.69185925       0.64155924       0.30890638
H        2.38976049      -1.14514001      -0.14831328
H        0.90206082      -0.33141541       0.93884687
H        0.52646449       2.04374491       0.73399364
H       -0.61096344       1.88872245      -0.65285933
H       -1.19443570       0.57846931       1.95666453
H       -1.84255096      -1.52613985       0.44394327
H       -2.38265326      -0.14953929      -0.52088694
H       -0.46844837      -0.47192368      -1.99056531
H        0.04604342      -1.82326369      -0.97384810
16
Frame=1 idx=001512 GeodesicLength=0.09151433056928361 rxn_smarts="[C:1]([C@:2]12[C:3]([H:10])([H:11])[C@@:4]1([H:12])[C:5]([H:13])([H:14])[C:6]2([H:15])[H:16])([H:7])([H:8])[H:9]>>[C:1](=[C:2]1[C:3]([H:10])([H:11])[C:4]([H:9])([H:12])[C:5]([H:13])([H:14])[C:6]1([H:15])[H:16])([H:7])[H:8]"
C        2.00936977      -0.14799181       0.03045663
C        0.66094817       0.13558508      -0.27315690
C       -0.07890769       1.35745493       0.14599247
C       -0.81331373       0.32775840       0.96816770
C       -1.51595813      -0.58581427      -0.00827118
C       -0.31318026      -0.79765438      -0.95637004
H        2.68795427       0.64478631       0.31193810
H        2.40158921      -1.13255936      -0.18136884
H        0.89594838      -0.34412682       0.96779242
H        0.52562379       2.04646837       0.73320261
H       -0.61206749       1.89031266      -0.65052720
H       -1.19622433       0.58094398       1.95156019
H       -1.85017055      -1.52219149       0.44048534
H       -2.37897985      -0.13993201      -0.52199200
H       -0.46472517      -0.48477622      -1.99391986
H        0.04209363      -1.82826338      -0.96398944
16
Frame=2 idx=001512 GeodesicLength=0.18276308494744586 rxn_smarts="[C:1]([C@:2]12[C:3]([H:10])([H:11])[C@@:4]1([H:12])[C:5]([H:13])([H:14])[C:6]2([H:15])[H:16])([H:7])([H:8])[H:9]>>[C:1](=[C:2]1[C:3]([H:10])([H:11])[C:4]([H:9])([H:12])[C:5]([H:13])([H:14])[C:6]1([H:15])[H:16])([H:7])[H:8]"
C        2.00696148      -0.14883379       0.03764216
C        0.66078218       0.13550344      -0.27574189
C       -0.07794224       1.35844249       0.14558474
C       -0.80553978       0.32315356       0.96839792
C       -1.51604135      -0.58393655      -0.01043495
C       -0.31301524      -0.80093336      -0.95667207
H        2.68380956       0.64738898       0.31541519
H        2.41320064      -1.11844996      -0.21463645
H        0.88947231      -0.35710142       0.99744324
H        0.52500220       2.04911911       0.73227710
H       -0.61317493       1.89200112      -0.64819536
H       -1.19761942       0.58331473       1.94628303
H       -1.85759270      -1.51814530       0.43714423
H       -2.37521691      -0.13041306      -0.52300921
H       -0.46122368      -0.49790802      -1.99731232
H        0.03813788      -1.83320198      -0.95418536
16
Frame=3 idx=001512 GeodesicLength=0.27385166923354676 rxn_smarts="[C:1]([C@:2]12[C:3]([H:10])([H:11])[C@@:4]1([H:12])[C:5]([H:13])([H:14])[C:6]2([H:15])[H:16])([H:7])([H:8])[H:9]>>[C:1](=[C:2]1[C:3]([H:10])([H:11])[C:4]([H:9])([H:12])[C:5]([H:13])([H:14])[C:6]1([H:15])[H:16])([H:7])[H:8]"
C        2.00427251      -0.15025636       0.04496866
C        0.66066997       0.13562615      -0.27898321
C       -0.07686360       1.35946595       0.14501960
C       -0.79754682       0.31858079       0.96846366
C       -1.51599421      -0.58204900      -0.01257990
C       -0.31288669      -0.80426014      -0.95711668
H        2.67939236       0.64929918       0.31940989
H        2.42456135      -1.10276700      -0.24794929
H        0.88262412      -0.37033263       1.02784356
H        0.52462215       2.05170434       0.73117476
H       -0.61432754       1.89380361      -0.64585744
H       -1.19856137       0.58557029       1.94082985
H       -1.86477119      -1.51401770       0.43393361
H       -2.37136725      -0.12099264      -0.52389735
H       -0.45800599      -0.51131301      -2.00077302
H        0.03418220      -1.83806181      -0.94448669
16
Frame=4 idx=001512 GeodesicLength=0.364854175165306 rxn_smarts="[C:1]([C@:2]12[C:3]([H:10])([H:11])[C@@:4]1([H:12])[C:5]([H:13])([H:14])[C:6]2([H:15])[H:16])([H:7])([H:8])[H:9]>>[C:1](=[C:2]1[C:3]([H:10])([H:11])[C:4]([H:9])([H:12])[C:5]([H:13])([H:14])[C:6]1([H:15])[H:16])([H:7])[H:8]"
C        2.00127511      -0.15227674       0.05235686
C        0.66061320       0.13599093      -0.28298574
C       -0.07567120       1.36053538       0.14426814
C       -0.78927333       0.31402146       0.96835018
C       -1.51579297      -0.58016169      -0.01469816
C       -0.31280732      -0.80761870      -0.95774907
H        2.67467092       0.65045831       0.32398885
H        2.43562906      -1.08550380      -0.28107736
H        0.87540473      -0.38379546       1.05903483
H        0.52450491       2.05423000       0.72985171
H       -0.61557098       1.89573723      -0.64350219
H       -1.19898410       0.58769130       1.93519847
H       -1.87165150      -1.50982968       0.43086664
H       -2.36743494      -0.11168298      -0.52460833
H       -0.45514330      -0.52497422      -2.00433567
H        0.03023172      -1.84282134      -0.93495915
16
Frame=5 idx=001512 GeodesicLength=0.4558823830152128 rxn_smarts="[C:1]([C@:2]12[C:3]([H:10])([H:11])[C@@:4]1([H:12])[C:5]([H:13])([H:14])[C:6]2([H:15])[H:16])([H:7])([H:8])[H:9]>>[C:1](=[C:2]1[C:3]([H:10])([H:11])[C:4]([H:9])([H:12])[C:5]([H:13])([H:14])[C:6]1([H:15])[H:16])([H:7])[H:8]"
C        1.99794078      -0.15490014       0.05971856
C        0.66061321       0.13665154      -0.28787674
C       -0.07436746       1.36166698       0.14329844
C       -0.78064273       0.30945465       0.96804069
C       -1.51540603      -0.57828596      -0.01678020
C       -0.31278991      -0.81098436      -0.95862604
H        2.66959580       0.65080709       0.32920266
H        2.44635215      -1.06669688      -0.31372091
H        0.86781484      -0.39747576       1.09106440
H        0.52466943       2.05670941       0.72825908
H       -0.61696719       1.89782392      -0.64111217
H       -1.19880527       0.58965411       1.92938639
H       -1.87816400      -1.50560647       0.42795746
H       -2.36342419      -0.10250068      -0.52508200
H       -0.45271746      -0.53886740      -2.00804354
H        0.02629805      -1.84745006      -0.92568608
16
Frame=6 idx=001512 GeodesicLength=0.5469572829674509 rxn_smarts="[C:1]([C@:2]12[C:3]([H:10])([H:11])[C@@:4]1([H:12])[C:5]([H:13])([H:14])[C:6]2([H:15])[H:16])([H:7])([H:8])[H:9]>>[C:1](=[C:2]1[C:3]([H:10])([H:11])[C:4]([H:9])([H:12])[C:5]([H:13])([H:14])[C:6]1([H:15])[H:16])([H:7])[H:8]"
C        1.99423308      -0.15811261       0.06694077
C        0.66067044       0.13765285      -0.29376647
C       -0.07295671       1.36287303       0.14207889
C       -0.77158447       0.30485849       0.96751716
C       -1.51480353      -0.57643518      -0.01881686
C       -0.31284786      -0.81432815      -0.95980292
H        2.66413944       0.65032307       0.33510074
H        2.45667322      -1.04644338      -0.34556023
H        0.85987032      -0.41134379       1.12397121
H        0.52512763       2.05915630       0.72634821
H       -0.61857259       1.90008162      -0.63866929
H       -1.19794782       0.59143070       1.92339063
H       -1.88423828      -1.50137934       0.42522003
H       -2.35933952      -0.09346472      -0.52525904
H       -0.45080991      -0.55295348      -2.01193594
H        0.02238657      -1.85191542      -0.91675690
16
Frame=7 idx=001512 GeodesicLength=0.6381440613701187 rxn_smarts="[C:1]([C@:2]12[C:3]([H:10])([H:11])[C@@:4]1([H:12])[C:5]([H:13])([H:14])[C:6]2([H:15])[H:16])([H:7])([H:8])[H:9]>>[C:1](=[C:2]1[C:3]([H:10])([H:11])[C:4]([H:9])([H:12])[C:5]([H:13])([H:14])[C:6]1([H:15])[H:16])([H:7])[H:8]"
C        1.99010722      -0.16188612       0.07392684
C        0.66078652       0.13906072      -0.30078146
C       -0.07144832       1.36417340       0.14057583
C       -0.76201433       0.30020959       0.96675956
C       -1.51394717      -0.57462487      -0.02079762
C       -0.31299111      -0.81760865      -0.96134436
H        2.65826165       0.64898641       0.34169568
H        2.46653288      -1.02491178      -0.37623135
H        0.85158350      -0.42537911       1.15781364
H        0.52588299       2.06159637       0.72406650
H       -0.62046298       1.90253337      -0.63614975
H       -1.19632553       0.59299070       1.91720524
H       -1.88978653      -1.49718689       0.42266946
H       -2.35518596      -0.08460122      -0.52506960
H       -0.44950619      -0.56717993      -2.01606159
H        0.01851336      -1.85617201      -0.90827702
16
Frame=8 idx=001512 GeodesicLength=0.7294618877701247 rxn_smarts="[C:1]([C@:2]12[C:3]([H:10])([H:11])[C@@:4]1([H:12])[C:5]([H:13])([H:14])[C:6]2([H:15])[H:16])([H:7])([H:8])[H:9]>>[C:1](=[C:2]1[C:3]([H:10])([H:11])[C:4]([H:9])([H:12])[C:5]([H:13])([H:14])[C:6]1([H:15])[H:16])([H:7])[H:8]"
C        1.98551764      -0.16617119       0.08057611
C        0.66096310       0.14092776      -0.30903335
C       -0.06985052       1.36558173       0.13875937
C       -0.75185447       0.29547900       0.96574734
C       -1.51279927      -0.57287191      -0.02271335
C       -0.31322764      -0.82078423      -0.96331148
H        2.65193114       0.64680929       0.34897506
H        2.47586783      -1.00231509      -0.40538396
H        0.84296181      -0.43953696       1.19266335
H        0.52693530       2.06404967       0.72136712
H       -0.62269803       1.90520060      -0.63352504
H       -1.19386630       0.59429888       1.91082058
H       -1.89472361      -1.49307155       0.42031599
H       -2.35096370      -0.07593263      -0.52444677
H       -0.44888469      -0.58148425      -2.02045972
H        0.01469142      -1.86017910      -0.90035123
16
Frame=9 idx=001512 GeodesicLength=0.8211716000057562 rxn_smarts="[C:1]([C@:2]12[C:3]([H:10])([H:11])[C@@:4]1([H:12])[C:5]([H:13])([H:14])[C:6]2([H:15])[H:16])([H:7])([H:8])[H:9]>>[C:1](=[C:2]1[C:3]([H:10])([H:11])[C:4]([H:9])([H:12])[C:5]([H:13])([H:14])[C:6]1([H:15])[H:16])([H:7])[H:8]"
C        1.98036747      -0.17085426       0.08679470
C        0.66120478       0.14333092      -0.31860935
C       -0.06815443       1.36709452       0.13662664
C       -0.74100840       0.29065389       0.96446284
C       -1.51127941      -0.57119525      -0.02455905
C       -0.31352064      -0.82379821      -0.96575116
H        2.64507131       0.64387290       0.35685697
H        2.48447115      -0.97902794      -0.43283961
H        0.83397983      -0.45379239       1.22874907
H        0.52826391       2.06654517       0.71824323
H       -0.62531563       1.90806775      -0.63072967
H       -1.19055149       0.59538093       1.90418670
H       -1.89891659      -1.48907151       0.41815398
H       -2.34662596      -0.06750152      -0.52334225
H       -0.44895466      -0.59582002      -2.02515447
H        0.01096876      -1.86388497      -0.89308857
16
Frame=10 idx=001512 GeodesicLength=0.9129853342959422 rxn_smarts="[C:1]([C@:2]12[C:3]([H:10])([H:11])[C@@:4]1([H:12])[C:5]([H:13])([H:14])[C:6]2([H:15])[H:16])([H:7])([H:8])[H:9]>>[C:1](=[C:2]1[C:3]([H:10])([H:11])[C:4]([H:9])([H:12])[C:5]([H:13])([H:14])[C:6]1([H:15])[H:16])([H:7])[H:8]"
C        1.97463176      -0.17593580       0.09256315
C        0.66150407       0.14631571      -0.32956911
C       -0.06639620       1.36874326       0.13413818
C       -0.72943396       0.28571400       0.96288543
C       -1.50939007      -0.56960711      -0.02632315
C       -0.31390174      -0.82660509      -0.96871401
H        2.63771197       0.64013817       0.36529036
H        2.49250478      -0.95521852      -0.45826602
H        0.82461508      -0.46809775       1.26605322
H        0.52985093       2.06911725       0.71463190
H       -0.62839251       1.91116239      -0.62777017
H       -1.18629735       0.59617136       1.89732103
H       -1.90232962      -1.48523097       0.41620566
H       -2.34221249      -0.05932927      -0.52169143
H       -0.44980460      -0.61009495      -2.03018346
H        0.00733995      -1.86724268      -0.88657158
16
Frame=11 idx=001512 GeodesicLength=1.00482507456101 rxn_smarts="[C:1]([C@:2]12[C:3]([H:10])([H:11])[C@@:4]1([H:12])[C:5]([H:13])([H:14])[C:6]2([H:15])[H:16])([H:7])([H:8])[H:9]>>[C:1](=[C:2]1[C:3]([H:10])([H:11])[C:4]([H:9])([H:12])[C:5]([H:13])([H:14])[C:6]1([H:15])[H:16])([H:7])[H:8]"
C        1.96827389      -0.18135618       0.09784808
C        0.66186369       0.14990968      -0.34196315
C       -0.06458990       1.37053339       0.13127960
C       -0.71707733       0.28064300       0.96100579
C       -1.50709862      -0.56811828      -0.02799860
C       -0.31436351      -0.82916618      -0.97224745
H        2.62984576       0.63565548       0.37420739
H        2.49994545      -0.93116449      -0.48148651
H        0.81481358      -0.48237167       1.30468328
H        0.53167288       2.07178613       0.71051139
H       -0.63197557       1.91448528      -0.62462360
H       -1.18106224       0.59664493       1.89022715
H       -1.90489009      -1.48158134       0.41448054
H       -2.33772310      -0.05143375      -0.51944794
H       -0.45146460      -0.62424478      -2.03558218
H        0.00382970      -1.87022121      -0.88089379
16
Frame=12 idx=001512 GeodesicLength=1.0966532040269998 rxn_smarts="[C:1]([C@:2]12[C:3]([H:10])([H:11])[C@@:4]1([H:12])[C:5]([H:13])([H:14])[C:6]2([H:15])[H:16])([H:7])([H:8])[H:9]>>[C:1](=[C:2]1[C:3]([H:10])([H:11])[C:4]([H:9])([H:12])[C:5]([H:13])([H:14])[C:6]1([H:15])[H:16])([H:7])[H:8]"
C        1.96124218      -0.18705673       0.10262213
C        0.66228507       0.15414493      -0.35581275
C       -0.06274383       1.37246489       0.12804485
C       -0.70388959       0.27542690       0.95881113
C       -1.50437106      -0.56674411      -0.02957719
C       -0.31489564      -0.83143652      -0.97638311
H        2.62145722       0.63046787       0.38350587
H        2.50679953      -0.90713726      -0.50239531
H        0.80450122      -0.49653957       1.34478407
H        0.53370561       2.07457165       0.70586794
H       -0.63609112       1.91802712      -0.62126106
H       -1.17483434       0.59679491       1.88288241
H       -1.90652923      -1.47816188       0.41298295
H       -2.33314910      -0.04384203      -0.51656975
H       -0.45394731      -0.63819436      -2.04136778
H        0.00046040      -1.87278581      -0.87613439
16
Frame=13 idx=001512 GeodesicLength=1.1883991765770894 rxn_smarts="[C:1]([C@:2]12[C:3]([H:10])([H:11])[C@@:4]1([H:12])[C:5]([H:13])([H:14])[C:6]2([H:15])[H:16])([H:7])([H:8])[H:9]>>[C:1](=[C:2]1[C:3]([H:10])([H:11])[C:4]([H:9])([H:12])[C:5]([H:13])([H:14])[C:6]1([H:15])[H:16])([H:7])[H:8]"
C        1.95350112      -0.19298478       0.10687051
C        0.66277502       0.15903118      -0.37111852
C       -0.06086290       1.37453104       0.12443036
C       -0.68983137       0.27005024       0.95629740
C       -1.50117853      -0.56549776      -0.03105102
C       -0.31548659      -0.83338060      -0.98114724
H        2.61253985       0.62462309       0.39309960
H        2.51307368      -0.88337129      -0.52095384
H        0.79357945      -0.51050767       1.38649296
H        0.53592798       2.07748501       0.70069213
H       -0.64075191       1.92177280      -0.61766146
H       -1.16761092       0.59661734       1.87527014
H       -1.90718904      -1.47500865       0.41172058
H       -2.32848383      -0.03657435      -0.51302043
H       -0.45725426      -0.65187199      -2.04755649
H       -0.00274774      -1.87491364      -0.87236471
16
Frame=14 idx=001512 GeodesicLength=1.2800181714642427 rxn_smarts="[C:1]([C@:2]12[C:3]([H:10])([H:11])[C@@:4]1([H:12])[C:5]([H:13])([H:14])[C:6]2([H:15])[H:16])([H:7])([H:8])[H:9]>>[C:1](=[C:2]1[C:3]([H:10])([H:11])[C:4]([H:9])([H:12])[C:5]([H:13])([H:14])[C:6]1([H:15])[H:16])([H:7])[H:8]"
C        1.94503297      -0.19909312       0.11058230
C        0.66333580       0.16457072      -0.38785807
C       -0.05894763       1.37671943       0.12043942
C       -0.67487098       0.26449988       0.95346032
C       -1.49749546      -0.56439404      -0.03240998
C       -0.31612358      -0.83496618      -0.98655675
H        2.60308985       0.61816458       0.40289641
H        2.51879499      -0.86007487      -0.53719175
H        0.78191017      -0.52416521       1.42995786
H        0.53832182       2.08053258       0.69498197
H       -0.64595484       1.92569897      -0.61380236
H       -1.15940300       0.59611073       1.86737061
H       -1.90682218      -1.47215731       0.41069876
H       -2.32371736      -0.02965106      -0.50876964
H       -0.46137448      -0.66520700      -2.05415497
H       -0.00577610      -1.87658810      -0.86964413
16
Frame=15 idx=001512 GeodesicLength=1.371458326914608 rxn_smarts="[C:1]([C@:2]12[C:3]([H:10])([H:11])[C@@:4]1([H:12])[C:5]([H:13])([H:14])[C:6]2([H:15])[H:16])([H:7])([H:8])[H:9]>>[C:1](=[C:2]1[C:3]([H:10])([H:11])[C:4]([H:9])([H:12])[C:5]([H:13])([H:14])[C:6]1([H:15])[H:16])([H:7])[H:8]"
C        1.93583819      -0.20534037       0.11374066
C        0.66397250       0.17074411      -0.40598349
C       -0.05699322       1.37900842       0.11608309
C       -0.65898755       0.25876068       0.95030474
C       -1.49330084      -0.56344712      -0.03364419
C       -0.31679342      -0.83617121      -0.99261969
H        2.59311662       0.61113893       0.41281421
H        2.52399294      -0.83740860      -0.55119786
H        0.76932587      -0.53738354       1.47531479
H        0.54087499       2.08370881       0.68874567
H       -0.65167949       1.92977460      -0.60966570
H       -1.15023612       0.59528077       1.85916497
H       -1.90539339      -1.46964005       0.40992213
H       -2.31883902      -0.02308785      -0.50379383
H       -0.46628659      -0.67813381      -2.06116483
H       -0.00861146      -1.87780379      -0.86802067
16
Frame=16 idx=001512 GeodesicLength=1.4627021697364526 rxn_smarts="[C:1]([C@:2]12[C:3]([H:10])([H:11])[C@@:4]1([H:12])[C:5]([H:13])([H:14])[C:6]2([H:15])[H:16])([H:7])([H:8])[H:9]>>[C:1](=[C:2]1[C:3]([H:10])([H:11])[C:4]([H:9])([H:12])[C:5]([H:13])([H:14])[C:6]1([H:15])[H:16])([H:7])[H:8]"
C        1.92593137      -0.21169221       0.11632501
C        0.66469265       0.17751921      -0.42542440
C       -0.05498827       1.38136909       0.11137948
C       -0.64216679       0.25281642       0.94684053
C       -1.48857689      -0.56267185      -0.03474178
C       -0.31748122      -0.83697866      -0.99933547
H        2.58263022       0.60358960       0.42276334
H        2.52870663      -0.81549052      -0.56311846
H        0.75561938      -0.55001939       1.52270259
H        0.54358164       2.08699908       0.68200092
H       -0.65788700       1.93396039      -0.60523224
H       -1.14015003       0.59413808       1.85063084
H       -1.90287887      -1.46748895       0.40939609
H       -2.31383623      -0.01689784      -0.49807325
H       -0.47195501      -0.69058802      -2.06858195
H       -0.01124158      -1.87856443      -0.86753125
