15
Frame=0 idx=011198 GeodesicLength=0.0 rxn_smarts="[C:1]([C@@:2]1([H:11])[O:3][C@@:4]2([H:12])[C:5]([H:13])([H:14])[C@@:6]12[O:7][H:15])([H:8])([H:9])[H:10]>>[C:1]([C@@:2]([O:3][C:4](=[C:5]([H:13])[H:14])[H:12])([C:6][O:7][H:15])[H:11])([H:8])([H:9])[H:10]"
C       -2.05467268      -0.04940522      -0.23159913
C       -0.67776521       0.47921083       0.08498023
O       -0.29099359       0.18054364       1.43198258
C        1.07370905       0.14109702       1.27111006
C        1.62085103      -0.92767174       0.65102764
C        0.39962885      -0.18274636      -0.81324982
O        0.91508291       0.75101152      -1.62240777
H       -2.08463346      -1.13120264      -0.09956401
H       -2.80529250       0.41300754       0.41137935
H       -2.30066920       0.18143820      -1.27082469
H       -0.65360752       1.57147792      -0.03474807
H        1.61451219       1.05960977       1.48357372
H        2.66982266      -0.89555715       0.38042613
H        1.14519333      -1.89485434       0.65785189
H        1.42883408       0.30404096      -2.29993810
15
Frame=1 idx=011198 GeodesicLength=0.038906238740364134 rxn_smarts="[C:1]([C@@:2]1([H:11])[O:3][C@@:4]2([H:12])[C:5]([H:13])([H:14])[C@@:6]12[O:7][H:15])([H:8])([H:9])[H:10]>>[C:1]([C@@:2]([O:3][C:4](=[C:5]([H:13])[H:14])[H:12])([C:6][O:7][H:15])[H:11])([H:8])([H:9])[H:10]"
C       -2.05319903      -0.04416779      -0.23652244
C       -0.67694389       0.48303959       0.08564407
O       -0.29545748       0.17652815       1.43209691
C        1.06972012       0.14078478       1.27644077
C        1.63098426      -0.92195945       0.65357201
C        0.40414970      -0.17871323      -0.80177753
O        0.90853277       0.73786870      -1.63689724
H       -2.08447821      -1.12647866      -0.10874928
H       -2.80381603       0.41614385       0.40791721
H       -2.29840220       0.19187692      -1.27466762
H       -0.64796918       1.57514432      -0.03241963
H        1.60978549       1.04948461       1.52784433
H        2.68432190      -0.88095869       0.40185744
H        1.16570697      -1.89397736       0.63537501
H        1.38706481       0.27538425      -2.32971400
15
Frame=2 idx=011198 GeodesicLength=0.07739629043397148 rxn_smarts="[C:1]([C@@:2]1([H:11])[O:3][C@@:4]2([H:12])[C:5]([H:13])([H:14])[C@@:6]12[O:7][H:15])([H:8])([H:9])[H:10]>>[C:1]([C@@:2]([O:3][C:4](=[C:5]([H:13])[H:14])[H:12])([C:6][O:7][H:15])[H:11])([H:8])([H:9])[H:10]"
C       -2.05158774      -0.03888047      -0.24147483
C       -0.67603566       0.48706376       0.08615831
O       -0.29971935       0.17275547       1.43197917
C        1.06592425       0.14073692       1.28146525
C        1.64115564      -0.91587009       0.65577723
C        0.40871452      -0.17423596      -0.79063893
O        0.90149665       0.72414127      -1.65184745
H       -2.08398289      -1.12170099      -0.11803439
H       -2.80221158       0.41919292       0.40450165
H       -2.29613645       0.20236911      -1.27847937
H       -0.64227704       1.57898105      -0.03027806
H        1.60458062       1.03800446       1.57258886
H        2.69852816      -0.86634302       0.42330666
H        1.18677217      -1.89218463       0.61240437
H        1.34477870       0.24597020      -2.35742846
15
Frame=3 idx=011198 GeodesicLength=0.1154369214686144 rxn_smarts="[C:1]([C@@:2]1([H:11])[O:3][C@@:4]2([H:12])[C:5]([H:13])([H:14])[C@@:6]12[O:7][H:15])([H:8])([H:9])[H:10]>>[C:1]([C@@:2]([O:3][C:4](=[C:5]([H:13])[H:14])[H:12])([C:6][O:7][H:15])[H:11])([H:8])([H:9])[H:10]"
C       -2.04983440      -0.03358727      -0.24642706
C       -0.67505021       0.49130783       0.08651412
O       -0.30375693       0.16931055       1.43162664
C        1.06234309       0.14099985       1.28615733
C        1.65130350      -0.90941996       0.65763211
C        0.41332751      -0.16924787      -0.77986070
O        0.89397824       0.70989218      -1.66719499
H       -2.08309871      -1.11690816      -0.12733726
H       -2.80048453       0.42210989       0.40114728
H       -2.29389536       0.21281044      -1.28223744
H       -0.63659181       1.58301288      -0.02834483
H        1.59892700       1.02509197       1.61764838
H        2.71237449      -0.85183842       0.44474147
H        1.20823621      -1.88943096       0.58895506
H        1.30222191       0.21589705      -2.38302009
15
Frame=4 idx=011198 GeodesicLength=0.15290313779205844 rxn_smarts="[C:1]([C@@:2]1([H:11])[O:3][C@@:4]2([H:12])[C:5]([H:13])([H:14])[C@@:6]12[O:7][H:15])([H:8])([H:9])[H:10]>>[C:1]([C@@:2]([O:3][C:4](=[C:5]([H:13])[H:14])[H:12])([C:6][O:7][H:15])[H:11])([H:8])([H:9])[H:10]"
C       -2.04801446      -0.02835291      -0.25127260
C       -0.67406221       0.49580534       0.08669485
O       -0.30754054       0.16632252       1.43102137
C        1.05900366       0.14164502       1.29040104
C        1.66132187      -0.90263659       0.65902422
C        0.41789641      -0.16367675      -0.76952410
O        0.88584116       0.69520495      -1.68295307
H       -2.08183253      -1.11216427      -0.13648019
H       -2.79869633       0.42482598       0.39798347
H       -2.29184372       0.22305945      -1.28583406
H       -0.63106448       1.58727906      -0.02666551
H        1.59290512       1.01071527       1.66267689
H        2.72575154      -0.83762007       0.46598183
H        1.22987094      -1.88568292       0.56497441
H        1.26046356       0.18527593      -2.40602855
15
Frame=5 idx=011198 GeodesicLength=0.1898283299693779 rxn_smarts="[C:1]([C@@:2]1([H:11])[O:3][C@@:4]2([H:12])[C:5]([H:13])([H:14])[C@@:6]12[O:7][H:15])([H:8])([H:9])[H:10]>>[C:1]([C@@:2]([O:3][C:4](=[C:5]([H:13])[H:14])[H:12])([C:6][O:7][H:15])[H:11])([H:8])([H:9])[H:10]"
C       -2.04605604      -0.02319318      -0.25603746
C       -0.67303379       0.50056134       0.08671549
O       -0.31106331       0.16380564       1.43019356
C        1.05590455       0.14269780       1.29426076
C        1.67117767      -0.89552711       0.66002843
C        0.42248953      -0.15747298      -0.75959988
O        0.87719713       0.68012162      -1.69898208
H       -2.08009843      -1.10747421      -0.14548462
H       -2.79679087       0.42731516       0.39496073
H       -2.28988456       0.23308672      -1.28930619
H       -0.62568514       1.59177806      -0.02520936
H        1.58646182       0.99481512       1.70763580
H        2.73861311      -0.82374777       0.48707231
H        1.25159819      -1.88090627       0.54054283
H        1.21917014       0.15414007      -2.42679033
15
Frame=6 idx=011198 GeodesicLength=0.22612689877509695 rxn_smarts="[C:1]([C@@:2]1([H:11])[O:3][C@@:4]2([H:12])[C:5]([H:13])([H:14])[C@@:6]12[O:7][H:15])([H:8])([H:9])[H:10]>>[C:1]([C@@:2]([O:3][C:4](=[C:5]([H:13])[H:14])[H:12])([C:6][O:7][H:15])[H:11])([H:8])([H:9])[H:10]"
C       -2.04402199      -0.01820229      -0.26063219
C       -0.67202832       0.50563165       0.08656468
O       -0.31431720       0.16193508       1.42915619
C        1.05308171       0.14423157       1.29767278
C        1.68076224      -0.88818480       0.66060810
C        0.42709203      -0.15052864      -0.75014004
O        0.86805921       0.66482995      -1.71522503
H       -2.07786557      -1.10295370      -0.15415790
H       -2.79486888       0.42947574       0.39216411
H       -2.28814538       0.24270426      -1.29258062
H       -0.62062001       1.59659704      -0.02402975
H        1.57975041       0.97741712       1.75211991
H        2.75089531      -0.81053244       0.50796068
H        1.27311000      -1.87513571       0.51567560
H        1.17911645       0.12271518      -2.44515651
15
Frame=7 idx=011198 GeodesicLength=0.26156208001861725 rxn_smarts="[C:1]([C@@:2]1([H:11])[O:3][C@@:4]2([H:12])[C:5]([H:13])([H:14])[C@@:6]12[O:7][H:15])([H:8])([H:9])[H:10]>>[C:1]([C@@:2]([O:3][C:4](=[C:5]([H:13])[H:14])[H:12])([C:6][O:7][H:15])[H:11])([H:8])([H:9])[H:10]"
C       -2.04206317      -0.01344959      -0.26484785
C       -0.67119756       0.51103744       0.08623058
O       -0.31721361       0.16086206       1.42785213
C        1.05056116       0.14634547       1.30038476
C        1.68985001      -0.88059175       0.66046949
C        0.43139362      -0.14276442      -0.74128015
O        0.85795489       0.64939793      -1.73174508
H       -2.07520844      -1.09862730      -0.16225888
H       -2.79295587       0.43119472       0.38989466
H       -2.28698596       0.25176183      -1.29540302
H       -0.61610656       1.60171710      -0.02314330
H        1.57291174       0.95854598       1.79563308
H        2.76231783      -0.79810895       0.52817690
H        1.29403278      -1.86827763       0.49017267
H        1.14270914       0.09095712      -2.46013600
15
Frame=8 idx=011198 GeodesicLength=0.2964668776527715 rxn_smarts="[C:1]([C@@:2]1([H:11])[O:3][C@@:4]2([H:12])[C:5]([H:13])([H:14])[C@@:6]12[O:7][H:15])([H:8])([H:9])[H:10]>>[C:1]([C@@:2]([O:3][C:4](=[C:5]([H:13])[H:14])[H:12])([C:6][O:7][H:15])[H:11])([H:8])([H:9])[H:10]"
C       -2.03997057      -0.00887391      -0.26891463
C       -0.67036342       0.51676005       0.08576020
O       -0.31983692       0.16042292       1.42639251
C        1.04831616       0.14899388       1.30274895
C        1.69864502      -0.87276727       0.65999811
C        0.43576669      -0.13420052      -0.73282877
O        0.84742555       0.63378832      -1.74829537
H       -2.07198676      -1.09446743      -0.17006519
H       -2.79097251       0.43256715       0.38780820
H       -2.28596416       0.26040253      -1.29806104
H       -0.61192030       1.60715802      -0.02246527
H        1.56573890       0.93811983       1.83857372
H        2.77314016      -0.78640622       0.54825385
H        1.31466230      -1.86039706       0.46432175
H        1.10731984       0.05889970      -2.47322702
15
Frame=9 idx=011198 GeodesicLength=0.33090392234574906 rxn_smarts="[C:1]([C@@:2]1([H:11])[O:3][C@@:4]2([H:12])[C:5]([H:13])([H:14])[C@@:6]12[O:7][H:15])([H:8])([H:9])[H:10]>>[C:1]([C@@:2]([O:3][C:4](=[C:5]([H:13])[H:14])[H:12])([C:6][O:7][H:15])[H:11])([H:8])([H:9])[H:10]"
C       -2.03783038      -0.00444239      -0.27279591
C       -0.66958049       0.52281964       0.08516557
O       -0.32219216       0.16059281       1.42477284
C        1.04635887       0.15221707       1.30473868
C        1.70717897      -0.86466452       0.65912660
C        0.44014391      -0.12481858      -0.72479686
O        0.83631648       0.61791908      -1.76492467
H       -2.06828150      -1.09045316      -0.17760545
H       -2.78898137       0.43359389       0.38599382
H       -2.28521469       0.26871043      -1.30049633
H       -0.60811276       1.61294939      -0.02196933
H        1.55820905       0.91605564       1.88092064
H        2.78339614      -0.77536260       0.56809305
H        1.33506391      -1.85145992       0.43802049
H        1.07352602       0.02634321      -2.48424315
15
Frame=10 idx=011198 GeodesicLength=0.3650617734632062 rxn_smarts="[C:1]([C@@:2]1([H:11])[O:3][C@@:4]2([H:12])[C:5]([H:13])([H:14])[C@@:6]12[O:7][H:15])([H:8])([H:9])[H:10]>>[C:1]([C@@:2]([O:3][C:4](=[C:5]([H:13])[H:14])[H:12])([C:6][O:7][H:15])[H:11])([H:8])([H:9])[H:10]"
C       -2.03544117      -0.00016583      -0.27665130
C       -0.66871017       0.52922475       0.08446107
O       -0.32427531       0.16135404       1.42303009
C        1.04469197       0.15602307       1.30654850
C        1.71550015      -0.85628184       0.65808421
C        0.44475163      -0.11455672      -0.71706335
O        0.82493136       0.60178061      -1.78144199
H       -2.06388652      -1.08659328      -0.18506475
H       -2.78685042       0.43424216       0.38419982
H       -2.28441672       0.27668345      -1.30288970
H       -0.60454458       1.61910215      -0.02161933
H        1.55027993       0.89228108       1.92274672
H        2.79314367      -0.76504463       0.58813897
H        1.35528868      -1.84142704       0.41138108
H        1.03953749      -0.00662198      -2.49386004
15
Frame=11 idx=011198 GeodesicLength=0.3987540781152903 rxn_smarts="[C:1]([C@@:2]1([H:11])[O:3][C@@:4]2([H:12])[C:5]([H:13])([H:14])[C@@:6]12[O:7][H:15])([H:8])([H:9])[H:10]>>[C:1]([C@@:2]([O:3][C:4](=[C:5]([H:13])[H:14])[H:12])([C:6][O:7][H:15])[H:11])([H:8])([H:9])[H:10]"
C       -2.03298712       0.00395284      -0.28026266
C       -0.66789543       0.53596576       0.08365091
O       -0.32609742       0.16271703       1.42110475
C        1.04329389       0.16045450       1.30795027
C        1.72346118      -0.84760727       0.65660199
C        0.44935268      -0.10340166      -0.70972943
O        0.81298084       0.58535769      -1.79789645
H       -2.05898494      -1.08285948      -0.19222975
H       -2.78467244       0.43447217       0.38275194
H       -2.28388310       0.28432942      -1.30495940
H       -0.60137371       1.62558044      -0.02141483
H        1.54189246       0.86684028       1.96357312
H        2.80220395      -0.75544771       0.60780423
H        1.37511873      -1.83026114       0.38430458
H        1.00759043      -0.04009286      -2.50124928
15
Frame=12 idx=011198 GeodesicLength=0.4320882326166887 rxn_smarts="[C:1]([C@@:2]1([H:11])[O:3][C@@:4]2([H:12])[C:5]([H:13])([H:14])[C@@:6]12[O:7][H:15])([H:8])([H:9])[H:10]>>[C:1]([C@@:2]([O:3][C:4](=[C:5]([H:13])[H:14])[H:12])([C:6][O:7][H:15])[H:11])([H:8])([H:9])[H:10]"
C       -2.03032264       0.00783799      -0.28374564
C       -0.66706841       0.54309212       0.08274846
O       -0.32762321       0.16479344       1.41909563
C        1.04220349       0.16551874       1.30914188
C        1.73104814      -0.83876342       0.65489065
C        0.45411333      -0.09123816      -0.70273652
O        0.80068861       0.56880186      -1.81413234
H       -2.05332430      -1.07935573      -0.19917685
H       -2.78238655       0.43419101       0.38146524
H       -2.28343231       0.29151574      -1.30688783
H       -0.59863698       1.63247387      -0.02134205
H        1.53320591       0.83989471       2.00318261
H        2.81058543      -0.74693638       0.62754646
H        1.39444245      -1.81803292       0.35687826
H        0.97650703      -0.07379287      -2.50692796
15
Frame=13 idx=011198 GeodesicLength=0.4652301448659943 rxn_smarts="[C:1]([C@@:2]1([H:11])[O:3][C@@:4]2([H:12])[C:5]([H:13])([H:14])[C@@:6]12[O:7][H:15])([H:8])([H:9])[H:10]>>[C:1]([C@@:2]([O:3][C:4](=[C:5]([H:13])[H:14])[H:12])([C:6][O:7][H:15])[H:11])([H:8])([H:9])[H:10]"
C       -2.02744362       0.01158448      -0.28716751
C       -0.66619297       0.55058254       0.08177588
O       -0.32888735       0.16740818       1.41698793
C        1.04141118       0.17120588       1.31019635
C        1.73840169      -0.82964753       0.65297422
C        0.45908912      -0.07809621      -0.69603051
O        0.78807868       0.55187991      -1.83013296
H       -2.04697136      -1.07598387      -0.20610150
H       -2.77998196       0.43347448       0.38029209
H       -2.28300465       0.29845268      -1.30871336
H       -0.59622203       1.63975674      -0.02131893
H        1.52399982       0.81130281       2.04177571
H        2.81840763      -0.73923995       0.64734119
H        1.41356189      -1.80466549       0.32908253
H        0.94575393      -0.10801465      -2.51096113
15
Frame=14 idx=011198 GeodesicLength=0.49829884022820903 rxn_smarts="[C:1]([C@@:2]1([H:11])[O:3][C@@:4]2([H:12])[C:5]([H:13])([H:14])[C@@:6]12[O:7][H:15])([H:8])([H:9])[H:10]>>[C:1]([C@@:2]([O:3][C:4](=[C:5]([H:13])[H:14])[H:12])([C:6][O:7][H:15])[H:11])([H:8])([H:9])[H:10]"
C       -2.02432717       0.01521632      -0.29057206
C       -0.66525308       0.55845383       0.08075262
O       -0.32990471       0.17050705       1.41479218
C        1.04091575       0.17750506       1.31118582
C        1.74556744      -0.82024314       0.65088508
C        0.46433008      -0.06392197      -0.68957507
O        0.77518509       0.53450053      -1.84584692
H       -2.03989077      -1.07272891      -0.21311848
H       -2.77745305       0.43230640       0.37919398
H       -2.28255716       0.30522085      -1.31046998
H       -0.59411037       1.64745885      -0.02129093
H        1.51421754       0.78105868       2.07926848
H        2.82570367      -0.73234499       0.66724831
H        1.43258032      -1.79011917       0.30087914
H        0.91499642      -0.14286940      -2.51333218
15
Frame=15 idx=011198 GeodesicLength=0.5314224512044673 rxn_smarts="[C:1]([C@@:2]1([H:11])[O:3][C@@:4]2([H:12])[C:5]([H:13])([H:14])[C@@:6]12[O:7][H:15])([H:8])([H:9])[H:10]>>[C:1]([C@@:2]([O:3][C:4](=[C:5]([H:13])[H:14])[H:12])([C:6][O:7][H:15])[H:11])([H:8])([H:9])[H:10]"
C       -2.02080432       0.01867723      -0.29404071
C       -0.66416868       0.56672255       0.07969497
O       -0.33067791       0.17411063       1.41253379
C        1.04069258       0.18437033       1.31221903
C        1.75249088      -0.81059636       0.64872584
C        0.46997994      -0.04857864      -0.68330483
O        0.76223015       0.51670321      -1.86111933
H       -2.03184153      -1.06962846      -0.22033384
H       -2.77469288       0.43054188       0.37804145
H       -2.28185902       0.31176484      -1.31224432
H       -0.59227116       1.65558854      -0.02122193
H        1.50391114       0.74937017       2.11532046
H        2.83238427      -0.72651886       0.68761225
H        1.45141884      -1.77433046       0.27225861
H        0.88320770      -0.17819661      -2.51414144
15
Frame=16 idx=011198 GeodesicLength=0.5644746896577124 rxn_smarts="[C:1]([C@@:2]1([H:11])[O:3][C@@:4]2([H:12])[C:5]([H:13])([H:14])[C@@:6]12[O:7][H:15])([H:8])([H:9])[H:10]>>[C:1]([C@@:2]([O:3][C:4](=[C:5]([H:13])[H:14])[H:12])([C:6][O:7][H:15])[H:11])([H:8])([H:9])[H:10]"
C       -2.01704344       0.02199899      -0.29740596
C       -0.66306277       0.57535343       0.07862150
O       -0.33123478       0.17815441       1.41019072
C        1.04069658       0.19175040       1.31316319
C        1.75905587      -0.80075339       0.64629661
C        0.47581954      -0.03210717      -0.67729360
O        0.74896322       0.49845149      -1.87591950
H       -2.02302947      -1.06663217      -0.22760216
H       -2.77177013       0.42821754       0.37708964
H       -2.28117466       0.31815324      -1.31382348
H       -0.59082314       1.66410400      -0.02106466
H        1.49304758       0.71641898       2.14951415
H        2.83829222      -0.72169516       0.70782608
H        1.46993639      -1.75733952       0.24317932
H        0.85232699      -0.21407507      -2.51277185
