15
Frame=0 idx=009210 GeodesicLength=0.0 rxn_smarts="[C:1]([C:2]#[C:3][C:4]([C@@:5]1([H:13])[C:6]([H:14])([H:15])[O:7]1)([H:11])[H:12])([H:8])([H:9])[H:10]>>[C:1]([C:2]#[C:3][C:4]([C:5]([O+:7]=[C-:6][H:14])([H:13])[H:15])([H:11])[H:12])([H:8])([H:9])[H:10]"
C        2.74223063      -1.00285898      -1.39940798
C        1.68581239      -0.26510681      -0.71728320
C        0.82614053       0.35082885      -0.15359769
C       -0.24395472       1.08012123       0.52087270
C       -1.57884142       0.36828642       0.40521466
C       -2.76534803      -0.09075975       1.79868479
O       -2.59173519       1.09045216       1.08834971
H        3.66986418      -0.96695354      -0.82656728
H        2.46315292      -2.04985184      -1.52621791
H        2.93442922      -0.58051140      -2.38673003
H       -0.35864893       2.07617586       0.08594269
H       -0.01715720       1.21606312       1.58041226
H       -1.88879000       0.11070507      -0.60712473
H       -3.42828629      -0.72227150       1.14763121
H       -1.44886809      -0.61431884       0.98982076
15
Frame=1 idx=009210 GeodesicLength=0.0581799610740652 rxn_smarts="[C:1]([C:2]#[C:3][C:4]([C@@:5]1([H:13])[C:6]([H:14])([H:15])[O:7]1)([H:11])[H:12])([H:8])([H:9])[H:10]>>[C:1]([C:2]#[C:3][C:4]([C:5]([O+:7]=[C-:6][H:14])([H:13])[H:15])([H:11])[H:12])([H:8])([H:9])[H:10]"
C        2.74171372      -1.00117303      -1.40316918
C        1.68644228      -0.26959391      -0.71261048
C        0.82972282       0.34460153      -0.14250429
C       -0.24171923       1.07627614       0.52749375
C       -1.57785728       0.36825577       0.40359098
C       -2.77450749      -0.07846584       1.78591133
O       -2.59563337       1.09709427       1.07391900
H        3.67881371      -0.94315864      -0.84775232
H        2.47637419      -2.05396873      -1.51007612
H        2.91005826      -0.59044341      -2.39973578
H       -0.34845545       2.07425538       0.09493235
H       -0.01985824       1.20781873       1.58871990
H       -1.87930340       0.11603458      -0.61276352
H       -3.42897140      -0.72596969       1.14467238
H       -1.45681912      -0.62156316       1.00937200
15
Frame=2 idx=009210 GeodesicLength=0.11633900595115884 rxn_smarts="[C:1]([C:2]#[C:3][C:4]([C@@:5]1([H:13])[C:6]([H:14])([H:15])[O:7]1)([H:11])[H:12])([H:8])([H:9])[H:10]>>[C:1]([C:2]#[C:3][C:4]([C:5]([O+:7]=[C-:6][H:14])([H:13])[H:15])([H:11])[H:12])([H:8])([H:9])[H:10]"
C        2.74110669      -0.99952058      -1.40677572
C        1.68703320      -0.27384905      -0.70813887
C        0.83312701       0.33864314      -0.13194384
C       -0.23967298       1.07265364       0.53358179
C       -1.57686840       0.36811802       0.40184798
C       -2.78310423      -0.06642404       1.77324477
O       -2.59932352       1.10345722       1.05952010
H        3.68622678      -0.92167173      -0.86763413
H        2.48877848      -2.05712044      -1.49622134
H        2.88773335      -0.59933028      -2.41101471
H       -0.33877472       2.07236543       0.10319948
H       -0.02261641       1.20016168       1.59637650
H       -1.86992787       0.12105282      -0.61832296
H       -3.42915250      -0.72999658       1.14263019
H       -1.46456487      -0.62853923       1.02965075
15
Frame=3 idx=009210 GeodesicLength=0.17450663236285907 rxn_smarts="[C:1]([C:2]#[C:3][C:4]([C@@:5]1([H:13])[C:6]([H:14])([H:15])[O:7]1)([H:11])[H:12])([H:8])([H:9])[H:10]>>[C:1]([C:2]#[C:3][C:4]([C:5]([O+:7]=[C-:6][H:14])([H:13])[H:15])([H:11])[H:12])([H:8])([H:9])[H:10]"
C        2.74045034      -0.99794411      -1.41020374
C        1.68746726      -0.27785201      -0.70412730
C        0.83627131       0.33297940      -0.12211369
C       -0.23770950       1.06913710       0.53941236
C       -1.57593678       0.36810608       0.39991832
C       -2.79121047      -0.05499110       1.76044712
O       -2.60268339       1.10959895       1.04560960
H        3.69276296      -0.90053204      -0.88706796
H        2.50129528      -2.05993657      -1.48251001
H        2.86610406      -0.60867151      -2.42157974
H       -0.32930752       2.07066475       0.11156959
H       -0.02523976       1.19233808       1.60373115
H       -1.86085528       0.12667754      -0.62401528
H       -3.42909108      -0.73416929       1.14089132
H       -1.47231743      -0.63540529       1.05003827
15
Frame=4 idx=009210 GeodesicLength=0.23262254297713558 rxn_smarts="[C:1]([C:2]#[C:3][C:4]([C@@:5]1([H:13])[C:6]([H:14])([H:15])[O:7]1)([H:11])[H:12])([H:8])([H:9])[H:10]>>[C:1]([C:2]#[C:3][C:4]([C:5]([O+:7]=[C-:6][H:14])([H:13])[H:15])([H:11])[H:12])([H:8])([H:9])[H:10]"
C        2.73987798      -0.99635078      -1.41350045
C        1.68775690      -0.28188635      -0.70039433
C        0.83910167       0.32734661      -0.11294503
C       -0.23600171       1.06576804       0.54450915
C       -1.57511092       0.36791409       0.39790922
C       -2.79877821      -0.04364375       1.74799186
O       -2.60589661       1.11551844       1.03176026
H        3.69795809      -0.88225532      -0.90438614
H        2.51268698      -2.06184645      -1.47197292
H        2.84736829      -0.61597375      -2.43037138
H       -0.32042212       2.06884089       0.11880955
H       -0.02789194       1.18523396       1.61019554
H       -1.85211431       0.13177168      -0.62953005
H       -3.42861710      -0.73853681       1.14046365
H       -1.47991698      -0.64190051       1.07146108
15
Frame=5 idx=009210 GeodesicLength=0.29076101936650584 rxn_smarts="[C:1]([C:2]#[C:3][C:4]([C@@:5]1([H:13])[C:6]([H:14])([H:15])[O:7]1)([H:11])[H:12])([H:8])([H:9])[H:10]>>[C:1]([C:2]#[C:3][C:4]([C:5]([O+:7]=[C-:6][H:14])([H:13])[H:15])([H:11])[H:12])([H:8])([H:9])[H:10]"
C        2.73925529      -0.99472819      -1.41676131
C        1.68812356      -0.28590773      -0.69653533
C        0.84189922       0.32168984      -0.10382648
C       -0.23441931       1.06250093       0.54924195
C       -1.57425930       0.36754848       0.39577588
C       -2.80608765      -0.03237164       1.73547655
O       -2.60900334       1.12124352       1.01764099
H        3.70229820      -0.86579198      -0.92071319
H        2.52323691      -2.06311989      -1.46348942
H        2.83007433      -0.62198838      -2.43807436
H       -0.31183590       2.06690515       0.12533656
H       -0.03070822       1.17871664       1.61622313
H       -1.84329514       0.13637801      -0.63502131
H       -3.42782915      -0.74307217       1.14077356
H       -1.48744949      -0.64800259       1.09395277
15
Frame=6 idx=009210 GeodesicLength=0.34891995707964957 rxn_smarts="[C:1]([C:2]#[C:3][C:4]([C@@:5]1([H:13])[C:6]([H:14])([H:15])[O:7]1)([H:11])[H:12])([H:8])([H:9])[H:10]>>[C:1]([C:2]#[C:3][C:4]([C:5]([O+:7]=[C-:6][H:14])([H:13])[H:15])([H:11])[H:12])([H:8])([H:9])[H:10]"
C        2.73842997      -0.99311742      -1.42010934
C        1.68870495      -0.29000368      -0.69221454
C        0.84492556       0.31578646      -0.09410719
C       -0.23247347       1.05885250       0.55492209
C       -1.57327514       0.36761389       0.39330811
C       -2.81377119      -0.02177415       1.72164869
O       -2.61164363       1.12711597       1.00378929
H        3.70721929      -0.84442759      -0.94114275
H        2.53694544      -2.06490995      -1.45003846
H        2.80811976      -0.63235164      -2.44732980
H       -0.30225164       2.06502657       0.13387966
H       -0.03354015       1.17063869       1.62336337
H       -1.83405331       0.14279994      -0.64112885
H       -3.42760380      -0.74708499       1.13928916
H       -1.49573266      -0.65416462       1.11587055
15
Frame=7 idx=009210 GeodesicLength=0.4070820594351966 rxn_smarts="[C:1]([C:2]#[C:3][C:4]([C@@:5]1([H:13])[C:6]([H:14])([H:15])[O:7]1)([H:11])[H:12])([H:8])([H:9])[H:10]>>[C:1]([C:2]#[C:3][C:4]([C:5]([O+:7]=[C-:6][H:14])([H:13])[H:15])([H:11])[H:12])([H:8])([H:9])[H:10]"
C        2.73744550      -0.99158217      -1.42336948
C        1.68935463      -0.29386188      -0.68790579
C        0.84793403       0.31010539      -0.08456455
C       -0.23049930       1.05524915       0.56067967
C       -1.57223428       0.36785425       0.39058464
C       -2.82119787      -0.01181873       1.70733041
O       -2.61399266       1.13282084       0.99023595
H        3.71160997      -0.82240778      -0.96235901
H        2.55125356      -2.06651540      -1.43564371
H        2.78544798      -0.64400983      -2.45639931
H       -0.29260751       2.06330365       0.14292800
H       -0.03638962       1.16223272       1.63058520
H       -1.82474844       0.15001712      -0.64751007
H       -3.42723666      -0.75120319       1.13748301
H       -1.50413933      -0.66018412       1.13792502
15
Frame=8 idx=009210 GeodesicLength=0.4652498831942216 rxn_smarts="[C:1]([C:2]#[C:3][C:4]([C@@:5]1([H:13])[C:6]([H:14])([H:15])[O:7]1)([H:11])[H:12])([H:8])([H:9])[H:10]>>[C:1]([C:2]#[C:3][C:4]([C:5]([O+:7]=[C-:6][H:14])([H:13])[H:15])([H:11])[H:12])([H:8])([H:9])[H:10]"
C        2.73636816      -0.99016011      -1.42645164
C        1.68994879      -0.29736666      -0.68392182
C        0.85075627       0.30485478      -0.07566104
C       -0.22865600       1.05187337       0.56609894
C       -1.57121143       0.36818854       0.38763433
C       -2.82807408      -0.00254763       1.69293204
O       -2.61613651       1.13821943       0.97711458
H        3.71503654      -0.80160034      -0.98282723
H        2.56507117      -2.06762417      -1.42201988
H        2.76392481      -0.65564336      -2.46452175
H       -0.28332515       2.06180010       0.15182485
H       -0.03921038       1.15398243       1.63740188
H       -1.81565220       0.15768995      -0.65402571
H       -3.42643694      -0.75568775       1.13603228
H       -1.51240305      -0.66597858       1.16039018
15
Frame=9 idx=009210 GeodesicLength=0.5234082196303123 rxn_smarts="[C:1]([C:2]#[C:3][C:4]([C@@:5]1([H:13])[C:6]([H:14])([H:15])[O:7]1)([H:11])[H:12])([H:8])([H:9])[H:10]>>[C:1]([C:2]#[C:3][C:4]([C:5]([O+:7]=[C-:6][H:14])([H:13])[H:15])([H:11])[H:12])([H:8])([H:9])[H:10]"
C        2.73523205      -0.98891089      -1.42930339
C        1.69039186      -0.30042489      -0.68050755
C        0.85329501       0.30018076      -0.06768805
C       -0.22695100       1.04875393       0.57118112
C       -1.57025966       0.36874113       0.38442098
C       -2.83431135       0.00580328       1.67849453
O       -2.61805671       1.14329972       0.96477248
H        3.71763139      -0.78165628      -1.00256458
H        2.57855304      -2.06840918      -1.40856133
H        2.74346056      -0.66772418      -2.47190879
H       -0.27441713       2.06064400       0.16080486
H       -0.04189798       1.14565842       1.64382098
H       -1.80695477       0.16625642      -0.66074540
H       -3.42520291      -0.76057695       1.13479939
H       -1.52051241      -0.67163531       1.18298476
15
Frame=10 idx=009210 GeodesicLength=0.5813428153274911 rxn_smarts="[C:1]([C:2]#[C:3][C:4]([C@@:5]1([H:13])[C:6]([H:14])([H:15])[O:7]1)([H:11])[H:12])([H:8])([H:9])[H:10]>>[C:1]([C:2]#[C:3][C:4]([C:5]([O+:7]=[C-:6][H:14])([H:13])[H:15])([H:11])[H:12])([H:8])([H:9])[H:10]"
C        2.73416055      -0.98788626      -1.43180388
C        1.69045945      -0.30288003      -0.67818593
C        0.85528679       0.29636036      -0.06133534
C       -0.22561789       1.04611896       0.57535008
C       -1.56952928       0.36937168       0.38102424
C       -2.83956382       0.01323035       1.66461330
O       -2.61989595       1.14785003       0.95338741
H        3.71918354      -0.76501210      -1.01911978
H        2.58995739      -2.06880918      -1.39748966
H        2.72663951      -0.67820462      -2.47792371
H       -0.26647419       2.05991570       0.16896237
H       -0.04435890       1.13788834       1.64917573
H       -1.79911848       0.17533306      -0.66745062
H       -3.42310517      -0.76625999       1.13474532
H       -1.52802357      -0.67701630       1.20605046
15
Frame=11 idx=009210 GeodesicLength=0.6393545531696004 rxn_smarts="[C:1]([C:2]#[C:3][C:4]([C@@:5]1([H:13])[C:6]([H:14])([H:15])[O:7]1)([H:11])[H:12])([H:8])([H:9])[H:10]>>[C:1]([C:2]#[C:3][C:4]([C:5]([O+:7]=[C-:6][H:14])([H:13])[H:15])([H:11])[H:12])([H:8])([H:9])[H:10]"
C        2.73305086      -0.98707594      -1.43406805
C        1.69036016      -0.30479611      -0.67651928
C        0.85698896       0.29323335      -0.05598653
C       -0.22445443       1.04381028       0.57914484
C       -1.56889881       0.37025799       0.37734477
C       -2.84417079       0.01966220       1.65073539
O       -2.62161715       1.15203624       0.94284758
H        3.72011266      -0.74953574      -1.03469990
H        2.60068215      -2.06899666      -1.38664021
H        2.71109705      -0.68894721      -2.48330411
H       -0.25898166       2.05960692       0.17716478
H       -0.04668666       1.13010655       1.65409143
H       -1.79174583       0.18539232      -0.67436583
H       -3.42045888      -0.77248477       1.13491711
H       -1.53527763      -0.68226944       1.22933801
15
Frame=12 idx=009210 GeodesicLength=0.6974033500798297 rxn_smarts="[C:1]([C:2]#[C:3][C:4]([C@@:5]1([H:13])[C:6]([H:14])([H:15])[O:7]1)([H:11])[H:12])([H:8])([H:9])[H:10]>>[C:1]([C:2]#[C:3][C:4]([C:5]([O+:7]=[C-:6][H:14])([H:13])[H:15])([H:11])[H:12])([H:8])([H:9])[H:10]"
C        2.73184857      -0.98635263      -1.43630933
C        1.69027394      -0.30666644      -0.67484351
C        0.85866036       0.29014962      -0.05070966
C       -0.22320310       1.04141823       0.58320157
C       -1.56824840       0.37148425       0.37334408
C       -2.84870960       0.02540371       1.63624064
O       -2.62309329       1.15621264       0.93280253
H        3.72087307      -0.73229509      -1.05185684
H        2.61274939      -2.06916783      -1.37377940
H        2.69402614      -0.70181720      -2.48903167
H       -0.25117755       2.05939731       0.18624897
H       -0.04902728       1.12161230       1.65929194
H       -1.78432054       0.19676052      -0.68163939
H       -3.41782340      -0.77871041       1.13430408
H       -1.54282832      -0.68742896       1.25273599
15
Frame=13 idx=009210 GeodesicLength=0.7553611974844264 rxn_smarts="[C:1]([C:2]#[C:3][C:4]([C@@:5]1([H:13])[C:6]([H:14])([H:15])[O:7]1)([H:11])[H:12])([H:8])([H:9])[H:10]>>[C:1]([C:2]#[C:3][C:4]([C:5]([O+:7]=[C-:6][H:14])([H:13])[H:15])([H:11])[H:12])([H:8])([H:9])[H:10]"
C        2.73085347      -0.98580372      -1.43821641
C        1.68974137      -0.30805631      -0.67435640
C        0.85970936       0.28777037      -0.04711766
C       -0.22243156       1.03954032       0.58603054
C       -1.56790571       0.37264032       0.36917239
C       -2.85225296       0.03041761       1.62261039
O       -2.62468988       1.15982944       0.92354091
H        3.72079979      -0.71987937      -1.06450124
H        2.62171695      -2.06893608      -1.36497659
H        2.68199522      -0.71130486      -2.49305735
H       -0.24454254       2.05949115       0.19377595
H       -0.05118195       1.11413452       1.66307733
H       -1.77791809       0.20802299      -0.68879245
H       -3.41419490      -0.78578476       1.13549354
H       -1.54969858      -0.69208160       1.27731706
15
Frame=14 idx=009210 GeodesicLength=0.8132944280174785 rxn_smarts="[C:1]([C:2]#[C:3][C:4]([C@@:5]1([H:13])[C:6]([H:14])([H:15])[O:7]1)([H:11])[H:12])([H:8])([H:9])[H:10]>>[C:1]([C:2]#[C:3][C:4]([C:5]([O+:7]=[C-:6][H:14])([H:13])[H:15])([H:11])[H:12])([H:8])([H:9])[H:10]"
C        2.72999171      -0.98538978      -1.43994742
C        1.68891821      -0.30920244      -0.67460121
C        0.86035154       0.28577176      -0.04455360
C       -0.22193995       1.03793943       0.58816596
C       -1.56777551       0.37385703       0.36477229
C       -2.85522317       0.03475322       1.60931180
O       -2.62634208       1.16309419       0.91490500
H        3.72037550      -0.70987977      -1.07460806
H        2.62899379      -2.06863873      -1.35814662
H        2.67274375      -0.71912529      -2.49641100
H       -0.23851727       2.05977735       0.20055281
H       -0.05324483       1.10709328       1.66606184
H       -1.77215543       0.21962001      -0.69599451
H       -3.40993503      -0.79339909       1.13758582
H       -1.55624123      -0.69627118       1.30290692
15
Frame=15 idx=009210 GeodesicLength=0.871230117756207 rxn_smarts="[C:1]([C:2]#[C:3][C:4]([C@@:5]1([H:13])[C:6]([H:14])([H:15])[O:7]1)([H:11])[H:12])([H:8])([H:9])[H:10]>>[C:1]([C:2]#[C:3][C:4]([C:5]([O+:7]=[C-:6][H:14])([H:13])[H:15])([H:11])[H:12])([H:8])([H:9])[H:10]"
C        2.72933978      -0.98507913      -1.44141403
C        1.68773219      -0.30993336      -0.67582225
C        0.86046029       0.28439105      -0.04339767
C       -0.22203757       1.03697750       0.58876755
C       -1.56793254       0.37468668       0.36023664
C       -2.85726009       0.03858144       1.59706474
O       -2.62836717       1.16560282       0.90646409
H        3.71965417      -0.70660906      -1.07812490
H        2.63108472      -2.06842830      -1.35762790
H        2.67004585      -0.72085611      -2.49827815
H       -0.23394870       2.06025840       0.20478046
H       -0.05529424       1.10193562       1.66731086
H       -1.76729465       0.23000974      -0.70296944
H       -3.40435613      -0.80209595       1.14226040
H       -1.56182593      -0.69944133       1.33074961
15
Frame=16 idx=009210 GeodesicLength=0.929173485525311 rxn_smarts="[C:1]([C:2]#[C:3][C:4]([C@@:5]1([H:13])[C:6]([H:14])([H:15])[O:7]1)([H:11])[H:12])([H:8])([H:9])[H:10]>>[C:1]([C:2]#[C:3][C:4]([C:5]([O+:7]=[C-:6][H:14])([H:13])[H:15])([H:11])[H:12])([H:8])([H:9])[H:10]"
C        2.72874283      -0.98482462      -1.44284390
C        1.68644041      -0.31064699      -0.67729140
C        0.86038429       0.28298833      -0.04256845
C       -0.22223266       1.03602837       0.58914725
C       -1.56819887       0.37562366       0.35539812
C       -2.85909094       0.04186050       1.58463063
O       -2.63039536       1.16792339       0.89832906
H        3.71889296      -0.70385805      -1.08100592
H        2.63282746      -2.06826698      -1.35751682
H        2.66802820      -0.72223963      -2.50004102
H       -0.22946439       2.06075492       0.20888988
H       -0.05737893       1.09673521       1.66831066
H       -1.76267761       0.24098968      -0.71017102
H       -3.39839895      -0.81105193       1.14709878
H       -1.56747842      -0.70201584       1.35963415
