16
Frame=0 idx=003015 GeodesicLength=0.0 rxn_smarts="[C:1]([C@@:2]1([H:10])[C:3]([H:11])([H:12])[C:4]([H:13])([H:14])[C@:5]1([O:6][H:16])[H:15])([H:7])([H:8])[H:9]>>[C:1]([H:7])([H:8])([H:9])[H:12].[C:2]1([H:10])=[C:3]([H:11])[C:4]([H:13])([H:14])[C@:5]1([O:6][H:16])[H:15]"
C        1.71873279      -0.79989212      -0.25456392
C        0.21380305       0.05589194       0.81274473
C       -0.01774235       1.44773565       0.48804970
C       -1.17250141       1.14586795      -0.44465779
C       -1.10548265      -0.29004010       0.11130289
O       -1.18946870      -1.32120351      -0.83004984
H        1.31885151      -1.80886280      -0.29788040
H        1.90409635      -0.44221072      -1.27268594
H        2.61463509      -0.73188266       0.36054909
H        0.59067187      -0.37553994       1.73591960
H        0.40243928       2.34566163       0.90903421
H        1.00033752       0.50306698      -0.05880449
H       -2.12417656       1.65236657      -0.26507895
H       -0.96261929       1.18675119      -1.52044267
H       -1.84702454      -0.41345965       0.90857234
H       -1.34455196      -2.15425041      -0.38200860
16
Frame=1 idx=003015 GeodesicLength=0.12532781873138035 rxn_smarts="[C:1]([C@@:2]1([H:10])[C:3]([H:11])([H:12])[C:4]([H:13])([H:14])[C@:5]1([O:6][H:16])[H:15])([H:7])([H:8])[H:9]>>[C:1]([H:7])([H:8])([H:9])[H:12].[C:2]1([H:10])=[C:3]([H:11])[C:4]([H:13])([H:14])[C@:5]1([O:6][H:16])[H:15]"
C        1.72844894      -0.79710497      -0.27130015
C        0.20670338       0.05682154       0.82003443
C       -0.02065281       1.44778248       0.49032715
C       -1.16752044       1.14075174      -0.45169312
C       -1.11551817      -0.28798488       0.12374548
O       -1.20227170      -1.32989392      -0.80591348
H        1.33194433      -1.80544227      -0.35560715
H        1.93612945      -0.42475351      -1.27975209
H        2.62249213      -0.76398432       0.34978742
H        0.57357007      -0.36815096       1.75038407
H        0.36238728       2.34643564       0.94438006
H        1.02663363       0.51862188      -0.06523736
H       -2.11750754       1.65702527      -0.29378397
H       -0.93870756       1.16450933      -1.52382515
H       -1.86418013      -0.39791564       0.91646050
H       -1.36195086      -2.15671741      -0.34800666
16
Frame=2 idx=003015 GeodesicLength=0.24993148282252203 rxn_smarts="[C:1]([C@@:2]1([H:10])[C:3]([H:11])([H:12])[C:4]([H:13])([H:14])[C@:5]1([O:6][H:16])[H:15])([H:7])([H:8])[H:9]>>[C:1]([H:7])([H:8])([H:9])[H:12].[C:2]1([H:10])=[C:3]([H:11])[C:4]([H:13])([H:14])[C@:5]1([O:6][H:16])[H:15]"
C        1.73780379      -0.79415664      -0.28843771
C        0.19914682       0.05765520       0.82828701
C       -0.02323044       1.44771259       0.49264477
C       -1.16217690       1.13521174      -0.45853546
C       -1.12577176      -0.28582652       0.13655840
O       -1.21463701      -1.33858175      -0.78108562
H        1.34421986      -1.79973135      -0.41623953
H        1.96961683      -0.40626298      -1.28570749
H        2.62888906      -0.79822086       0.33825198
H        0.55563458      -0.36017212       1.76605791
H        0.32161004       2.34607353       0.97749456
H        1.05399695       0.53478524      -0.07101793
H       -2.11000468       1.66114208      -0.32267753
H       -0.91470304       1.14145923      -1.52646853
H       -1.88183707      -0.38205363       0.92414204
H       -1.37855703      -2.15903374      -0.31326685
16
Frame=3 idx=003015 GeodesicLength=0.37404780146584954 rxn_smarts="[C:1]([C@@:2]1([H:10])[C:3]([H:11])([H:12])[C:4]([H:13])([H:14])[C@:5]1([O:6][H:16])[H:15])([H:7])([H:8])[H:9]>>[C:1]([H:7])([H:8])([H:9])[H:12].[C:2]1([H:10])=[C:3]([H:11])[C:4]([H:13])([H:14])[C@:5]1([O:6][H:16])[H:15]"
C        1.74672443      -0.79099494      -0.30598124
C        0.19105111       0.05834775       0.83763645
C       -0.02546538       1.44745142       0.49507233
C       -1.15648154       1.12920873      -0.46510000
C       -1.13624960      -0.28361111       0.14971763
O       -1.22640696      -1.34727790      -0.75564118
H        1.35565807      -1.79137327      -0.47956630
H        2.00451472      -0.38695002      -1.29043920
H        2.63358614      -0.83453733       0.32573948
H        0.53673179      -0.35162461       1.78307464
H        0.28052901       2.34471274       1.00806900
H        1.08244594       0.55161047      -0.07624866
H       -2.10166498       1.66465128      -0.35163541
H       -0.89064493       1.11763278      -1.52827777
H       -1.90005449      -0.36601122       0.93150411
H       -1.39427333      -2.16123476      -0.27792386
16
Frame=4 idx=003015 GeodesicLength=0.4978653005566746 rxn_smarts="[C:1]([C@@:2]1([H:10])[C:3]([H:11])([H:12])[C:4]([H:13])([H:14])[C@:5]1([O:6][H:16])[H:15])([H:7])([H:8])[H:9]>>[C:1]([H:7])([H:8])([H:9])[H:12].[C:2]1([H:10])=[C:3]([H:11])[C:4]([H:13])([H:14])[C@:5]1([O:6][H:16])[H:15]"
C        1.75516014      -0.78755590      -0.32393851
C        0.18233668       0.05884915       0.84819756
C       -0.02733518       1.44692684       0.49766214
C       -1.15045025       1.12270306      -0.47130482
C       -1.14695379      -0.28139660       0.16319021
O       -1.23743057      -1.35600722      -0.72965820
H        1.36624253      -1.78001874      -0.54530009
H        2.04079929      -0.36705640      -1.29383510
H        2.63634257      -0.87285438       0.31201018
H        0.51670137      -0.34251298       1.80155786
H        0.23958965       2.34251908       1.03587383
H        1.11200660       0.56916723      -0.08106182
H       -2.09249324       1.66748360      -0.38052695
H       -0.86659118       1.09306007      -1.52917771
H       -1.91887757      -0.34994118       0.93842863
H       -1.40904703      -2.16336563      -0.24211722
16
Frame=5 idx=003015 GeodesicLength=0.6220783171282684 rxn_smarts="[C:1]([C@@:2]1([H:10])[C:3]([H:11])([H:12])[C:4]([H:13])([H:14])[C@:5]1([O:6][H:16])[H:15])([H:7])([H:8])[H:9]>>[C:1]([H:7])([H:8])([H:9])[H:12].[C:2]1([H:10])=[C:3]([H:11])[C:4]([H:13])([H:14])[C@:5]1([O:6][H:16])[H:15]"
C        1.76314146      -0.78374350      -0.34233737
C        0.17291975       0.05913313       0.86009134
C       -0.02870505       1.44594996       0.50039298
C       -1.14407650       1.11569263      -0.47705027
C       -1.15788502      -0.27922661       0.17692823
O       -1.24761155      -1.36477295      -0.70323239
H        1.37593460      -1.76546317      -0.61293592
H        2.07851024      -0.34700166      -1.29583849
H        2.63703048      -0.91279795       0.29694998
H        0.49532903      -0.33269988       1.82166599
H        0.19902532       2.33928252       1.06090407
H        1.14269455       0.58753786      -0.08612742
H       -2.08243420       1.66965815      -0.40911278
H       -0.84264466       1.06786934      -1.52907260
H       -1.93833895      -0.33396448       0.94479336
H       -1.42288951      -2.16545339      -0.20601872
16
Frame=6 idx=003015 GeodesicLength=0.7464432029387369 rxn_smarts="[C:1]([C@@:2]1([H:10])[C:3]([H:11])([H:12])[C:4]([H:13])([H:14])[C@:5]1([O:6][H:16])[H:15])([H:7])([H:8])[H:9]>>[C:1]([H:7])([H:8])([H:9])[H:12].[C:2]1([H:10])=[C:3]([H:11])[C:4]([H:13])([H:14])[C@:5]1([O:6][H:16])[H:15]"
C        1.77062296      -0.77946692      -0.36114167
C        0.16269831       0.05912390       0.87341525
C       -0.02955591       1.44447343       0.50333051
C       -1.13738574       1.10814590      -0.48226167
C       -1.16904574      -0.27717268       0.19087530
O       -1.25676903      -1.37361828      -0.67647503
H        1.38489409      -1.74741313      -0.68196312
H        2.11740844      -0.32715290      -1.29646628
H        2.63545751      -0.95416474       0.28023402
H        0.47243336      -0.32229610       1.84346918
H        0.15940539       2.33534549       1.08300448
H        1.17451727       0.60680204      -0.09145708
H       -2.07151443       1.67112159      -0.43726685
H       -0.81885826       1.04208775      -1.52793292
H       -1.95849164      -0.31826212       0.95044445
H       -1.43581658      -2.16755322      -0.16980858
16
Frame=7 idx=003015 GeodesicLength=0.8709942568486677 rxn_smarts="[C:1]([C@@:2]1([H:10])[C:3]([H:11])([H:12])[C:4]([H:13])([H:14])[C@:5]1([O:6][H:16])[H:15])([H:7])([H:8])[H:9]>>[C:1]([H:7])([H:8])([H:9])[H:12].[C:2]1([H:10])=[C:3]([H:11])[C:4]([H:13])([H:14])[C@:5]1([O:6][H:16])[H:15]"
C        1.77764331      -0.77462271      -0.38032436
C        0.15158579       0.05876684       0.88825824
C       -0.02981045       1.44237946       0.50649650
C       -1.13039009       1.10006031      -0.48685803
C       -1.18043932      -0.27529275       0.20496911
O       -1.26479466      -1.38256690      -0.64949940
H        1.39324471      -1.72573636      -0.75175489
H        2.15733562      -0.30793165      -1.29580860
H        2.63154889      -0.99657022       0.26166057
H        0.44780625      -0.31130443       1.86705571
H        0.12111353       2.33078222       1.10216658
H        1.20746083       0.62702378      -0.09740863
H       -2.05972398       1.67188815      -0.46480710
H       -0.79531272       1.01580819      -1.52571388
H       -1.97936612      -0.30298109       0.95524344
H       -1.44790160      -2.16970284      -0.13367525
16
Frame=8 idx=003015 GeodesicLength=0.9958049094329424 rxn_smarts="[C:1]([C@@:2]1([H:10])[C:3]([H:11])([H:12])[C:4]([H:13])([H:14])[C@:5]1([O:6][H:16])[H:15])([H:7])([H:8])[H:9]>>[C:1]([H:7])([H:8])([H:9])[H:12].[C:2]1([H:10])=[C:3]([H:11])[C:4]([H:13])([H:14])[C@:5]1([O:6][H:16])[H:15]"
C        1.78427238      -0.76909678      -0.39982783
C        0.13948245       0.05798102       0.90468000
C       -0.02936688       1.43953476       0.50992572
C       -1.12310796       1.09143739      -0.49074662
C       -1.19206112      -0.27365960       0.21913592
O       -1.27160395      -1.39164081      -0.62243068
H        1.40114347      -1.70046191      -0.82156869
H        2.19808184      -0.28979393      -1.29401990
H        2.62531280      -1.03948781       0.24106302
H        0.42118074      -0.29973160       1.89247677
H        0.08458301       2.32568309       1.11845997
H        1.24152086       0.64834799      -0.10444754
H       -2.04706344       1.67198644      -0.49151373
H       -0.77209878       0.98913051      -1.52238482
H       -2.00097953      -0.28828943       0.95903869
H       -1.45929589      -2.17193933      -0.09784029
16
Frame=9 idx=003015 GeodesicLength=1.1215296848806457 rxn_smarts="[C:1]([C@@:2]1([H:10])[C:3]([H:11])([H:12])[C:4]([H:13])([H:14])[C@:5]1([O:6][H:16])[H:15])([H:7])([H:8])[H:9]>>[C:1]([H:7])([H:8])([H:9])[H:12].[C:2]1([H:10])=[C:3]([H:11])[C:4]([H:13])([H:14])[C@:5]1([O:6][H:16])[H:15]"
C        1.79071639      -0.76265711      -0.41965039
C        0.12621149       0.05667953       0.92285423
C       -0.02786759       1.43552393       0.51358267
C       -1.11549395       1.08235165      -0.49374401
C       -1.20393489      -0.27232789       0.23330261
O       -1.27720735      -1.40080766      -0.59542903
H        1.40873601      -1.67193661      -0.89039041
H        2.23955805      -0.27325712      -1.29126864
H        2.61708178      -1.08181855       0.21864611
H        0.39206453      -0.28735919       1.91992684
H        0.05019111       2.31936456       1.13203723
H        1.27640506       0.67088142      -0.11412708
H       -2.03338992       1.67163180      -0.51691480
H       -0.74940871       0.96229328      -1.51783730
H       -2.02338812      -0.27430494       0.96166077
H       -1.47027387      -2.17425708      -0.06264880
16
Frame=10 idx=003015 GeodesicLength=1.2473567070207898 rxn_smarts="[C:1]([C@@:2]1([H:10])[C:3]([H:11])([H:12])[C:4]([H:13])([H:14])[C@:5]1([O:6][H:16])[H:15])([H:7])([H:8])[H:9]>>[C:1]([H:7])([H:8])([H:9])[H:12].[C:2]1([H:10])=[C:3]([H:11])[C:4]([H:13])([H:14])[C@:5]1([O:6][H:16])[H:15]"
C        1.79702874      -0.75525941      -0.43960631
C        0.11170675       0.05477281       0.94274539
C       -0.02542448       1.43038536       0.51758249
C       -1.10760580       1.07275920      -0.49584111
C       -1.21607979      -0.27136768       0.24741501
O       -1.28159552      -1.41014622      -0.56854730
H        1.41634940      -1.64013447      -0.95778229
H        2.28140519      -0.25858162      -1.28786384
H        2.60683220      -1.12347467       0.19408837
H        0.36035236      -0.27439883       1.94929036
H        0.01839452       2.31249237       1.14295737
H        1.31224821       0.69480700      -0.12610128
H       -2.01879236       1.67075764      -0.54102878
H       -0.72723879       0.93525320      -1.51214070
H       -2.04660052      -0.26114222       0.96300092
H       -1.48098010      -2.17672248      -0.02816831
16
Frame=11 idx=003015 GeodesicLength=1.373159592683534 rxn_smarts="[C:1]([C@@:2]1([H:10])[C:3]([H:11])([H:12])[C:4]([H:13])([H:14])[C@:5]1([O:6][H:16])[H:15])([H:7])([H:8])[H:9]>>[C:1]([H:7])([H:8])([H:9])[H:12].[C:2]1([H:10])=[C:3]([H:11])[C:4]([H:13])([H:14])[C@:5]1([O:6][H:16])[H:15]"
C        1.80338035      -0.74679367      -0.45961150
C        0.09586692       0.05217000       0.96439866
C       -0.02191272       1.42392503       0.52198229
C       -1.09943461       1.06268512      -0.49695602
C       -1.22852352      -0.27083414       0.26141953
O       -1.28485704      -1.41966847      -0.54186360
H        1.42419182      -1.60542789      -1.02313088
H        2.32339171      -0.24599807      -1.28413678
H        2.59485103      -1.16379151       0.16755562
H        0.32576557      -0.26086578       1.98056055
H       -0.01045347       2.30500463       1.15140553
H        1.34892883       0.72027483      -0.14106849
H       -2.00322662       1.66947985      -0.56366308
H       -0.70564284       0.90808339      -1.50528313
H       -2.07064520      -0.24888629       0.96295751
H       -1.49168022      -2.17935702       0.00543379
16
Frame=12 idx=003015 GeodesicLength=1.4988568870446637 rxn_smarts="[C:1]([C@@:2]1([H:10])[C:3]([H:11])([H:12])[C:4]([H:13])([H:14])[C@:5]1([O:6][H:16])[H:15])([H:7])([H:8])[H:9]>>[C:1]([H:7])([H:8])([H:9])[H:12].[C:2]1([H:10])=[C:3]([H:11])[C:4]([H:13])([H:14])[C@:5]1([O:6][H:16])[H:15]"
C        1.80999020      -0.73712238      -0.47954002
C        0.07856474       0.04875075       0.98786053
C       -0.01718405       1.41588434       0.52685040
C       -1.09095007       1.05214060      -0.49699742
C       -1.24131240      -0.27078476       0.27526861
O       -1.28714082      -1.42939582      -0.51543720
H        1.43247990      -1.56825043      -1.08580660
H        2.36528528      -0.23564315      -1.28046892
H        2.58150868      -1.20210139       0.13924561
H        0.28797210      -0.24676909       2.01370870
H       -0.03598537       2.29677658       1.15760035
H        1.38629879       0.74751940      -0.15983463
H       -1.98659753       1.66792929      -0.58461729
H       -0.68467147       0.88082551      -1.49726334
H       -2.09555452      -0.23757941       0.96142921
H       -1.50270348      -2.18218005       0.03800204
16
Frame=13 idx=003015 GeodesicLength=1.6243251676168031 rxn_smarts="[C:1]([C@@:2]1([H:10])[C:3]([H:11])([H:12])[C:4]([H:13])([H:14])[C@:5]1([O:6][H:16])[H:15])([H:7])([H:8])[H:9]>>[C:1]([H:7])([H:8])([H:9])[H:12].[C:2]1([H:10])=[C:3]([H:11])[C:4]([H:13])([H:14])[C@:5]1([O:6][H:16])[H:15]"
C        1.81706893      -0.72612700      -0.49928988
C        0.05965783       0.04440079       1.01318063
C       -0.01107448       1.40599654       0.53226419
C       -1.08212159       1.04115021      -0.49587924
C       -1.25451551      -0.27126475       0.28892476
O       -1.28865002      -1.43933507      -0.48930800
H        1.44143922      -1.52912537      -1.14531019
H        2.40689706      -0.22754830      -1.27718422
H        2.56725497      -1.23771257       0.10947662
H        0.24665011      -0.23213767       2.04868623
H       -0.05781689       2.28765358       1.16177456
H        1.42412899       0.77672571      -0.18330918
H       -1.96880247       1.66626581      -0.60369473
H       -0.66437059       0.85350839      -1.48807274
H       -2.12137655      -0.22724328       0.95833166
H       -1.51436901      -2.18520703       0.06940953
16
Frame=14 idx=003015 GeodesicLength=1.7494812906853525 rxn_smarts="[C:1]([C@@:2]1([H:10])[C:3]([H:11])([H:12])[C:4]([H:13])([H:14])[C@:5]1([O:6][H:16])[H:15])([H:7])([H:8])[H:9]>>[C:1]([H:7])([H:8])([H:9])[H:12].[C:2]1([H:10])=[C:3]([H:11])[C:4]([H:13])([H:14])[C@:5]1([O:6][H:16])[H:15]"
C        1.82484031      -0.71368374      -0.51873241
C        0.03896729       0.03896068       1.04040907
C       -0.00340219       1.39394572       0.53832132
C       -1.07289306       1.02970794      -0.49351693
C       -1.26821230      -0.27231933       0.30236522
O       -1.28964206      -1.44951652      -0.46347705
H        1.45128527      -1.48859454      -1.20118849
H        2.44803284      -0.22158980      -1.27468129
H        2.55262063      -1.27001202       0.07859005
H        0.20143152      -0.21696804       2.08539873
H       -0.07551930       2.27745645       1.16418185
H        1.46217217       0.80818660      -0.21236237
H       -1.94970243       1.66464452      -0.62072530
H       -0.64475571       0.82608995      -1.47771436
H       -2.14815403      -0.21784972       0.95357500
H       -1.52706895      -2.18845815       0.09955696
16
Frame=15 idx=003015 GeodesicLength=1.8742802628972186 rxn_smarts="[C:1]([C@@:2]1([H:10])[C:3]([H:11])([H:12])[C:4]([H:13])([H:14])[C@:5]1([O:6][H:16])[H:15])([H:7])([H:8])[H:9]>>[C:1]([H:7])([H:8])([H:9])[H:12].[C:2]1([H:10])=[C:3]([H:11])[C:4]([H:13])([H:14])[C@:5]1([O:6][H:16])[H:15]"
C        1.83354016      -0.69966238      -0.53776193
C        0.01629341       0.03228885       1.06961002
C        0.00603578       1.37936553       0.54513779
C       -1.06319532       1.01782024      -0.48981753
C       -1.28250733      -0.27398209       0.31557019
O       -1.29041743      -1.45995954      -0.43794409
H        1.46226309      -1.44727825      -1.25304429
H        2.48850380      -0.21754518      -1.27330129
H        2.53821166      -1.29835045       0.04701026
H        0.15195477      -0.20125235       2.12373518
H       -0.08863041       2.26594605       1.16508709
H        1.50005411       0.84211929      -0.24800830
H       -1.92911542       1.66326225      -0.63552118
H       -0.62584358       0.79852141      -1.46617358
H       -2.17595088      -0.20934394       0.94706963
H       -1.54119642      -2.19194944       0.12835202
16
Frame=16 idx=003015 GeodesicLength=1.9987988964012806 rxn_smarts="[C:1]([C@@:2]1([H:10])[C:3]([H:11])([H:12])[C:4]([H:13])([H:14])[C@:5]1([O:6][H:16])[H:15])([H:7])([H:8])[H:9]>>[C:1]([H:7])([H:8])([H:9])[H:12].[C:2]1([H:10])=[C:3]([H:11])[C:4]([H:13])([H:14])[C@:5]1([O:6][H:16])[H:15]"
C        1.84341293      -0.68394300      -0.55627025
C       -0.00860592       0.02423402       1.10085268
C        0.01745512       1.36183555       0.55286399
C       -1.05293882       1.00547796      -0.48468644
C       -1.29752175      -0.27627192       0.32853129
O       -1.29132661      -1.47069993      -0.41267794
H        1.47460586      -1.40582133      -1.30056593
H        2.52811042      -0.21504908      -1.27339712
H        2.52475177      -1.32208618       0.01518567
H        0.09783327      -0.18493423       2.16354293
H       -0.09664501       2.25284554       1.16479266
H        1.53734619       0.87870657      -0.29125706
H       -1.90682420       1.66231903      -0.64792329
H       -0.60761991       0.77069808      -1.45343501
H       -2.20483402      -0.20161771       0.93871804
H       -1.55719934      -2.19569338       0.15572577
