14
Frame=0 idx=006937 GeodesicLength=0.0 rxn_smarts="[O:1]=[C:2]([N:3]([C:4]([C:5]([C:6]#[C:7][H:14])([H:12])[H:13])([H:10])[H:11])[H:9])[H:8]>>[O+:1](=[C:2]([N:3]([C-:4]([H:10])[H:11])[H:9])[H:8])[C:5]([C:6]#[C:7][H:14])([H:12])[H:13]"
O       -1.14413550      -0.33803243      -1.05760721
C       -1.18689881       0.63983423      -0.27602204
N       -0.95063350       0.41152025       1.04635481
C       -0.69041089      -0.76922593       1.57258991
C        0.74790835      -0.96145826      -1.34543744
C        1.44170524       0.14815432      -0.90017636
C        1.70034720       1.23231761      -0.41918464
H       -1.29588315       1.68097220      -0.56872351
H       -0.89597127       1.22569985       1.64075459
H       -0.80860785      -1.63876081       0.95082581
H       -0.44562365      -0.82453912       2.62011735
H        0.83825290      -1.88628545      -0.79122127
H        0.55941960      -1.06105901      -2.40441705
H        2.13053136       2.14086255      -0.06785294
14
Frame=1 idx=006937 GeodesicLength=0.10411912780002329 rxn_smarts="[O:1]=[C:2]([N:3]([C:4]([C:5]([C:6]#[C:7][H:14])([H:12])[H:13])([H:10])[H:11])[H:9])[H:8]>>[O+:1](=[C:2]([N:3]([C-:4]([H:10])[H:11])[H:9])[H:8])[C:5]([C:6]#[C:7][H:14])([H:12])[H:13]"
O       -1.16701374      -0.31860854      -1.07825137
C       -1.22125667       0.64798564      -0.28042432
N       -0.96720252       0.40542946       1.03474696
C       -0.65271219      -0.77903071       1.53363949
C        0.73000769      -0.95856794      -1.30020274
C        1.44199000       0.15118732      -0.86913140
C        1.72235585       1.23875644      -0.41090858
H       -1.32812817       1.69276839      -0.56197920
H       -0.89062506       1.21432262       1.63388017
H       -0.85424510      -1.64686568       0.93024425
H       -0.39284038      -0.84122679       2.57746419
H        0.85088183      -1.88494773      -0.75358505
H        0.56245619      -1.07474753      -2.36159819
H        2.16633226       2.15354506      -0.09389422
14
Frame=2 idx=006937 GeodesicLength=0.206651703927858 rxn_smarts="[O:1]=[C:2]([N:3]([C:4]([C:5]([C:6]#[C:7][H:14])([H:12])[H:13])([H:10])[H:11])[H:9])[H:8]>>[O+:1](=[C:2]([N:3]([C-:4]([H:10])[H:11])[H:9])[H:8])[C:5]([C:6]#[C:7][H:14])([H:12])[H:13]"
O       -1.18793101      -0.29994453      -1.09714755
C       -1.25432610       0.65478253      -0.28327641
N       -0.98339696       0.39855533       1.02440773
C       -0.62403824      -0.78930170       1.49603742
C        0.71267955      -0.95404620      -1.25613965
C        1.44294332       0.15753752      -0.84529514
C        1.74631982       1.24830863      -0.41283239
H       -1.36334551       1.70258404      -0.55321210
H       -0.88906535       1.20194553       1.62812562
H       -0.89222368      -1.65358329       0.91295558
H       -0.34719002      -0.85760816       2.53532383
H        0.86696599      -1.87954155      -0.71566385
H        0.56256104      -1.08992791      -2.31833617
H        2.21004715       2.16023977      -0.11494692
14
Frame=3 idx=006937 GeodesicLength=0.3084425987918119 rxn_smarts="[O:1]=[C:2]([N:3]([C:4]([C:5]([C:6]#[C:7][H:14])([H:12])[H:13])([H:10])[H:11])[H:9])[H:8]>>[O+:1](=[C:2]([N:3]([C-:4]([H:10])[H:11])[H:9])[H:8])[C:5]([C:6]#[C:7][H:14])([H:12])[H:13]"
O       -1.20624110      -0.28071553      -1.11474550
C       -1.28536011       0.66104854      -0.28424511
N       -0.99991066       0.39041950       1.01595282
C       -0.60374727      -0.80134405       1.46028449
C        0.69659094      -0.94798588      -1.21219911
C        1.44584556       0.16598287      -0.82582291
C        1.77405562       1.25914289      -0.42121885
H       -1.39817888       1.71182844      -0.54157176
H       -0.89002047       1.18779515       1.62475239
H       -0.92637950      -1.66067608       0.89679884
H       -0.31060322      -0.87617801       2.49489662
H        0.88528002      -1.87089987      -0.67720624
H        0.56129112      -1.10550856      -2.27400533
H        2.25737797       2.16709059      -0.14167035
14
Frame=4 idx=006937 GeodesicLength=0.41012863077696304 rxn_smarts="[O:1]=[C:2]([N:3]([C:4]([C:5]([C:6]#[C:7][H:14])([H:12])[H:13])([H:10])[H:11])[H:9])[H:8]>>[O+:1](=[C:2]([N:3]([C-:4]([H:10])[H:11])[H:9])[H:8])[C:5]([C:6]#[C:7][H:14])([H:12])[H:13]"
O       -1.22198778      -0.26081702      -1.13122844
C       -1.31455801       0.66687314      -0.28361536
N       -1.01699744       0.38114498       1.00918048
C       -0.59007092      -0.81494831       1.42648424
C        0.68187550      -0.94034202      -1.16827458
C        1.45086510       0.17586541      -0.80943890
C        1.80592971       1.26993072      -0.43393585
H       -1.43220670       1.72058432      -0.52746492
H       -0.89325536       1.17205128       1.62354874
H       -0.95773943      -1.66849794       0.88096331
H       -0.28228998      -0.89680582       2.45660074
H        0.90485100      -1.85943658      -0.63861150
H        0.55915666      -1.12055543      -2.22868198
H        2.30642765       2.17495327      -0.17552600
14
Frame=5 idx=006937 GeodesicLength=0.5119714805796958 rxn_smarts="[O:1]=[C:2]([N:3]([C:4]([C:5]([C:6]#[C:7][H:14])([H:12])[H:13])([H:10])[H:11])[H:9])[H:8]>>[O+:1](=[C:2]([N:3]([C-:4]([H:10])[H:11])[H:9])[H:8])[C:5]([C:6]#[C:7][H:14])([H:12])[H:13]"
O       -1.23507384      -0.24002715      -1.14671346
C       -1.34195199       0.67239810      -0.28158933
N       -1.03471723       0.37085001       1.00389793
C       -0.58171118      -0.82988099       1.39453643
C        0.66864475      -0.93111217      -1.12429455
C        1.45819079       0.18645267      -0.79483000
C        1.84243933       1.27927196      -0.44881497
H       -1.46502276       1.72895227      -0.51112975
H       -0.89855038       1.15481209       1.62434211
H       -0.98700600      -1.67708683       0.86485033
H       -0.26143540      -0.91935881       2.42050904
H        0.92469538      -1.84566144      -0.60022806
H        0.55668778      -1.13421398      -2.18248642
H        2.35481075       2.18460427      -0.21804930
14
Frame=6 idx=006937 GeodesicLength=0.6141925539306718 rxn_smarts="[O:1]=[C:2]([N:3]([C:4]([C:5]([C:6]#[C:7][H:14])([H:12])[H:13])([H:10])[H:11])[H:9])[H:8]>>[O+:1](=[C:2]([N:3]([C-:4]([H:10])[H:11])[H:9])[H:8])[C:5]([C:6]#[C:7][H:14])([H:12])[H:13]"
O       -1.24621470      -0.21914413      -1.16120511
C       -1.36862316       0.67706530      -0.27860914
N       -1.05335966       0.35972813       0.99966618
C       -0.57703213      -0.84537845       1.36436592
C        0.65665196      -0.92002134      -1.08059216
C        1.46704369       0.19810991      -0.78203842
C        1.88249574       1.28744675      -0.46603888
H       -1.49815455       1.73617083      -0.49346661
H       -0.90632462       1.13661965       1.62633016
H       -1.01364728      -1.68635386       0.84866406
H       -0.24610787      -0.94248246       2.38655966
H        0.94452146      -1.82939587      -0.56236891
H        0.55373730      -1.14605887      -2.13581573
H        2.40501383       2.19369441      -0.26545102
14
Frame=7 idx=006937 GeodesicLength=0.7167953606953394 rxn_smarts="[O:1]=[C:2]([N:3]([C:4]([C:5]([C:6]#[C:7][H:14])([H:12])[H:13])([H:10])[H:11])[H:9])[H:8]>>[O+:1](=[C:2]([N:3]([C-:4]([H:10])[H:11])[H:9])[H:8])[C:5]([C:6]#[C:7][H:14])([H:12])[H:13]"
O       -1.25550907      -0.19808098      -1.17477775
C       -1.39477370       0.68090018      -0.27482116
N       -1.07295633       0.34782943       0.99633327
C       -0.57528249      -0.86127679       1.33581025
C        0.64588625      -0.90701185      -1.03713766
C        1.47739593       0.21056318      -0.77021074
C        1.92632062       1.29372564      -0.48428006
H       -1.53162572       1.74225031      -0.47467447
H       -0.91655499       1.11754845       1.62938793
H       -1.03794353      -1.69630284       0.83214029
H       -0.23555606      -0.96602931       2.35464791
H        0.96377848      -1.81096621      -0.52515328
H        0.55063603      -1.15558097      -2.08880590
H        2.45618458       2.20243176      -0.31845863
14
Frame=8 idx=006937 GeodesicLength=0.8198061939969223 rxn_smarts="[O:1]=[C:2]([N:3]([C:4]([C:5]([C:6]#[C:7][H:14])([H:12])[H:13])([H:10])[H:11])[H:9])[H:8]>>[O+:1](=[C:2]([N:3]([C-:4]([H:10])[H:11])[H:9])[H:8])[C:5]([C:6]#[C:7][H:14])([H:12])[H:13]"
O       -1.26259345      -0.17610030      -1.18756688
C       -1.42002756       0.68438223      -0.27021068
N       -1.09345709       0.33510327       0.99391396
C       -0.57633622      -0.87788492       1.30865179
C        0.63650329      -0.89217955      -0.99360552
C        1.48978582       0.22320536      -0.75797404
C        1.97511902       1.29668192      -0.50086631
H       -1.56437324       1.74781033      -0.45450973
H       -0.92908008       1.09732400       1.63387342
H       -1.06073088      -1.70702773       0.81458563
H       -0.22992946      -0.99078809       2.32467845
H        0.98189508      -1.79106625      -0.48843982
H        0.54795090      -1.16234047      -2.04136944
H        2.50527387       2.21288021      -0.38116082
14
Frame=9 idx=006937 GeodesicLength=0.9230746086010422 rxn_smarts="[O:1]=[C:2]([N:3]([C:4]([C:5]([C:6]#[C:7][H:14])([H:12])[H:13])([H:10])[H:11])[H:9])[H:8]>>[O+:1](=[C:2]([N:3]([C-:4]([H:10])[H:11])[H:9])[H:8])[C:5]([C:6]#[C:7][H:14])([H:12])[H:13]"
O       -1.27005530      -0.15620238      -1.19923852
C       -1.44727830       0.68546665      -0.26557600
N       -1.11502327       0.32211788       0.99158037
C       -0.57736212      -0.89297411       1.28303062
C        0.62739499      -0.87486224      -0.95142186
C        1.50135584       0.23822894      -0.74887829
C        2.02434667       1.30005901      -0.52429456
H       -1.60159468       1.75017457      -0.43517867
H       -0.94426463       1.07776048       1.63747370
H       -1.07898870      -1.71800402       0.79821283
H       -0.22461722      -1.01236431       2.29640333
H        0.99976937      -1.76788567      -0.45294020
H        0.54390173      -1.16704185      -1.99452603
H        2.56241561       2.21552706      -0.43464670
14
Frame=10 idx=006937 GeodesicLength=1.0267412395322346 rxn_smarts="[O:1]=[C:2]([N:3]([C:4]([C:5]([C:6]#[C:7][H:14])([H:12])[H:13])([H:10])[H:11])[H:9])[H:8]>>[O+:1](=[C:2]([N:3]([C-:4]([H:10])[H:11])[H:9])[H:8])[C:5]([C:6]#[C:7][H:14])([H:12])[H:13]"
O       -1.27740614      -0.13731902      -1.21001530
C       -1.47604856       0.68474011      -0.26073594
N       -1.13783924       0.30859200       0.98955451
C       -0.57881276      -0.90726942       1.25876814
C        0.61892082      -0.85486686      -0.90999422
C        1.51283137       0.25541112      -0.74110675
C        2.07559519       1.30229946      -0.55056261
H       -1.64213993       1.75011875      -0.41601168
H       -0.96243405       1.05824130       1.64102588
H       -1.09372277      -1.72954771       0.78209769
H       -0.22056583      -1.03219932       2.26982229
H        1.01712927      -1.74183623      -0.41839513
H        0.53948595      -1.16883557      -1.94794857
H        2.62500670       2.21247138      -0.48649831
14
Frame=11 idx=006937 GeodesicLength=1.1305511921572262 rxn_smarts="[O:1]=[C:2]([N:3]([C:4]([C:5]([C:6]#[C:7][H:14])([H:12])[H:13])([H:10])[H:11])[H:9])[H:8]>>[O+:1](=[C:2]([N:3]([C-:4]([H:10])[H:11])[H:9])[H:8])[C:5]([C:6]#[C:7][H:14])([H:12])[H:13]"
O       -1.28365524      -0.11812087      -1.22004775
C       -1.50534801       0.68295044      -0.25549448
N       -1.16177594       0.29432934       0.98799630
C       -0.58131774      -0.92139759       1.23557242
C        0.61140951      -0.83240587      -0.86866416
C        1.52521356       0.27375965      -0.73253690
C        2.13076727       1.30116123      -0.57649906
H       -1.68435429       1.74851932      -0.39625381
H       -0.98327365       1.03806833       1.64524823
H       -1.10619664      -1.74166477       0.76518372
H       -0.21903714      -1.05179515       2.24477606
H        1.03334026      -1.71383844      -0.38448161
H        0.53564819      -1.16719087      -1.90127564
H        2.68857986       2.20762525      -0.54352332
14
Frame=12 idx=006937 GeodesicLength=1.2347708292182973 rxn_smarts="[O:1]=[C:2]([N:3]([C:4]([C:5]([C:6]#[C:7][H:14])([H:12])[H:13])([H:10])[H:11])[H:9])[H:8]>>[O+:1](=[C:2]([N:3]([C-:4]([H:10])[H:11])[H:9])[H:8])[C:5]([C:6]#[C:7][H:14])([H:12])[H:13]"
O       -1.28960865      -0.09913797      -1.22925398
C       -1.53646904       0.67935369      -0.24990397
N       -1.18750917       0.27900834       0.98684329
C       -0.58435119      -0.93512067       1.21341558
C        0.60462993      -0.80665423      -0.82740281
C        1.53752822       0.29482137      -0.72318820
C        2.18838077       1.29791998      -0.60273657
H       -1.73048261       1.74441476      -0.37605561
H       -1.00791946       1.01713664       1.64999174
H       -1.11561141      -1.75458010       0.74762001
H       -0.21919259      -1.07056193       2.22119899
H        1.04894921      -1.68282975      -0.35113605
H        0.53240081      -1.16143893      -1.85450264
H        2.75925518       2.19766879      -0.60488977
14
Frame=13 idx=006937 GeodesicLength=1.3383199686671596 rxn_smarts="[O:1]=[C:2]([N:3]([C:4]([C:5]([C:6]#[C:7][H:14])([H:12])[H:13])([H:10])[H:11])[H:9])[H:8]>>[O+:1](=[C:2]([N:3]([C-:4]([H:10])[H:11])[H:9])[H:8])[C:5]([C:6]#[C:7][H:14])([H:12])[H:13]"
O       -1.29491747      -0.07995798      -1.23778514
C       -1.56754241       0.67498367      -0.24444054
N       -1.21278675       0.26399578       0.98561939
C       -0.58678538      -0.94750874       1.19209451
C        0.59827972      -0.77922066      -0.78702789
C        1.55088365       0.31597303      -0.71489347
C        2.25098774       1.28811175      -0.63132182
H       -1.77734360       1.73889827      -0.35638379
H       -1.03285770       0.99694897       1.65426889
H       -1.12227463      -1.76695303       0.73001388
H       -0.21941201      -1.08745922       2.19872345
H        1.06293952      -1.65079525      -0.31903669
H        0.52855857      -1.15355547      -1.80831202
H        2.82227077       2.18653888      -0.66151875
14
Frame=14 idx=006937 GeodesicLength=1.4419341006910826 rxn_smarts="[O:1]=[C:2]([N:3]([C:4]([C:5]([C:6]#[C:7][H:14])([H:12])[H:13])([H:10])[H:11])[H:9])[H:8]>>[O+:1](=[C:2]([N:3]([C-:4]([H:10])[H:11])[H:9])[H:8])[C:5]([C:6]#[C:7][H:14])([H:12])[H:13]"
O       -1.30118412      -0.06172406      -1.24542713
C       -1.60141884       0.66808749      -0.23888269
N       -1.23952704       0.24818313       0.98453792
C       -0.58832212      -0.95856256       1.17174203
C        0.59206619      -0.74807886      -0.74727994
C        1.56317136       0.34080638      -0.70735922
C        2.31448240       1.27560307      -0.66328263
H       -1.82973732       1.72983677      -0.33699839
H       -1.06119334       0.97673515       1.65829418
H       -1.12468174      -1.77969672       0.71256019
H       -0.21902237      -1.10190269       2.17745814
H        1.07660361      -1.61504514      -0.28803176
H        0.52446235      -1.14168374      -1.76243662
H        2.89430098       2.16744177      -0.71489409
14
Frame=15 idx=006937 GeodesicLength=1.5453433919206947 rxn_smarts="[O:1]=[C:2]([N:3]([C:4]([C:5]([C:6]#[C:7][H:14])([H:12])[H:13])([H:10])[H:11])[H:9])[H:8]>>[O+:1](=[C:2]([N:3]([C-:4]([H:10])[H:11])[H:9])[H:8])[C:5]([C:6]#[C:7][H:14])([H:12])[H:13]"
O       -1.30865019      -0.04437783      -1.25223389
C       -1.63825757       0.65840775      -0.23328755
N       -1.26754645       0.23155951       0.98353497
C       -0.58852866      -0.96800513       1.15225247
C        0.58584648      -0.71288604      -0.70826278
C        1.57423867       0.36979977      -0.70093893
C        2.37798576       1.26004823      -0.69766478
H       -1.88807972       1.71676063      -0.31797249
H       -1.09271509       0.95655810       1.66191298
H       -1.12244223      -1.79258650       0.69530686
H       -0.21740148      -1.11351969       2.15725062
H        1.08997874      -1.57521509      -0.25834414
H        0.52001774      -1.12553114      -1.71698748
H        2.97555399       2.13898745      -0.76456585
14
Frame=16 idx=006937 GeodesicLength=1.6483289542230701 rxn_smarts="[O:1]=[C:2]([N:3]([C:4]([C:5]([C:6]#[C:7][H:14])([H:12])[H:13])([H:10])[H:11])[H:9])[H:8]>>[O+:1](=[C:2]([N:3]([C-:4]([H:10])[H:11])[H:9])[H:8])[C:5]([C:6]#[C:7][H:14])([H:12])[H:13]"
O       -1.31685919      -0.02731798      -1.25828112
C       -1.67739743       0.64620081      -0.22770026
N       -1.29633317       0.21427231       0.98255477
C       -0.58731530      -0.97576177       1.13346951
C        0.57972216      -0.67380865      -0.66979868
C        1.58476945       0.40232911      -0.69573961
C        2.44071346       1.24070531      -0.73541780
H       -1.95126170       1.69987445      -0.29925753
H       -1.12671429       0.93643067       1.66515116
H       -1.11577156      -1.80523678       0.67797898
H       -0.21460081      -1.12249893       2.13795507
H        1.10294516      -1.53162524      -0.22983798
H        0.51520279      -1.10543895      -1.67171434
H        3.06290044       2.10187564      -0.80936216
