17
Frame=0 idx=010315 GeodesicLength=0.0 rxn_smarts="[C:1]([C@@:2]1([H:11])[C@:3]([O:4][H:13])([H:12])[C:5]([H:14])([H:15])[C@:6]1([O:7][H:17])[H:16])([H:8])([H:9])[H:10]>>[C:1](/[C:2](=[C:3](/[O:4][H:13])[H:12])[H:11])([H:8])([H:9])[H:10].[C:5](=[C:6]([O:7][H:17])[H:16])([H:14])[H:15]"
C       -2.21738733      -0.93183309       0.79372310
C       -1.05177622      -0.10572314       0.37162700
C        0.19656124      -0.70948873       0.06227784
O        0.47234350      -1.00242933      -1.32367661
C        1.38891135       0.40692544       0.45098906
C        1.11774218       1.48128258      -0.43267693
O        1.78691883       1.56852052      -1.57909680
H       -2.90912457      -0.37999704       1.43508088
H       -1.87123527      -1.81432752       1.34763055
H       -2.80060590      -1.32343905      -0.05141301
H       -1.16510149       0.96734027       0.32481027
H        0.34954860      -1.65594699       0.61192480
H        1.28017848      -1.52415188      -1.37025102
H        1.30116262       0.63689598       1.50548495
H        2.34040620      -0.07459811       0.22703459
H        0.43231300       2.28542068      -0.19259269
H        1.34914475       2.17554942      -2.18087593
17
Frame=1 idx=010315 GeodesicLength=0.16802948388427588 rxn_smarts="[C:1]([C@@:2]1([H:11])[C@:3]([O:4][H:13])([H:12])[C:5]([H:14])([H:15])[C@:6]1([O:7][H:17])[H:16])([H:8])([H:9])[H:10]>>[C:1](/[C:2](=[C:3](/[O:4][H:13])[H:12])[H:11])([H:8])([H:9])[H:10].[C:5](=[C:6]([O:7][H:17])[H:16])([H:14])[H:15]"
C       -2.23387637      -0.92909719       0.73938898
C       -1.03200195      -0.10660949       0.42093920
C        0.20932335      -0.70903668       0.09375686
O        0.44148239      -1.08385713      -1.27684139
C        1.42344954       0.44097035       0.44838725
C        1.09899313       1.48836458      -0.44730358
O        1.74012583       1.56375548      -1.61436656
H       -2.93241377      -0.41949439       1.40769305
H       -1.94358350      -1.87306151       1.21783774
H       -2.80626971      -1.22008090      -0.15237313
H       -1.13759692       0.96528760       0.50673633
H        0.44510928      -1.62573113       0.66202390
H        1.24031049      -1.61974412      -1.31827530
H        1.38364231       0.69321726       1.50097335
H        2.36889173      -0.04135422       0.20279497
H        0.44998656       2.31412826      -0.18027012
H        1.28442759       2.16234324      -2.21110155
17
Frame=2 idx=010315 GeodesicLength=0.3347374653125096 rxn_smarts="[C:1]([C@@:2]1([H:11])[C@:3]([O:4][H:13])([H:12])[C:5]([H:14])([H:15])[C@:6]1([O:7][H:17])[H:16])([H:8])([H:9])[H:10]>>[C:1](/[C:2](=[C:3](/[O:4][H:13])[H:12])[H:11])([H:8])([H:9])[H:10].[C:5](=[C:6]([O:7][H:17])[H:16])([H:14])[H:15]"
C       -2.24752189      -0.91782808       0.68361476
C       -1.01054379      -0.11305760       0.46575185
C        0.22425142      -0.71503824       0.12311639
O        0.41633326      -1.17176735      -1.22536530
C        1.45607328       0.47358912       0.44419073
C        1.07357772       1.49404076      -0.45761586
O        1.68449094       1.56108871      -1.64524325
H       -2.95314337      -0.44826465       1.37339937
H       -2.01499153      -1.91308675       1.08173826
H       -2.80539207      -1.10563380      -0.24419395
H       -1.10403359       0.94132365       0.68585110
H        0.54334831      -1.59630209       0.70476149
H        1.20716837      -1.71997840      -1.25832443
H        1.46464519       0.74681850       1.49255582
H        2.39603295      -0.00643464       0.17529631
H        0.46023170       2.33855550      -0.16517815
H        1.20947311       2.15197535      -2.23435514
17
Frame=3 idx=010315 GeodesicLength=0.500385471171139 rxn_smarts="[C:1]([C@@:2]1([H:11])[C@:3]([O:4][H:13])([H:12])[C:5]([H:14])([H:15])[C@:6]1([O:7][H:17])[H:16])([H:8])([H:9])[H:10]>>[C:1](/[C:2](=[C:3](/[O:4][H:13])[H:12])[H:11])([H:8])([H:9])[H:10].[C:5](=[C:6]([O:7][H:17])[H:16])([H:14])[H:15]"
C       -2.25829794      -0.89836993       0.62684296
C       -0.98700321      -0.12549065       0.50823477
C        0.24147296      -0.72764248       0.15107053
O        0.39575052      -1.26586672      -1.16877783
C        1.48648904       0.50522779       0.43856761
C        1.04188124       1.49803087      -0.46374921
O        1.62047916       1.55945952      -1.67177824
H       -2.97224774      -0.46549874       1.33184091
H       -2.08658525      -1.93445121       0.94156471
H       -2.79605617      -0.98158099      -0.32759537
H       -1.06577487       0.89489887       0.85940182
H        0.64549090      -1.56758905       0.73952997
H        1.18036540      -1.82344959      -1.19145231
H        1.54371857       0.79907504       1.48013834
H        2.42116721       0.03016148       0.14464403
H        0.46321886       2.35883889      -0.14786783
H        1.12593134       2.14424692      -2.25061488
17
Frame=4 idx=010315 GeodesicLength=0.6654745770755162 rxn_smarts="[C:1]([C@@:2]1([H:11])[C@:3]([O:4][H:13])([H:12])[C:5]([H:14])([H:15])[C@:6]1([O:7][H:17])[H:16])([H:8])([H:9])[H:10]>>[C:1](/[C:2](=[C:3](/[O:4][H:13])[H:12])[H:11])([H:8])([H:9])[H:10].[C:5](=[C:6]([O:7][H:17])[H:16])([H:14])[H:15]"
C       -2.26560857      -0.87045066       0.56883430
C       -0.96081568      -0.14482502       0.55064794
C        0.26144865      -0.74711045       0.17859425
O        0.37902985      -1.36630034      -1.10605694
C        1.51430722       0.53641368       0.43186629
C        1.00380888       1.49985557      -0.46567706
O        1.54782472       1.55766609      -1.69393715
H       -2.98959343      -0.47030420       1.28284306
H       -2.15893936      -1.93703632       0.79670044
H       -2.77579161      -0.84699647      -0.40374927
H       -1.02372452       0.82583256       1.02674927
H        0.75260792      -1.53950556       0.76556921
H        1.15989451      -1.92941842      -1.11815389
H        1.62013080       0.85143407       1.46375514
H        2.44366299       0.06881026       0.11119411
H        0.45849059       2.37486089      -0.12878912
H        1.03326703       2.13707434      -2.26039057
17
Frame=5 idx=010315 GeodesicLength=0.8308539889302025 rxn_smarts="[C:1]([C@@:2]1([H:11])[C@:3]([O:4][H:13])([H:12])[C:5]([H:14])([H:15])[C@:6]1([O:7][H:17])[H:16])([H:8])([H:9])[H:10]>>[C:1](/[C:2](=[C:3](/[O:4][H:13])[H:12])[H:11])([H:8])([H:9])[H:10].[C:5](=[C:6]([O:7][H:17])[H:16])([H:14])[H:15]"
C       -2.26815260      -0.83331080       0.50938696
C       -0.93163974      -0.17237975       0.59448984
C        0.28465652      -0.77380527       0.20634638
O        0.36573363      -1.47366121      -1.03607178
C        1.53866140       0.56761079       0.42455909
C        0.95885957       1.49875839      -0.46333093
O        1.46608285       1.55422242      -1.71149920
H       -3.00382780      -0.46169324       1.22685214
H       -2.23134552      -1.91959356       0.64529556
H       -2.74168430      -0.69997230      -0.47264261
H       -0.97897169       0.73397732       1.18719751
H        0.86511318      -1.51207072       0.78143988
H        1.14607103      -2.03758557      -1.03882904
H        1.69215429       0.90521066       1.44361375
H        2.46259714       0.11002791       0.07574476
H        0.44481346       2.38612990      -0.10854957
H        0.93087859       2.12813504      -2.26400274
17
Frame=6 idx=010315 GeodesicLength=0.9978242659369242 rxn_smarts="[C:1]([C@@:2]1([H:11])[C@:3]([O:4][H:13])([H:12])[C:5]([H:14])([H:15])[C@:6]1([O:7][H:17])[H:16])([H:8])([H:9])[H:10]>>[C:1](/[C:2](=[C:3](/[O:4][H:13])[H:12])[H:11])([H:8])([H:9])[H:10].[C:5](=[C:6]([O:7][H:17])[H:16])([H:14])[H:15]"
C       -2.26405694      -0.78647999       0.44915246
C       -0.89986873      -0.20920447       0.63968301
C        0.31106746      -0.80772830       0.23400213
O        0.35499005      -1.58854708      -0.95808531
C        1.55807745       0.59914800       0.41730598
C        0.90672610       1.49389877      -0.45681880
O        1.37593947       1.54751725      -1.72406878
H       -3.01263908      -0.43920452       1.16548400
H       -2.30102886      -1.88010019       0.48681440
H       -2.69094350      -0.54034841      -0.53224824
H       -0.93360630       0.62019224       1.33837560
H        0.98192439      -1.48524469       0.78448752
H        1.13882887      -2.14754271      -0.95459151
H        1.75663623       0.96138237       1.42038241
H        2.47666084       0.15410518       0.03990953
H        0.42081990       2.39207452      -0.08814937
H        0.82047264       2.11608202      -2.26163502
17
Frame=7 idx=010315 GeodesicLength=1.168684183487883 rxn_smarts="[C:1]([C@@:2]1([H:11])[C@:3]([O:4][H:13])([H:12])[C:5]([H:14])([H:15])[C@:6]1([O:7][H:17])[H:16])([H:8])([H:9])[H:10]>>[C:1](/[C:2](=[C:3](/[O:4][H:13])[H:12])[H:11])([H:8])([H:9])[H:10].[C:5](=[C:6]([O:7][H:17])[H:16])([H:14])[H:15]"
C       -2.25117014      -0.73002978       0.38909589
C       -0.86647152      -0.25519906       0.68457819
C        0.34019313      -0.84806125       0.26041519
O        0.34558921      -1.71126590      -0.87119305
C        1.57114345       0.63131977       0.41091806
C        0.84786036       1.48490833      -0.44627798
O        1.27908811       1.53638747      -1.73132540
H       -3.01327554      -0.40429291       1.10132488
H       -2.36311125      -1.81658025       0.32084865
H       -2.62180980      -0.36901208      -0.57928130
H       -0.89033418       0.48673709       1.47713735
H        1.10042379      -1.45869746       0.77132697
H        1.13699525      -2.25945182      -0.86612543
H        1.81022301       1.02037165       1.39533176
H        2.48475259       0.20120205       0.00566669
H        0.38587139       2.39259528      -0.06845405
H        0.70403212       2.09906886      -2.25398640
17
Frame=8 idx=010315 GeodesicLength=1.3459876685815082 rxn_smarts="[C:1]([C@@:2]1([H:11])[C@:3]([O:4][H:13])([H:12])[C:5]([H:14])([H:15])[C@:6]1([O:7][H:17])[H:16])([H:8])([H:9])[H:10]>>[C:1](/[C:2](=[C:3](/[O:4][H:13])[H:12])[H:11])([H:8])([H:9])[H:10].[C:5](=[C:6]([O:7][H:17])[H:16])([H:14])[H:15]"
C       -2.22816131      -0.66582265       0.33100324
C       -0.83324776      -0.30782662       0.72551316
C        0.37049987      -0.89260315       0.28307026
O        0.33559721      -1.84096948      -0.77451121
C        1.57705350       0.66439011       0.40616195
C        0.78439268       1.47255350      -0.43225971
O        1.17960353       1.52098088      -1.73329728
H       -3.00393840      -0.36212066       1.03826027
H       -2.41077962      -1.72899348       0.14900813
H       -2.53577421      -0.19009657      -0.60919233
H       -0.85260167       0.33798609       1.59923976
H        1.21583296      -1.43162595       0.73768342
H        1.13754219      -2.37365396      -0.77331295
H        1.85023994       1.08183168       1.37025057
H        2.48644011       0.25102925      -0.02481488
H        0.34173711       2.38893649      -0.05036807
H        0.58556385       2.07600453      -2.24243432
17
Frame=9 idx=010315 GeodesicLength=1.53043663366912 rxn_smarts="[C:1]([C@@:2]1([H:11])[C@:3]([O:4][H:13])([H:12])[C:5]([H:14])([H:15])[C@:6]1([O:7][H:17])[H:16])([H:8])([H:9])[H:10]>>[C:1](/[C:2](=[C:3](/[O:4][H:13])[H:12])[H:11])([H:8])([H:9])[H:10].[C:5](=[C:6]([O:7][H:17])[H:16])([H:14])[H:15]"
C       -2.19593328      -0.59814155       0.27716714
C       -0.80230710      -0.36162719       0.75791479
C        0.39948483      -0.93786083       0.29864308
O        0.32250095      -1.97481371      -0.66671859
C        1.57648953       0.69860641       0.40356459
C        0.72060259       1.45923624      -0.41583919
O        1.08399642       1.50327162      -1.73067293
H       -2.98568752      -0.32295749       0.98068659
H       -2.43711404      -1.62097166      -0.02535259
H       -2.44007450      -0.01063734      -0.61702870
H       -0.82364721       0.18030339       1.70025330
H        1.32212019      -1.40312450       0.67819318
H        1.13570701      -2.49016709      -0.67410831
H        1.87651012       1.14470145       1.34699845
H        2.48271240       0.30281127      -0.04968434
H        0.29354043       2.38423918      -0.03494007
H        0.47109919       2.04713181      -2.22907639
17
Frame=10 idx=010315 GeodesicLength=1.7172469172788178 rxn_smarts="[C:1]([C@@:2]1([H:11])[C@:3]([O:4][H:13])([H:12])[C:5]([H:14])([H:15])[C@:6]1([O:7][H:17])[H:16])([H:8])([H:9])[H:10]>>[C:1](/[C:2](=[C:3](/[O:4][H:13])[H:12])[H:11])([H:8])([H:9])[H:10].[C:5](=[C:6]([O:7][H:17])[H:16])([H:14])[H:15]"
C       -2.15861372      -0.53387362       0.22976718
C       -0.77530644      -0.40902946       0.77790670
C        0.42406388      -0.97970608       0.30337302
O        0.30366998      -2.10744693      -0.54622605
C        1.57234637       0.73384571       0.40324519
C        0.66270572       1.44919336      -0.39790268
O        1.00000424       1.48788238      -1.72429980
H       -2.96340517      -0.29761029       0.93044451
H       -2.43892484      -1.50222464      -0.19299854
H       -2.34740373       0.15622402      -0.60207625
H       -0.80536512       0.02192520       1.77619229
H        1.41285667      -1.37278029       0.58522926
H        1.12608519      -2.60788275      -0.56400861
H        1.89302463       1.20673917       1.32701209
H        2.47636391       0.35504568      -0.06834563
H        0.24992963       2.38358618      -0.02206804
H        0.36796879       2.01611236      -2.21524462
17
Frame=11 idx=010315 GeodesicLength=1.8979264326434024 rxn_smarts="[C:1]([C@@:2]1([H:11])[C@:3]([O:4][H:13])([H:12])[C:5]([H:14])([H:15])[C@:6]1([O:7][H:17])[H:16])([H:8])([H:9])[H:10]>>[C:1](/[C:2](=[C:3](/[O:4][H:13])[H:12])[H:11])([H:8])([H:9])[H:10].[C:5](=[C:6]([O:7][H:17])[H:16])([H:14])[H:15]"
C       -2.12205493      -0.47924898       0.18856006
C       -0.75289348      -0.44371514       0.78435712
C        0.44115949      -1.01523341       0.29402793
O        0.27961770      -2.23359881      -0.40842837
C        1.56921749       0.76868498       0.40422517
C        0.61635021       1.44680675      -0.37811984
O        0.93155747       1.48048218      -1.71459543
H       -2.94328377      -0.29617307       0.88610179
H       -2.41784153      -1.38364331      -0.34888049
H       -2.27182901       0.30133243      -0.56750833
H       -0.79767873      -0.12992683       1.82537476
H        1.48114402      -1.34018805       0.44890973
H        1.10808052      -2.72408494      -0.43142612
H        1.90844296       1.26394502       1.30989214
H        2.47073662       0.40495133      -0.08364722
H        0.22094490       2.39218742      -0.00891714
H        0.27833003       1.98742244      -2.19992576
17
Frame=12 idx=010315 GeodesicLength=2.059597639908481 rxn_smarts="[C:1]([C@@:2]1([H:11])[C@:3]([O:4][H:13])([H:12])[C:5]([H:14])([H:15])[C@:6]1([O:7][H:17])[H:16])([H:8])([H:9])[H:10]>>[C:1](/[C:2](=[C:3](/[O:4][H:13])[H:12])[H:11])([H:8])([H:9])[H:10].[C:5](=[C:6]([O:7][H:17])[H:16])([H:14])[H:15]"
C       -2.09423898      -0.44249398       0.15208396
C       -0.73654058      -0.45998007       0.77630071
C        0.44673639      -1.04164982       0.26731271
O        0.25365915      -2.34409022      -0.24937421
C        1.57307298       0.79943662       0.40621354
C        0.58858082       1.45704004      -0.35366941
O        0.88363082       1.48986832      -1.69933166
H       -2.93039167      -0.31773280       0.84470353
H       -2.38598277      -1.28681896      -0.47686311
H       -2.22810533       0.40556089      -0.53041326
H       -0.79874745      -0.26454035       1.84562607
H        1.51459670      -1.30539188       0.24832806
H        1.08715609      -2.82677024      -0.26176163
H        1.93388629       1.30834327       1.29630844
H        2.46973414       0.44680446      -0.09836414
H        0.21869185       2.41514774       0.01130198
H        0.20426155       1.96726697      -2.17840158
17
Frame=13 idx=010315 GeodesicLength=2.200002212255273 rxn_smarts="[C:1]([C@@:2]1([H:11])[C@:3]([O:4][H:13])([H:12])[C:5]([H:14])([H:15])[C@:6]1([O:7][H:17])[H:16])([H:8])([H:9])[H:10]>>[C:1](/[C:2](=[C:3](/[O:4][H:13])[H:12])[H:11])([H:8])([H:9])[H:10].[C:5](=[C:6]([O:7][H:17])[H:16])([H:14])[H:15]"
C       -2.08630836      -0.43211086       0.11743045
C       -0.73380465      -0.45232030       0.75619403
C        0.43226610      -1.05705803       0.22999362
O        0.24186666      -2.42848794      -0.05035631
C        1.59076424       0.81599157       0.40635777
C        0.58644371       1.47975876      -0.32134033
O        0.85661135       1.51651862      -1.67675348
H       -2.93310105      -0.36547449       0.80521134
H       -2.35746816      -1.23517916      -0.57144726
H       -2.23277871       0.45657421      -0.50803655
H       -0.81322468      -0.36155797       1.83939397
H        1.48118446      -1.26849370      -0.02244168
H        1.09438710      -2.87724905      -0.06738879
H        1.98704319       1.32608646       1.28117663
H        2.47376063       0.46119834      -0.12032134
H        0.26060788       2.45366321       0.04593065
H        0.15175032       1.96814033      -2.14360272
17
Frame=14 idx=010315 GeodesicLength=2.3438750685092766 rxn_smarts="[C:1]([C@@:2]1([H:11])[C@:3]([O:4][H:13])([H:12])[C:5]([H:14])([H:15])[C@:6]1([O:7][H:17])[H:16])([H:8])([H:9])[H:10]>>[C:1](/[C:2](=[C:3](/[O:4][H:13])[H:12])[H:11])([H:8])([H:9])[H:10].[C:5](=[C:6]([O:7][H:17])[H:16])([H:14])[H:15]"
C       -2.09850946      -0.44624625       0.08083353
C       -0.75031821      -0.42326901       0.73373991
C        0.39690342      -1.06032236       0.20153915
O        0.26734975      -2.46279499       0.17472212
C        1.62490726       0.81184096       0.39783763
C        0.60776249       1.50639094      -0.28175428
O        0.84089478       1.55371155      -1.64839857
H       -2.95442188      -0.44040740       0.76062581
H       -2.33281229      -1.22602602      -0.64683900
H       -2.27995909       0.46267720      -0.50477138
H       -0.84919334      -0.41735229       1.82071664
H        1.36316666      -1.24352650      -0.28725533
H        1.14735317      -2.85106831       0.10948593
H        2.08056118       1.31473256       1.24833401
H        2.47561530       0.43037670      -0.16230102
H        0.34585969       2.49645800       0.09550204
H        0.11484058       1.99482521      -2.09201720
17
Frame=15 idx=010315 GeodesicLength=2.4977670110332912 rxn_smarts="[C:1]([C@@:2]1([H:11])[C@:3]([O:4][H:13])([H:12])[C:5]([H:14])([H:15])[C@:6]1([O:7][H:17])[H:16])([H:8])([H:9])[H:10]>>[C:1](/[C:2](=[C:3](/[O:4][H:13])[H:12])[H:11])([H:8])([H:9])[H:10].[C:5](=[C:6]([O:7][H:17])[H:16])([H:14])[H:15]"
C       -2.11530219      -0.46554821       0.04502294
C       -0.77710810      -0.39016586       0.72105790
C        0.35348508      -1.05879934       0.19049253
O        0.32286800      -2.44891597       0.37662003
C        1.66448011       0.79740083       0.38178588
C        0.63524968       1.52448911      -0.24345243
O        0.82922277       1.58946598      -1.62034569
H       -2.98158950      -0.52926034       0.70863697
H       -2.30294864      -1.21784939      -0.72363368
H       -2.33726349       0.46001520      -0.49880290
H       -0.90042619      -0.46357223       1.80496602
H        1.20693612      -1.24090045      -0.47368225
H        1.22024293      -2.77740767       0.24494678
H        2.19009241       1.29505945       1.19504187
H        2.46942075       0.37574485      -0.21594330
H        0.43933172       2.52668897       0.14413532
H        0.08330853       2.02355507      -2.03684598
17
Frame=16 idx=010315 GeodesicLength=2.65282647579918 rxn_smarts="[C:1]([C@@:2]1([H:11])[C@:3]([O:4][H:13])([H:12])[C:5]([H:14])([H:15])[C@:6]1([O:7][H:17])[H:16])([H:8])([H:9])[H:10]>>[C:1](/[C:2](=[C:3](/[O:4][H:13])[H:12])[H:11])([H:8])([H:9])[H:10].[C:5](=[C:6]([O:7][H:17])[H:16])([H:14])[H:15]"
C       -2.12686815      -0.47741089       0.01248029
C       -0.80475221      -0.36378801       0.72181708
C        0.31117896      -1.05962045       0.19314918
O        0.39019400      -2.40936025       0.54302618
C        1.70146456       0.78247043       0.36329225
C        0.65792600       1.53110564      -0.21086979
O        0.81834494       1.61597861      -1.59601387
H       -3.00373408      -0.62002169       0.64944952
H       -2.26488156      -1.18423143      -0.80784778
H       -2.38679851       0.46872472      -0.47606548
H       -0.95682901      -0.52124627       1.79517650
H        1.04912386      -1.25718405      -0.59115422
H        1.29343603      -2.68735397       0.34660986
H        2.29284775       1.28144471       1.13017265
H        2.45715988       0.31959507      -0.26727785
H        0.51882085       2.54172153       0.18218682
H        0.05336669       2.03917631      -1.98813132
