16
Frame=0 idx=008944 GeodesicLength=0.0 rxn_smarts="[C:1]([C@@:2]1([H:11])[C:3]([H:12])([H:13])[N:4]([C:5]([H:14])([H:15])[H:16])[C:6]1=[O:7])([H:8])([H:9])[H:10]>>[C:1]([C:6]([C@@:2]1([H:11])[C:3]([H:12])([H:13])[N:4]1[C:5]([H:14])([H:15])[H:16])=[O:7])([H:8])([H:9])[H:10]"
C        0.97638774      -0.34394478       1.17728230
C        1.13547131       0.88005895      -0.81726888
C        0.04478329       0.12074968      -1.43338239
N       -0.90627515       0.39125925      -0.41442373
C       -1.68236886      -0.69059547       0.13377924
C        0.55125947       1.07260752       0.49956441
O        0.48981291       2.02497532       1.25905793
H        0.25030738      -0.45922110       1.98130689
H        1.96211107      -0.16881379       1.60284281
H        0.99302411      -1.23096001       0.54933971
H        1.93288486       1.44659445      -1.29361690
H       -0.19245337       0.74930328      -2.31571946
H        0.21608450      -0.90283731      -1.78633920
H       -1.19036774      -1.67199902       0.13891007
H       -1.96798086      -0.43977072       1.15748179
H       -2.61268073      -0.77740626      -0.43881452
16
Frame=1 idx=008944 GeodesicLength=0.1281752958334885 rxn_smarts="[C:1]([C@@:2]1([H:11])[C:3]([H:12])([H:13])[N:4]([C:5]([H:14])([H:15])[H:16])[C:6]1=[O:7])([H:8])([H:9])[H:10]>>[C:1]([C:6]([C@@:2]1([H:11])[C:3]([H:12])([H:13])[N:4]1[C:5]([H:14])([H:15])[H:16])=[O:7])([H:8])([H:9])[H:10]"
C        1.01955697      -0.35740525       1.16210675
C        1.11794829       0.87698258      -0.79954816
C        0.04514300       0.10903765      -1.43791709
N       -0.89949974       0.39380497      -0.41685497
C       -1.70444168      -0.66679284       0.12721438
C        0.53707974       1.07245804       0.51895922
O        0.48964297       2.01949880       1.28386443
H        0.30324455      -0.50488683       1.97017254
H        2.00212361      -0.16425474       1.58733561
H        1.04887152      -1.24456290       0.53470646
H        1.88603318       1.48389551      -1.27402925
H       -0.18964570       0.72313130      -2.32943056
H        0.22498412      -0.92008825      -1.76772193
H       -1.23135950      -1.65170423       0.22261838
H       -2.05565723      -0.36875411       1.11737697
H       -2.59402410      -0.80035971      -0.49885277
16
Frame=2 idx=008944 GeodesicLength=0.25546961097493787 rxn_smarts="[C:1]([C@@:2]1([H:11])[C:3]([H:12])([H:13])[N:4]([C:5]([H:14])([H:15])[H:16])[C:6]1=[O:7])([H:8])([H:9])[H:10]>>[C:1]([C:6]([C@@:2]1([H:11])[C:3]([H:12])([H:13])[N:4]1[C:5]([H:14])([H:15])[H:16])=[O:7])([H:8])([H:9])[H:10]"
C        1.06412483      -0.37114032       1.14543108
C        1.09968630       0.87407445      -0.78111689
C        0.04520092       0.09773579      -1.44166728
N       -0.89330763       0.39608226      -0.41865074
C       -1.72707592      -0.64254313       0.12049549
C        0.52270420       1.07011765       0.53983054
O        0.48897113       2.01181441       1.30990322
H        0.35862908      -0.55206619       1.95670766
H        2.04284506      -0.15960966       1.57091413
H        1.10791452      -1.25762932       0.51781664
H        1.83779286       1.51891667      -1.25279499
H       -0.18709679       0.69759599      -2.34187349
H        0.23307909      -0.93628810      -1.74877027
H       -1.27595912      -1.62240325       0.31325693
H       -2.14830429      -0.29354457       1.06576826
H       -2.56920426      -0.83111268      -0.55525027
16
Frame=3 idx=008944 GeodesicLength=0.38219922257035743 rxn_smarts="[C:1]([C@@:2]1([H:11])[C:3]([H:12])([H:13])[N:4]([C:5]([H:14])([H:15])[H:16])[C:6]1=[O:7])([H:8])([H:9])[H:10]>>[C:1]([C:6]([C@@:2]1([H:11])[C:3]([H:12])([H:13])[N:4]1[C:5]([H:14])([H:15])[H:16])=[O:7])([H:8])([H:9])[H:10]"
C        1.11013286      -0.38523424       1.12708361
C        1.08069606       0.87123163      -0.76192288
C        0.04470854       0.08694726      -1.44461891
N       -0.88776279       0.39813014      -0.41951937
C       -1.75031183      -0.61783872       0.11395993
C        0.50832822       1.06536791       0.56238468
O        0.48816714       2.00169966       1.33751837
H        0.41658909      -0.60101014       1.94063075
H        2.08426058      -0.15500090       1.55362403
H        1.17037785      -1.26994163       0.49812594
H        1.78830354       1.55185449      -1.22980938
H       -0.18503378       0.67294682      -2.35299343
H        0.23997498      -0.95138610      -1.72968262
H       -1.32542916      -1.58186834       0.41197310
H       -2.24629481      -0.21500492       0.99982181
H       -2.53670650      -0.87089292      -0.60657563
16
Frame=4 idx=008944 GeodesicLength=0.5079104224666655 rxn_smarts="[C:1]([C@@:2]1([H:11])[C:3]([H:12])([H:13])[N:4]([C:5]([H:14])([H:15])[H:16])[C:6]1=[O:7])([H:8])([H:9])[H:10]>>[C:1]([C:6]([C@@:2]1([H:11])[C:3]([H:12])([H:13])[N:4]1[C:5]([H:14])([H:15])[H:16])=[O:7])([H:8])([H:9])[H:10]"
C        1.15716583      -0.39983121       1.10685048
C        1.06103034       0.86821917      -0.74181092
C        0.04363406       0.07689933      -1.44683265
N       -0.88308843       0.40018344      -0.41965746
C       -1.77419323      -0.59236668       0.10770295
C        0.49379876       1.05787692       0.58663022
O        0.48699469       1.98864787       1.36685037
H        0.47654878      -0.65208133       1.92128456
H        2.12580693      -0.15080771       1.53554762
H        1.23613733      -1.28127638       0.47518865
H        1.73777910       1.58259268      -1.20473563
H       -0.18331073       0.64960509      -2.36275815
H        0.24568774      -0.96514029      -1.71067518
H       -1.38024915      -1.52658304       0.51853841
H       -2.34780049      -0.13442273       0.91679689
H       -2.49594153      -0.92151511      -0.64892017
16
Frame=5 idx=008944 GeodesicLength=0.6327599278784521 rxn_smarts="[C:1]([C@@:2]1([H:11])[C:3]([H:12])([H:13])[N:4]([C:5]([H:14])([H:15])[H:16])[C:6]1=[O:7])([H:8])([H:9])[H:10]>>[C:1]([C:6]([C@@:2]1([H:11])[C:3]([H:12])([H:13])[N:4]1[C:5]([H:14])([H:15])[H:16])=[O:7])([H:8])([H:9])[H:10]"
C        1.20480875      -0.41509773       1.08459639
C        1.04080138       0.86486365      -0.72076553
C        0.04170228       0.06791780      -1.44841337
N       -0.87941207       0.40254963      -0.41900209
C       -1.79860077      -0.56602342       0.10202758
C        0.47930613       1.04748541       0.61257491
O        0.48584154       1.97241893       1.39802862
H        0.53766474      -0.70576090       1.89783717
H        2.16687691      -0.14751036       1.51718532
H        1.30510009      -1.29131251       0.44846547
H        1.68648090       1.61117700      -1.17743631
H       -0.18213124       0.62820605      -2.37119805
H        0.24973506      -0.97727492      -1.69215300
H       -1.44174610      -1.45251749       0.63284742
H       -2.45131407      -0.05466890       0.81353518
H       -2.44511353      -0.98445226      -0.67812970
16
Frame=6 idx=008944 GeodesicLength=0.7564484371449324 rxn_smarts="[C:1]([C@@:2]1([H:11])[C:3]([H:12])([H:13])[N:4]([C:5]([H:14])([H:15])[H:16])[C:6]1=[O:7])([H:8])([H:9])[H:10]>>[C:1]([C:6]([C@@:2]1([H:11])[C:3]([H:12])([H:13])[N:4]1[C:5]([H:14])([H:15])[H:16])=[O:7])([H:8])([H:9])[H:10]"
C        1.25219240      -0.43101680       1.06032133
C        1.02015295       0.86082550      -0.69881565
C        0.03867466       0.06028939      -1.44953325
N       -0.87690114       0.40565753      -0.41766414
C       -1.82313820      -0.53878577       0.09719078
C        0.46489205       1.03425791       0.63999444
O        0.48473921       1.95308450       1.43081339
H        0.59818200      -0.76225809       1.86914382
H        2.20622223      -0.14559242       1.49955479
H        1.37699917      -1.29947274       0.41763511
H        1.63499963       1.63709955      -1.14780866
H       -0.18156634       0.60930991      -2.37837639
H        0.25179917      -0.98753670      -1.67461481
H       -1.51059895      -1.35590298       0.75152389
H       -2.55313103       0.01921424       0.68871245
H       -2.38351780      -1.05917301      -0.68807709
16
Frame=7 idx=008944 GeodesicLength=0.8789070458788478 rxn_smarts="[C:1]([C@@:2]1([H:11])[C:3]([H:12])([H:13])[N:4]([C:5]([H:14])([H:15])[H:16])[C:6]1=[O:7])([H:8])([H:9])[H:10]>>[C:1]([C:6]([C@@:2]1([H:11])[C:3]([H:12])([H:13])[N:4]1[C:5]([H:14])([H:15])[H:16])=[O:7])([H:8])([H:9])[H:10]"
C        1.29836402      -0.44740390       1.03429930
C        0.99928616       0.85580504      -0.67615888
C        0.03426658       0.05419177      -1.45035046
N       -0.87568236       0.41000911      -0.41572051
C       -1.84727598      -0.51088990       0.09349421
C        0.45069875       1.01857937       0.66849094
O        0.48389689       1.93116454       1.46462966
H        0.65586707      -0.82153206       1.83404484
H        2.24246514      -0.14549331       1.48415388
H        1.45158829      -1.30492555       0.38279264
H        1.58417813       1.65978200      -1.11611520
H       -0.18180320       0.59319663      -2.38448987
H        0.25152009      -0.99582910      -1.65833424
H       -1.58711088      -1.23491789       0.86841122
H       -2.64870164       0.08034851       0.54358787
H       -2.31155705      -1.14208526      -0.67273541
16
Frame=8 idx=008944 GeodesicLength=1.0003720652749095 rxn_smarts="[C:1]([C@@:2]1([H:11])[C:3]([H:12])([H:13])[N:4]([C:5]([H:14])([H:15])[H:16])[C:6]1=[O:7])([H:8])([H:9])[H:10]>>[C:1]([C:6]([C@@:2]1([H:11])[C:3]([H:12])([H:13])[N:4]1[C:5]([H:14])([H:15])[H:16])=[O:7])([H:8])([H:9])[H:10]"
C        1.34267255      -0.46384103       1.00707224
C        0.97841589       0.84954719      -0.65305061
C        0.02835656       0.04936761      -1.45080055
N       -0.87574214       0.41596607      -0.41313625
C       -1.87054538      -0.48267745       0.09125960
C        0.43685593       1.00107820       0.69761117
O        0.48343987       1.90761083       1.49865489
H        0.70884155      -0.88301855       1.79174057
H        2.27458980      -0.14735552       1.47243064
H        1.52883216      -1.30663127       0.34459139
H        1.53455019       1.67888889      -1.08297291
H       -0.18304139       0.57932154      -2.38968751
H        0.24869053      -1.00259374      -1.64295417
H       -1.67131851      -1.09213758       0.97472589
H       -2.73287270       0.12209222       0.38313861
H       -2.23172490      -1.22561740      -0.62862299
16
Frame=9 idx=008944 GeodesicLength=1.121361898102629 rxn_smarts="[C:1]([C@@:2]1([H:11])[C:3]([H:12])([H:13])[N:4]([C:5]([H:14])([H:15])[H:16])[C:6]1=[O:7])([H:8])([H:9])[H:10]>>[C:1]([C:6]([C@@:2]1([H:11])[C:3]([H:12])([H:13])[N:4]1[C:5]([H:14])([H:15])[H:16])=[O:7])([H:8])([H:9])[H:10]"
C        1.38495217      -0.47985069       0.97905432
C        0.95753810       0.84185164      -0.62957568
C        0.02097201       0.04533368      -1.45058780
N       -0.87702485       0.42383424      -0.40992952
C       -1.89276217      -0.45423097       0.09030242
C        0.42322036       0.98217817       0.72702869
O        0.48322860       1.88309865       1.53221137
H        0.75673372      -0.94556354       1.74215222
H        2.30228838      -0.15122453       1.46479352
H        1.60834967      -1.30371659       0.30395386
H        1.48633956       1.69410101      -1.04878684
H       -0.18518566       0.56666816      -2.39392831
H        0.24313696      -1.00850153      -1.62759646
H       -1.76244732      -0.93270731       1.06249023
H       -2.80164288       0.13984385       0.21460630
H       -2.14769664      -1.30111424      -0.55618832
16
Frame=10 idx=008944 GeodesicLength=1.2418011517345433 rxn_smarts="[C:1]([C@@:2]1([H:11])[C:3]([H:12])([H:13])[N:4]([C:5]([H:14])([H:15])[H:16])[C:6]1=[O:7])([H:8])([H:9])[H:10]>>[C:1]([C:6]([C@@:2]1([H:11])[C:3]([H:12])([H:13])[N:4]1[C:5]([H:14])([H:15])[H:16])=[O:7])([H:8])([H:9])[H:10]"
C        1.42587047      -0.49477243       0.95068134
C        0.93664191       0.83269817      -0.60573902
C        0.01260899       0.04107382      -1.44957255
N       -0.87937337       0.43323504      -0.40643051
C       -1.91453809      -0.42564330       0.08982767
C        0.40937130       0.96178769       0.75676597
O        0.48244961       1.85778075       1.56519336
H        0.80112496      -1.00788036       1.68625262
H        2.32627909      -0.15635226       1.46100320
H        1.69003841      -1.29539337       0.26197254
H        1.43918973       1.70588643      -1.01377417
H       -0.18739378       0.55348949      -2.39761251
H        0.23508174      -1.01478980      -1.61119521
H       -1.85900830      -0.76445847       1.12553853
H       -2.85225277       0.13388453       0.04754210
H       -2.06608990      -1.36054593      -0.46045337
16
Frame=11 idx=008944 GeodesicLength=1.3618253144481396 rxn_smarts="[C:1]([C@@:2]1([H:11])[C:3]([H:12])([H:13])[N:4]([C:5]([H:14])([H:15])[H:16])[C:6]1=[O:7])([H:8])([H:9])[H:10]>>[C:1]([C:6]([C@@:2]1([H:11])[C:3]([H:12])([H:13])[N:4]1[C:5]([H:14])([H:15])[H:16])=[O:7])([H:8])([H:9])[H:10]"
C        1.46622957      -0.50834720       0.92196100
C        0.91557459       0.82212436      -0.58133034
C        0.00352599       0.03610713      -1.44756616
N       -0.88278612       0.44406457      -0.40292493
C       -1.93642716      -0.39680410       0.08897024
C        0.39487258       0.93944081       0.78696129
O        0.48046357       1.83119129       1.59782801
H        0.84442183      -1.06902646       1.62514465
H        2.34775872      -0.16252313       1.45980826
H        1.77324016      -1.28157147       0.21931466
H        1.39302121       1.71450909      -0.97760409
H       -0.18904111       0.53899970      -2.40076660
H        0.22452093      -1.02210330      -1.59294767
H       -1.95934250      -0.59181924       1.16208964
H       -2.88547251       0.10589545      -0.11203238
H       -1.99055974      -1.40013751      -0.34690558
16
Frame=12 idx=008944 GeodesicLength=1.4814583475030125 rxn_smarts="[C:1]([C@@:2]1([H:11])[C:3]([H:12])([H:13])[N:4]([C:5]([H:14])([H:15])[H:16])[C:6]1=[O:7])([H:8])([H:9])[H:10]>>[C:1]([C:6]([C@@:2]1([H:11])[C:3]([H:12])([H:13])[N:4]1[C:5]([H:14])([H:15])[H:16])=[O:7])([H:8])([H:9])[H:10]"
C        1.50704309      -0.52021737       0.89278585
C        0.89417927       0.81010483      -0.55609211
C       -0.00586101       0.02972281      -1.44429079
N       -0.88704445       0.45570865      -0.39948474
C       -1.95894855      -0.36760897       0.08718867
C        0.37933555       0.91430439       0.81788087
O        0.47640734       1.80235095       1.63062641
H        0.88908297      -1.12853080       1.55938614
H        2.36797803      -0.16914182       1.46002663
H        1.85809918      -1.26173038       0.17617360
H        1.34707929       1.72045049      -0.93988071
H       -0.18962482       0.52210807      -2.40325198
H        0.21172191      -1.03117603      -1.57199660
H       -2.06216104      -0.41858587       1.17182894
H       -2.90236269       0.06017950      -0.25969158
H       -1.92492409      -1.41793844      -0.22120860
16
Frame=13 idx=008944 GeodesicLength=1.6006980616425888 rxn_smarts="[C:1]([C@@:2]1([H:11])[C:3]([H:12])([H:13])[N:4]([C:5]([H:14])([H:15])[H:16])[C:6]1=[O:7])([H:8])([H:9])[H:10]>>[C:1]([C:6]([C@@:2]1([H:11])[C:3]([H:12])([H:13])[N:4]1[C:5]([H:14])([H:15])[H:16])=[O:7])([H:8])([H:9])[H:10]"
C        1.54891304      -0.53001390       0.86312970
C        0.87243858       0.79654374      -0.52986178
C       -0.01530491       0.02148818      -1.43959434
N       -0.89199087       0.46778320      -0.39615353
C       -1.98237515      -0.33795381       0.08430825
C        0.36253206       0.88577369       0.84964405
O        0.46982360       1.77055649       1.66394123
H        0.93679883      -1.18580079       1.48949027
H        2.38779716      -0.17578839       1.46084835
H        1.94430506      -1.23547555       0.13277532
H        1.30129856       1.72376879      -0.90034306
H       -0.18881388       0.50217532      -2.40495367
H        0.19690641      -1.04240648      -1.54786148
H       -2.16512650      -0.24775775       1.15561326
H       -2.90519762       0.00076304      -0.39171062
H       -1.87200438      -1.41365579      -0.08927194
16
Frame=14 idx=008944 GeodesicLength=1.7194524875327333 rxn_smarts="[C:1]([C@@:2]1([H:11])[C:3]([H:12])([H:13])[N:4]([C:5]([H:14])([H:15])[H:16])[C:6]1=[O:7])([H:8])([H:9])[H:10]>>[C:1]([C:6]([C@@:2]1([H:11])[C:3]([H:12])([H:13])[N:4]1[C:5]([H:14])([H:15])[H:16])=[O:7])([H:8])([H:9])[H:10]"
C        1.59241010      -0.53714935       0.83315251
C        0.85038212       0.78121683      -0.50256264
C       -0.02453462       0.01072371      -1.43328179
N       -0.89729741       0.47948244      -0.39282286
C       -2.00702730      -0.30770723       0.08021667
C        0.34435515       0.85331157       0.88225493
O        0.46022860       1.73525129       1.69791006
H        0.98904799      -1.24001815       1.41605734
H        2.40802269      -0.18163424       1.46171147
H        2.03180931      -1.20213173       0.08951243
H        1.25537915       1.72442790      -0.85894987
H       -0.18648974       0.47828748      -2.40566165
H        0.18059795      -1.05631814      -1.52003940
H       -2.26498778      -0.08333497       1.11553857
H       -2.89667030      -0.06569746      -0.50503277
H       -1.83522592      -1.38870994       0.04199700
16
Frame=15 idx=008944 GeodesicLength=1.8378921406052104 rxn_smarts="[C:1]([C@@:2]1([H:11])[C:3]([H:12])([H:13])[N:4]([C:5]([H:14])([H:15])[H:16])[C:6]1=[O:7])([H:8])([H:9])[H:10]>>[C:1]([C:6]([C@@:2]1([H:11])[C:3]([H:12])([H:13])[N:4]1[C:5]([H:14])([H:15])[H:16])=[O:7])([H:8])([H:9])[H:10]"
C        1.63744732      -0.54124487       0.80303668
C        0.82815643       0.76390034      -0.47428072
C       -0.03348506      -0.00274007      -1.42541094
N       -0.90269851       0.49036464      -0.38945082
C       -2.03288442      -0.27668753       0.07496475
C        0.32487165       0.81673252       0.91548581
O        0.44752826       1.69616475       1.73246594
H        1.04626295      -1.29025265       1.33978514
H        2.42886584      -0.18640318       1.46231460
H        2.11969780      -1.16151537       0.04684401
H        1.20964004       1.72215312      -0.81579864
H       -0.18271737       0.45037180      -2.40525208
H        0.16326017      -1.07284469      -1.48869931
H       -2.35821486       0.07246217       1.05507728
H       -2.88044478      -0.13427156      -0.59852826
H       -1.81528547      -1.34618941       0.16744658
16
Frame=16 idx=008944 GeodesicLength=1.9564276606569357 rxn_smarts="[C:1]([C@@:2]1([H:11])[C:3]([H:12])([H:13])[N:4]([C:5]([H:14])([H:15])[H:16])[C:6]1=[O:7])([H:8])([H:9])[H:10]>>[C:1]([C:6]([C@@:2]1([H:11])[C:3]([H:12])([H:13])[N:4]1[C:5]([H:14])([H:15])[H:16])=[O:7])([H:8])([H:9])[H:10]"
C        1.68365196      -0.54209081       0.77293420
C        0.80593062       0.74440728      -0.44511916
C       -0.04222486      -0.01885628      -1.41606419
N       -0.90790741       0.50010895      -0.38581775
C       -2.05979378      -0.24473766       0.06863515
C        0.30428131       0.77600385       0.94911746
O        0.43197090       1.65315987       1.76753649
H        1.10844178      -1.33557411       1.26167491
H        2.45053386      -0.18986344       1.46206749
H        2.20664902      -1.11386045       0.00511893
H        1.16448658       1.71668477      -0.77104233
H       -0.17787197       0.41868705      -2.40354252
H        0.14521499      -1.09170335      -1.45425459
H       -2.44253254       0.21838413       0.97806500
H       -2.85967182      -0.20107261      -0.67316453
H       -1.81115864      -1.28967719       0.28385543
