12
Frame=0 idx=006488 GeodesicLength=0.0 rxn_smarts="[C:1]([c:2]1[c:3]([N:4]([H:11])[H:12])[n:5][n:6][o:7]1)([H:8])([H:9])[H:10]>>[C:1]([c:2]1[c:3]([N-:4][H:11])[n:5]([H:12])[n:6][o+:7]1)([H:8])([H:9])[H:10]"
C       -1.62315458      -0.73940922       0.44506346
C       -0.22047667      -0.49012756       0.04892220
C        0.58486356       0.60989721      -0.10703136
N        0.86796757       1.91246014      -0.01548180
N        1.76454710       0.05949275      -0.53832022
N        1.78300655      -1.20602380      -0.61685762
O        0.55595836      -1.58028825      -0.27113075
H       -2.05369996       0.18626850       0.82460329
H       -1.68560237      -1.49132583       1.23355536
H       -2.23124124      -1.07833952      -0.39686474
H        0.12758094       2.59190403      -0.05024702
H        2.13025078       1.22549156      -0.55621079
12
Frame=1 idx=006488 GeodesicLength=0.04647179016070769 rxn_smarts="[C:1]([c:2]1[c:3]([N:4]([H:11])[H:12])[n:5][n:6][o:7]1)([H:8])([H:9])[H:10]>>[C:1]([c:2]1[c:3]([N-:4][H:11])[n:5]([H:12])[n:6][o+:7]1)([H:8])([H:9])[H:10]"
C       -1.62081397      -0.73677505       0.44918524
C       -0.22247213      -0.49348091       0.03523071
C        0.56897110       0.61052478      -0.16120364
N        0.86091909       1.90607449      -0.00344008
N        1.76559199       0.05799920      -0.54663955
N        1.78796316      -1.20932929      -0.60284908
O        0.55277471      -1.58258744      -0.27905201
H       -2.04195628       0.18818577       0.84117296
H       -1.67607943      -1.49416813       1.23286608
H       -2.24158079      -1.06768713      -0.38667178
H        0.12249072       2.58618517      -0.06687812
H        2.14419184       1.23505852      -0.51172073
12
Frame=2 idx=006488 GeodesicLength=0.09309328757500518 rxn_smarts="[C:1]([c:2]1[c:3]([N:4]([H:11])[H:12])[n:5][n:6][o:7]1)([H:8])([H:9])[H:10]>>[C:1]([c:2]1[c:3]([N-:4][H:11])[n:5]([H:12])[n:6][o+:7]1)([H:8])([H:9])[H:10]"
C       -1.61795060      -0.73317844       0.45259061
C       -0.22227353      -0.49682588       0.02668363
C        0.55881379       0.60935461      -0.20018792
N        0.85215562       1.89915754       0.00619272
N        1.76708436       0.05640415      -0.55415311
N        1.79130887      -1.21214669      -0.59455473
O        0.55119628      -1.58509585      -0.28242959
H       -2.02909153       0.19039260       0.85847339
H       -1.67046254      -1.49857601       1.22852009
H       -2.24876870      -1.05187925      -0.38047983
H        0.11474871       2.57762076      -0.08579226
H        2.15323927       1.24477247      -0.47486300
12
Frame=3 idx=006488 GeodesicLength=0.13966250596621338 rxn_smarts="[C:1]([c:2]1[c:3]([N:4]([H:11])[H:12])[n:5][n:6][o:7]1)([H:8])([H:9])[H:10]>>[C:1]([c:2]1[c:3]([N-:4][H:11])[n:5]([H:12])[n:6][o+:7]1)([H:8])([H:9])[H:10]"
C       -1.61496222      -0.72925646       0.45545096
C       -0.22116266      -0.50020119       0.02045170
C        0.55153255       0.60732104      -0.23068592
N        0.84290701       1.89217311       0.01461331
N        1.76868081       0.05481113      -0.56161868
N        1.79417326      -1.21475789      -0.58804242
O        0.55037380      -1.58772100      -0.28341332
H       -2.01587493       0.19248280       0.87560328
H       -1.66705043      -1.50369077       1.22231356
H       -2.25436266      -1.03388133      -0.37630134
H        0.10647516       2.56793992      -0.10465627
H        2.15927031       1.25478063      -0.44371485
12
Frame=4 idx=006488 GeodesicLength=0.1864110739354702 rxn_smarts="[C:1]([c:2]1[c:3]([N:4]([H:11])[H:12])[n:5][n:6][o:7]1)([H:8])([H:9])[H:10]>>[C:1]([c:2]1[c:3]([N-:4][H:11])[n:5]([H:12])[n:6][o+:7]1)([H:8])([H:9])[H:10]"
C       -1.61201510      -0.72525367       0.45802397
C       -0.21957325      -0.50367530       0.01568150
C        0.54595588       0.60476261      -0.25579545
N        0.83338373       1.88534371       0.02208040
N        1.77052995       0.05313968      -0.56837100
N        1.79664853      -1.21727962      -0.58337332
O        0.55008779      -1.59046936      -0.28284017
H       -2.00268585       0.19427660       0.89261588
H       -1.66509078      -1.50922520       1.21493076
H       -2.25906282      -1.01470367      -0.37320442
H        0.09827249       2.55788068      -0.12367243
H        2.16354944       1.26520354      -0.41607571
12
Frame=5 idx=006488 GeodesicLength=0.23317418978362467 rxn_smarts="[C:1]([c:2]1[c:3]([N:4]([H:11])[H:12])[n:5][n:6][o:7]1)([H:8])([H:9])[H:10]>>[C:1]([c:2]1[c:3]([N-:4][H:11])[n:5]([H:12])[n:6][o+:7]1)([H:8])([H:9])[H:10]"
C       -1.60901915      -0.72120612       0.46049705
C       -0.21790498      -0.50714132       0.01103416
C        0.54132987       0.60193129      -0.27813878
N        0.82348451       1.87857891       0.02861103
N        1.77255967       0.05143603      -0.57466162
N        1.79897079      -1.21973549      -0.57935527
O        0.54986253      -1.59322011      -0.28214326
H       -1.98923001       0.19585744       0.90957596
H       -1.66366888      -1.51477795       1.20711770
H       -2.26339426      -0.99505181      -0.37026296
H        0.09025422       2.54759190      -0.14285580
H        2.16675568       1.27573723      -0.38941820
12
Frame=6 idx=006488 GeodesicLength=0.27993318511752346 rxn_smarts="[C:1]([c:2]1[c:3]([N:4]([H:11])[H:12])[n:5][n:6][o:7]1)([H:8])([H:9])[H:10]>>[C:1]([c:2]1[c:3]([N-:4][H:11])[n:5]([H:12])[n:6][o+:7]1)([H:8])([H:9])[H:10]"
C       -1.60603695      -0.71710034       0.46268848
C       -0.21605083      -0.51066724       0.00699929
C        0.53746023       0.59881740      -0.29798370
N        0.81358698       1.87178024       0.03463231
N        1.77460222       0.04962491      -0.58092026
N        1.80126055      -1.22218665      -0.57544154
O        0.54990744      -1.59602122      -0.28046243
H       -1.97582547       0.19722227       0.92597877
H       -1.66303031      -1.52021025       1.19870782
H       -2.26713015      -0.97498108      -0.36782342
H        0.08247390       2.53704368      -0.16080949
H        2.16878238       1.28667830      -0.36556580
12
Frame=7 idx=006488 GeodesicLength=0.3267266995757906 rxn_smarts="[C:1]([c:2]1[c:3]([N:4]([H:11])[H:12])[n:5][n:6][o:7]1)([H:8])([H:9])[H:10]>>[C:1]([c:2]1[c:3]([N-:4][H:11])[n:5]([H:12])[n:6][o+:7]1)([H:8])([H:9])[H:10]"
C       -1.60307606      -0.71298654       0.46474093
C       -0.21416742      -0.51422225       0.00308804
C        0.53414195       0.59553895      -0.31618165
N        0.80361977       1.86501357       0.04012438
N        1.77674196       0.04773709      -0.58703759
N        1.80354871      -1.22466782      -0.57159587
O        0.55003218      -1.59887812      -0.27846435
H       -1.96237999       0.19840518       0.94204834
H       -1.66289434      -1.52550354       1.19001192
H       -2.27054030      -0.95474463      -0.36550119
H        0.07493068       2.52636710      -0.17808731
H        2.17004287       1.29794101      -0.34314565
12
Frame=8 idx=006488 GeodesicLength=0.37356204923878306 rxn_smarts="[C:1]([c:2]1[c:3]([N:4]([H:11])[H:12])[n:5][n:6][o:7]1)([H:8])([H:9])[H:10]>>[C:1]([c:2]1[c:3]([N-:4][H:11])[n:5]([H:12])[n:6][o+:7]1)([H:8])([H:9])[H:10]"
C       -1.60005582      -0.70885952       0.46677896
C       -0.21233669      -0.51782417      -0.00102456
C        0.53123893       0.59209847      -0.33326187
N        0.79340118       1.85829002       0.04488108
N        1.77904011       0.04574202      -0.59272239
N        1.80591477      -1.22717760      -0.56734612
O        0.55004061      -1.60176300      -0.27687865
H       -1.94848790       0.19923006       0.95842693
H       -1.66299788      -1.53091975       1.18081963
H       -2.27390068      -0.93387182      -0.36299971
H        0.06751901       2.51558177      -0.19546899
H        2.17062437       1.30947353      -0.32120432
12
Frame=9 idx=006488 GeodesicLength=0.4204577998064471 rxn_smarts="[C:1]([c:2]1[c:3]([N:4]([H:11])[H:12])[n:5][n:6][o:7]1)([H:8])([H:9])[H:10]>>[C:1]([c:2]1[c:3]([N-:4][H:11])[n:5]([H:12])[n:6][o+:7]1)([H:8])([H:9])[H:10]"
C       -1.59693043      -0.70472863       0.46887600
C       -0.21062187      -0.52146448      -0.00553297
C        0.52864945       0.58851787      -0.34963040
N        0.78283457       1.85164861       0.04882990
N        1.78151620       0.04364365      -0.59789317
N        1.80833506      -1.22972214      -0.56269991
O        0.54985507      -1.60465613      -0.27596805
H       -1.93396699       0.19964117       0.97529593
H       -1.66319834      -1.53649908       1.17115853
H       -2.27730233      -0.91230153      -0.36010505
H        0.06023587       2.50473889      -0.21336267
H        2.17059374       1.32118179      -0.29896814
12
Frame=10 idx=006488 GeodesicLength=0.4674519348744786 rxn_smarts="[C:1]([c:2]1[c:3]([N:4]([H:11])[H:12])[n:5][n:6][o:7]1)([H:8])([H:9])[H:10]>>[C:1]([c:2]1[c:3]([N-:4][H:11])[n:5]([H:12])[n:6][o+:7]1)([H:8])([H:9])[H:10]"
C       -1.59366864      -0.70061787       0.47114559
C       -0.20907286      -0.52516232      -0.01064050
C        0.52639379       0.58485625      -0.36559624
N        0.77175516       1.84513567       0.05177234
N        1.78425289       0.04147387      -0.60234934
N        1.81085026      -1.23229132      -0.55746407
O        0.54935576      -1.60758685      -0.27617446
H       -1.91847290       0.19946109       0.99317499
H       -1.66346499      -1.54250896       1.16089633
H       -2.28095863      -0.88966335      -0.35661565
H        0.05308181       2.49385707      -0.23247704
H        2.16994836       1.33304671      -0.27567195
12
Frame=11 idx=006488 GeodesicLength=0.5144753788556656 rxn_smarts="[C:1]([c:2]1[c:3]([N:4]([H:11])[H:12])[n:5][n:6][o:7]1)([H:8])([H:9])[H:10]>>[C:1]([c:2]1[c:3]([N-:4][H:11])[n:5]([H:12])[n:6][o+:7]1)([H:8])([H:9])[H:10]"
C       -1.59016477      -0.69647708       0.47362954
C       -0.20779543      -0.52891877      -0.01671543
C        0.52435271       0.58093417      -0.38089794
N        0.76001205       1.83879838       0.05349807
N        1.78724190       0.03923598      -0.60582187
N        1.81344086      -1.23486077      -0.55153769
O        0.54848179      -1.61049802      -0.27797748
H       -1.90171553       0.19854185       1.01235373
H       -1.66350557      -1.54886993       1.14972324
H       -2.28492535      -0.86563911      -0.35210189
H        0.04596740       2.48281181      -0.25349987
H        2.16860995       1.34494149      -0.25065243
12
Frame=12 idx=006488 GeodesicLength=0.561596817441592 rxn_smarts="[C:1]([c:2]1[c:3]([N:4]([H:11])[H:12])[n:5][n:6][o:7]1)([H:8])([H:9])[H:10]>>[C:1]([c:2]1[c:3]([N-:4][H:11])[n:5]([H:12])[n:6][o+:7]1)([H:8])([H:9])[H:10]"
C       -1.58651087      -0.69232001       0.47616023
C       -0.20658007      -0.53275286      -0.02302605
C        0.52258280       0.57693761      -0.39607696
N        0.74790628       1.83250149       0.05454081
N        1.79033293       0.03686862      -0.60897629
N        1.81605755      -1.23748573      -0.54516271
O        0.54752785      -1.61350703      -0.28001453
H       -1.88412931       0.19704091       1.03201752
H       -1.66390267      -1.55540123       1.13795765
H       -2.28874026      -0.84068779      -0.34720333
H        0.03903300       2.47171838      -0.27481123
H        2.16642278       1.35708765      -0.22540510
12
Frame=13 idx=006488 GeodesicLength=0.6087166031742032 rxn_smarts="[C:1]([c:2]1[c:3]([N:4]([H:11])[H:12])[n:5][n:6][o:7]1)([H:8])([H:9])[H:10]>>[C:1]([c:2]1[c:3]([N-:4][H:11])[n:5]([H:12])[n:6][o+:7]1)([H:8])([H:9])[H:10]"
C       -1.58270408      -0.68817442       0.47878195
C       -0.20551805      -0.53665385      -0.02986537
C        0.52102027       0.57283048      -0.41083454
N        0.73544018       1.82627426       0.05477407
N        1.79354766       0.03445803      -0.61171352
N        1.81865952      -1.24009197      -0.53836461
O        0.54644300      -1.61655078      -0.28261438
H       -1.86561657       0.19486776       1.05229229
H       -1.66449180      -1.56207264       1.12553578
H       -2.29256551      -0.81481542      -0.34162577
H        0.03237407       2.46052408      -0.29697197
H        2.16341129       1.36940447      -0.19939392
12
Frame=14 idx=006488 GeodesicLength=0.6559561622305397 rxn_smarts="[C:1]([c:2]1[c:3]([N:4]([H:11])[H:12])[n:5][n:6][o:7]1)([H:8])([H:9])[H:10]>>[C:1]([c:2]1[c:3]([N-:4][H:11])[n:5]([H:12])[n:6][o+:7]1)([H:8])([H:9])[H:10]"
C       -1.57878693      -0.68403127       0.48143850
C       -0.20452270      -0.54063754      -0.03690365
C        0.51967411       0.56859707      -0.42529208
N        0.72273610       1.82010409       0.05439315
N        1.79683935       0.03194269      -0.61427097
N        1.82127648      -1.24272185      -0.53117097
O        0.54534144      -1.61967444      -0.28533482
H       -1.84638977       0.19201209       1.07292800
H       -1.66553201      -1.56878019       1.11245637
H       -2.29616836      -0.78809211      -0.33556926
H        0.02595375       2.44924452      -0.31937545
H        2.15957854       1.38203692      -0.17329882
12
Frame=15 idx=006488 GeodesicLength=0.7032456332174502 rxn_smarts="[C:1]([c:2]1[c:3]([N:4]([H:11])[H:12])[n:5][n:6][o:7]1)([H:8])([H:9])[H:10]>>[C:1]([c:2]1[c:3]([N-:4][H:11])[n:5]([H:12])[n:6][o+:7]1)([H:8])([H:9])[H:10]"
C       -1.57476831      -0.67989146       0.48408827
C       -0.20356814      -0.54469108      -0.04403341
C        0.51851562       0.56425443      -0.43936788
N        0.70989625       1.81395138       0.05352367
N        1.80013503       0.02933075      -0.61683815
N        1.82385342      -1.24535668      -0.52372924
O        0.54426951      -1.62286438      -0.28795258
H       -1.82661572       0.18852677       1.09363716
H       -1.66704342      -1.57536995       1.09882529
H       -2.29942098      -0.76074134      -0.32908794
H        0.01981308       2.43787426      -0.34176761
H        2.15493365       1.39497729      -0.14729758
12
Frame=16 idx=006488 GeodesicLength=0.7505719394062509 rxn_smarts="[C:1]([c:2]1[c:3]([N:4]([H:11])[H:12])[n:5][n:6][o:7]1)([H:8])([H:9])[H:10]>>[C:1]([c:2]1[c:3]([N-:4][H:11])[n:5]([H:12])[n:6][o+:7]1)([H:8])([H:9])[H:10]"
C       -1.57067740      -0.67576199       0.48670532
C       -0.20262890      -0.54880379      -0.05114933
C        0.51752974       0.55982088      -0.45303801
N        0.69701848       1.80779500       0.05228527
N        1.80339943       0.02662194      -0.61957783
N        1.82636568      -1.24798856      -0.51617633
O        0.54325856      -1.62611459      -0.29030887
H       -1.80648781       0.18447358       1.11417866
H       -1.66905137      -1.58170797       1.08477953
H       -2.30223761      -0.73299922      -0.32224838
H        0.01397813       2.42642973      -0.36391603
H        2.14953307       1.40823499      -0.12153402
