15
Frame=0 idx=008747 GeodesicLength=0.0 rxn_smarts="[N:1]([C:2](=[O:3])[N:4]([C:5]([C:6]([O:7][H:15])([H:13])[H:14])([H:11])[H:12])[H:10])([H:8])[H:9]>>[N:1]([C+:2]([O:3][C:5]([C:6]([O:7][H:15])([H:13])[H:14])([H:11])[H:12])[N-:4][H:10])([H:8])[H:9]"
N        2.32484967       1.13985619      -0.46931440
C        1.13999069       0.44636812      -0.47511067
O        0.08789161       1.07267648      -0.12757113
N        1.00104116      -0.79072765      -0.83900128
C       -1.18755420      -0.53892217      -0.50912686
C       -1.57229201      -0.65194493       0.91670398
O       -1.91649333       0.54999603       1.53252402
H        2.31871198       2.00976780       0.03118010
H        3.18107531       0.61894876      -0.43900587
H        1.81362427      -1.27813193      -1.19312988
H       -1.07350345      -1.48022851      -1.01981841
H       -1.66318105       0.23479372      -1.09554842
H       -0.78753404      -1.19759966       1.45556427
H       -2.46449365      -1.29591129       0.92373978
H       -1.20213297       1.16105905       1.30791479
15
Frame=1 idx=008747 GeodesicLength=0.04335554369715116 rxn_smarts="[N:1]([C:2](=[O:3])[N:4]([C:5]([C:6]([O:7][H:15])([H:13])[H:14])([H:11])[H:12])[H:10])([H:8])[H:9]>>[N:1]([C+:2]([O:3][C:5]([C:6]([O:7][H:15])([H:13])[H:14])([H:11])[H:12])[N-:4][H:10])([H:8])[H:9]"
N        2.32567344       1.14055766      -0.48579658
C        1.14744565       0.43808904      -0.43419503
O        0.09286902       1.07740120      -0.11681912
N        1.00062183      -0.79902421      -0.79871929
C       -1.16922282      -0.53008374      -0.50895132
C       -1.57825340      -0.65692604       0.91135706
O       -1.92694684       0.54197832       1.53246329
H        2.32618573       2.02116266      -0.00414358
H        3.18528086       0.62446961      -0.47018563
H        1.80329291      -1.27620833      -1.18684188
H       -1.06880967      -1.46898302      -1.02856389
H       -1.65567115       0.23890010      -1.09403664
H       -0.80211886      -1.20754442       1.45765138
H       -2.47265854      -1.29693096       0.90209659
H       -1.20768816       1.15314214       1.32468463
15
Frame=2 idx=008747 GeodesicLength=0.08648336174096069 rxn_smarts="[N:1]([C:2](=[O:3])[N:4]([C:5]([C:6]([O:7][H:15])([H:13])[H:14])([H:11])[H:12])[H:10])([H:8])[H:9]>>[N:1]([C+:2]([O:3][C:5]([C:6]([O:7][H:15])([H:13])[H:14])([H:11])[H:12])[N-:4][H:10])([H:8])[H:9]"
N        2.32561801       1.14024781      -0.50085175
C        1.15398093       0.43244848      -0.39851554
O        0.09735604       1.08267740      -0.10824743
N        0.99964233      -0.80559553      -0.76093280
C       -1.15103368      -0.52131681      -0.50867752
C       -1.58278158      -0.66172393       0.90608703
O       -1.93568332       0.53416863       1.53250814
H        2.33192018       2.03091678      -0.03793513
H        3.18736937       0.62741274      -0.49652702
H        1.79189505      -1.27428078      -1.17887671
H       -1.06337578      -1.45754778      -1.03705338
H       -1.64919761       0.24217707      -1.09244929
H       -0.81466528      -1.21700392       1.45899278
H       -2.47901238      -1.29788816       0.88163151
H       -1.21203229       1.14530800       1.34084712
15
Frame=3 idx=008747 GeodesicLength=0.12943412529750228 rxn_smarts="[N:1]([C:2](=[O:3])[N:4]([C:5]([C:6]([O:7][H:15])([H:13])[H:14])([H:11])[H:12])[H:10])([H:8])[H:9]>>[N:1]([C+:2]([O:3][C:5]([C:6]([O:7][H:15])([H:13])[H:14])([H:11])[H:12])[N-:4][H:10])([H:8])[H:9]"
N        2.32503981       1.13912292      -0.51418572
C        1.15933598       0.42916994      -0.36823820
O        0.10103519       1.08864142      -0.10236377
N        0.99788849      -0.81053908      -0.72623981
C       -1.13331768      -0.51272515      -0.50841205
C       -1.58581623      -0.66628039       0.90101326
O       -1.94269092       0.52667384       1.53266984
H        2.33628572       2.03891676      -0.06917259
H        3.18789882       0.62803093      -0.51787248
H        1.77982190      -1.27243550      -1.16968282
H       -1.05765899      -1.44619389      -1.04519299
H       -1.64422132       0.24440883      -1.09085153
H       -0.82485067      -1.22569472       1.45964585
H       -2.48344616      -1.29890735       0.86281717
H       -1.21530393       1.13781144       1.35606584
15
Frame=4 idx=008747 GeodesicLength=0.17223720554524927 rxn_smarts="[N:1]([C:2](=[O:3])[N:4]([C:5]([C:6]([O:7][H:15])([H:13])[H:14])([H:11])[H:12])[H:10])([H:8])[H:9]>>[N:1]([C+:2]([O:3][C:5]([C:6]([O:7][H:15])([H:13])[H:14])([H:11])[H:12])[N-:4][H:10])([H:8])[H:9]"
N        2.32418979       1.13735732      -0.52578700
C        1.16357626       0.42768730      -0.34238507
O        0.10386709       1.09522187      -0.09913305
N        0.99536074      -0.81409341      -0.69463279
C       -1.11622119      -0.50438644      -0.50820146
C       -1.58753323      -0.67057343       0.89619644
O       -1.94824114       0.51956152       1.53289371
H        2.33971879       2.04528518      -0.09753985
H        3.18738866       0.62678604      -0.53490426
H        1.76731604      -1.27053620      -1.16001506
H       -1.05190947      -1.43512016      -1.05289424
H       -1.64074395       0.24552960      -1.08931388
H       -0.83279948      -1.23349057       1.45978673
H       -2.48615785      -1.30005861       0.84576248
H       -1.21781106       1.13082999       1.37016730
15
Frame=5 idx=008747 GeodesicLength=0.21495664352818372 rxn_smarts="[N:1]([C:2](=[O:3])[N:4]([C:5]([C:6]([O:7][H:15])([H:13])[H:14])([H:11])[H:12])[H:10])([H:8])[H:9]>>[N:1]([C+:2]([O:3][C:5]([C:6]([O:7][H:15])([H:13])[H:14])([H:11])[H:12])[N-:4][H:10])([H:8])[H:9]"
N        2.32319998       1.13503470      -0.53543511
C        1.16672173       0.42751966      -0.32020002
O        0.10578960       1.10230637      -0.09873301
N        0.99206575      -0.81646238      -0.66615065
C       -1.09982618      -0.49641319      -0.50806291
C       -1.58797517      -0.67452874       0.89173096
O       -1.95247241       0.51297093       1.53303449
H        2.34249358       2.05001723      -0.12244835
H        3.18612494       0.62395819      -0.54797958
H        1.75434653      -1.26825057      -1.15097526
H       -1.04629142      -1.42459231      -1.05999461
H       -1.63875206       0.24534064      -1.08794703
H       -0.83849396      -1.24013640       1.45964576
H       -2.48715593      -1.30137996       0.83070506
H       -1.21977498       1.12461580       1.38281025
15
Frame=6 idx=008747 GeodesicLength=0.25763148206150344 rxn_smarts="[N:1]([C:2](=[O:3])[N:4]([C:5]([C:6]([O:7][H:15])([H:13])[H:14])([H:11])[H:12])[H:10])([H:8])[H:9]>>[N:1]([C+:2]([O:3][C:5]([C:6]([O:7][H:15])([H:13])[H:14])([H:11])[H:12])[N-:4][H:10])([H:8])[H:9]"
N        2.32209145       1.13247704      -0.54454793
C        1.16933866       0.42830199      -0.30012917
O        0.10741546       1.10960248      -0.09929993
N        0.98836827      -0.81801218      -0.63925756
C       -1.08388268      -0.48842637      -0.50794717
C       -1.58794756      -0.67843010       0.88731241
O       -1.95605017       0.50641926       1.53332548
H        2.34492611       2.05400561      -0.14636239
H        3.18444751       0.62038852      -0.55941204
H        1.74151959      -1.26620022      -1.14081528
H       -1.04059175      -1.41398012      -1.06690585
H       -1.63734411       0.24477704      -1.08652938
H       -0.84335736      -1.24662920       1.45909877
H       -2.48756803      -1.30271526       0.81631334
H       -1.22136539       1.11842150       1.39515671
15
Frame=7 idx=008747 GeodesicLength=0.30024010286017433 rxn_smarts="[N:1]([C:2](=[O:3])[N:4]([C:5]([C:6]([O:7][H:15])([H:13])[H:14])([H:11])[H:12])[H:10])([H:8])[H:9]>>[N:1]([C+:2]([O:3][C:5]([C:6]([O:7][H:15])([H:13])[H:14])([H:11])[H:12])[N-:4][H:10])([H:8])[H:9]"
N        2.32096964       1.12961360      -0.55239304
C        1.17122501       0.42983996      -0.28228766
O        0.10847052       1.11714129      -0.10172013
N        0.98414421      -0.81875074      -0.61458534
C       -1.06855787      -0.48068058      -0.50790205
C       -1.58716272      -0.68211607       0.88313682
O       -1.95881673       0.50021562       1.53358369
H        2.34710614       2.05694426      -0.16789995
H        3.18242186       0.61592670      -0.56843954
H        1.72855570      -1.26388538      -1.13110250
H       -1.03504860      -1.40376019      -1.07335747
H       -1.63689217       0.24332073      -1.08521903
H       -0.84678879      -1.25237807       1.45836624
H       -2.48696935      -1.30418155       0.80330058
H       -1.22265685       1.11275042       1.40651937
15
Frame=8 idx=008747 GeodesicLength=0.34282662114730433 rxn_smarts="[N:1]([C:2](=[O:3])[N:4]([C:5]([C:6]([O:7][H:15])([H:13])[H:14])([H:11])[H:12])[H:10])([H:8])[H:9]>>[N:1]([C+:2]([O:3][C:5]([C:6]([O:7][H:15])([H:13])[H:14])([H:11])[H:12])[N-:4][H:10])([H:8])[H:9]"
N        2.31978912       1.12658636      -0.55976231
C        1.17271807       0.43196963      -0.26586113
O        0.10930674       1.12475741      -0.10490931
N        0.97963061      -0.81889347      -0.59115726
C       -1.05364872      -0.47294261      -0.50786607
C       -1.58606659      -0.68572967       0.87902639
O       -1.96114381       0.49409316       1.53391118
H        2.34910648       2.05928334      -0.18849121
H        3.18015810       0.61098943      -0.57634575
H        1.71575091      -1.26160212      -1.12092959
H       -1.02945683      -1.39356801      -1.07955378
H       -1.63681342       0.24149150      -1.08389940
H       -0.84962497      -1.25793963       1.45739168
H       -2.48597091      -1.30564836       0.79088138
H       -1.22373480       1.10715305       1.41756518
15
Frame=9 idx=008747 GeodesicLength=0.385382315204476 rxn_smarts="[N:1]([C:2](=[O:3])[N:4]([C:5]([C:6]([O:7][H:15])([H:13])[H:14])([H:11])[H:12])[H:10])([H:8])[H:9]>>[N:1]([C+:2]([O:3][C:5]([C:6]([O:7][H:15])([H:13])[H:14])([H:11])[H:12])[N-:4][H:10])([H:8])[H:9]"
N        2.31860287       1.12340798      -0.56651058
C        1.17379413       0.43458865      -0.25077359
O        0.10988333       1.13243800      -0.10903532
N        0.97480750      -0.81850209      -0.56906527
C       -1.03919746      -0.46527803      -0.50786204
C       -1.58462355      -0.68924261       0.87502768
O       -1.96301679       0.48812444       1.53427249
H        2.35098437       2.06104024      -0.20790022
H        3.17771554       0.60560118      -0.58297155
H        1.70304069      -1.25923953      -1.11073135
H       -1.02390821      -1.38353188      -1.08544780
H       -1.63717307       0.23919524      -1.08260835
H       -0.85177000      -1.26320043       1.45624583
H       -2.48452528      -1.30714548       0.77919823
H       -1.22461408       1.10174434       1.42816184
15
Frame=10 idx=008747 GeodesicLength=0.42790515403882945 rxn_smarts="[N:1]([C:2](=[O:3])[N:4]([C:5]([C:6]([O:7][H:15])([H:13])[H:14])([H:11])[H:12])[H:10])([H:8])[H:9]>>[N:1]([C+:2]([O:3][C:5]([C:6]([O:7][H:15])([H:13])[H:14])([H:11])[H:12])[N-:4][H:10])([H:8])[H:9]"
N        2.31743132       1.12008876      -0.57261566
C        1.17446756       0.43760902      -0.23688667
O        0.11020873       1.14014355      -0.11409729
N        0.96969633      -0.81764696      -0.54828037
C       -1.02520624      -0.45770344      -0.50790148
C       -1.58284771      -0.69264625       0.87115014
O       -1.96445936       0.48232533       1.53464897
H        2.35275990       2.06225322      -0.22614235
H        3.17513609       0.59981952      -0.58831576
H        1.69041147      -1.25673103      -1.10070012
H       -1.01844487      -1.37368634      -1.09102726
H       -1.63795398       0.23642595      -1.08134249
H       -0.85323435      -1.26813269       1.45496033
H       -2.48265537      -1.30866769       0.76826601
H       -1.22530953       1.09654905       1.43828400
15
Frame=11 idx=008747 GeodesicLength=0.4704224221144328 rxn_smarts="[N:1]([C:2](=[O:3])[N:4]([C:5]([C:6]([O:7][H:15])([H:13])[H:14])([H:11])[H:12])[H:10])([H:8])[H:9]>>[N:1]([C+:2]([O:3][C:5]([C:6]([O:7][H:15])([H:13])[H:14])([H:11])[H:12])[N-:4][H:10])([H:8])[H:9]"
N        2.31622465       1.11669902      -0.57857799
C        1.17494939       0.44099037      -0.22378766
O        0.11048497       1.14782009      -0.11943892
N        0.96443287      -0.81639303      -0.52815821
C       -1.01152722      -0.45007234      -0.50792013
C       -1.58100450      -0.69602845       0.86727349
O       -1.96569281       0.47652656       1.53509425
H        2.35445920       2.06315434      -0.24406772
H        3.17244464       0.59384896      -0.59319378
H        1.67801927      -1.25428413      -1.09019006
H       -1.01288481      -1.36380228      -1.09641008
H       -1.63879315       0.23349427      -1.08004760
H       -0.85453563      -1.27307947       1.45348369
H       -2.48071513      -1.31013616       0.75757909
H       -1.22586174       1.09126223       1.44836165
15
Frame=12 idx=008747 GeodesicLength=0.5129248301715512 rxn_smarts="[N:1]([C:2](=[O:3])[N:4]([C:5]([C:6]([O:7][H:15])([H:13])[H:14])([H:11])[H:12])[H:10])([H:8])[H:9]>>[N:1]([C+:2]([O:3][C:5]([C:6]([O:7][H:15])([H:13])[H:14])([H:11])[H:12])[N-:4][H:10])([H:8])[H:9]"
N        2.31501793       1.11322773      -0.58418208
C        1.17517268       0.44467646      -0.21152386
O        0.11063741       1.15547189      -0.12532687
N        0.95898243      -0.81477740      -0.50890488
C       -0.99821363      -0.44245981      -0.50795410
C       -1.57900249      -0.69934737       0.86345765
O       -1.96665544       0.47081964       1.53557434
H        2.35610073       2.06369049      -0.26131044
H        3.16965977       0.58765213      -0.59731532
H        1.66578398      -1.25177320      -1.07964622
H       -1.00733185      -1.35401977      -1.10154682
H       -1.63981519       0.23027247      -1.07875903
H       -0.85548162      -1.27788195       1.45187779
H       -2.47858185      -1.31158909       0.74735061
H       -1.22627286       1.08603775       1.45820922
15
Frame=13 idx=008747 GeodesicLength=0.5554020457175995 rxn_smarts="[N:1]([C:2](=[O:3])[N:4]([C:5]([C:6]([O:7][H:15])([H:13])[H:14])([H:11])[H:12])[H:10])([H:8])[H:9]>>[N:1]([C+:2]([O:3][C:5]([C:6]([O:7][H:15])([H:13])[H:14])([H:11])[H:12])[N-:4][H:10])([H:8])[H:9]"
N        2.31384413       1.10966777      -0.58924876
C        1.17507813       0.44861246      -0.20013338
O        0.11060785       1.16308803      -0.13199274
N        0.95331525      -0.81282723      -0.49069376
C       -0.98531590      -0.43492822      -0.50803769
C       -1.57676665      -0.70256821       0.85975371
O       -1.96729480       0.46527861       1.53605565
H        2.35771397       2.06381497      -0.27754021
H        3.16680046       0.58120871      -0.60045156
H        1.65364146      -1.24908044      -1.06944178
H       -1.00189184      -1.34446009      -1.10639602
H       -1.64112527       0.22665010      -1.07749795
H       -0.85590985      -1.28239723       1.45019598
H       -2.47615687      -1.31306640       0.73776438
H       -1.22654008       1.08100716       1.46766415
15
Frame=14 idx=008747 GeodesicLength=0.5978820125824676 rxn_smarts="[N:1]([C:2](=[O:3])[N:4]([C:5]([C:6]([O:7][H:15])([H:13])[H:14])([H:11])[H:12])[H:10])([H:8])[H:9]>>[N:1]([C+:2]([O:3][C:5]([C:6]([O:7][H:15])([H:13])[H:14])([H:11])[H:12])[N-:4][H:10])([H:8])[H:9]"
N        2.31266913       1.10605554      -0.59414885
C        1.17482381       0.45279197      -0.18933194
O        0.11054571       1.17065174      -0.13893597
N        0.94752535      -0.81059774      -0.47305362
C       -0.97271589      -0.42736371      -0.50812229
C       -1.57448919      -0.70576340       0.85606650
O       -1.96775869       0.45977092       1.53659869
H        2.35927371       2.06374894      -0.29353720
H        3.16388783       0.57464495      -0.60307962
H        1.64168931      -1.24639701      -1.05905252
H       -0.99641148      -1.33493302      -1.11106492
H       -1.64245848       0.22288237      -1.07622945
H       -0.85620791      -1.28691586       1.44838362
H       -2.47369985      -1.31449714       0.72842609
H       -1.22667336       1.07592146       1.47708146
15
Frame=15 idx=008747 GeodesicLength=0.6403771918983299 rxn_smarts="[N:1]([C:2](=[O:3])[N:4]([C:5]([C:6]([O:7][H:15])([H:13])[H:14])([H:11])[H:12])[H:10])([H:8])[H:9]>>[N:1]([C+:2]([O:3][C:5]([C:6]([O:7][H:15])([H:13])[H:14])([H:11])[H:12])[N-:4][H:10])([H:8])[H:9]"
N        2.31147655       1.10237196      -0.59907481
C        1.17450245       0.45721745      -0.17895353
O        0.11052983       1.17815691      -0.14585406
N        0.94166871      -0.80807963      -0.45569783
C       -0.96033796      -0.41968499      -0.50815923
C       -1.57227209      -0.70897181       0.85232837
O       -1.96812749       0.45418881       1.53722444
H        2.36070162       2.06351814      -0.30991910
H        3.16094907       0.56803280      -0.60534808
H        1.62997508      -1.24376130      -1.04818464
H       -0.99078991      -1.32528513      -1.11559760
H       -1.64366696       0.21912190      -1.07489832
H       -0.85658621      -1.29158991       1.44637474
H       -2.47134823      -1.31582855       0.71909676
H       -1.22667447       1.07059336       1.48666289
15
Frame=16 idx=008747 GeodesicLength=0.6828423776378495 rxn_smarts="[N:1]([C:2](=[O:3])[N:4]([C:5]([C:6]([O:7][H:15])([H:13])[H:14])([H:11])[H:12])[H:10])([H:8])[H:9]>>[N:1]([C+:2]([O:3][C:5]([C:6]([O:7][H:15])([H:13])[H:14])([H:11])[H:12])[N-:4][H:10])([H:8])[H:9]"
N        2.31033142       1.09862955      -0.60338887
C        1.17384545       0.46179817      -0.16936123
O        0.11030944       1.18558164      -0.15368291
N        0.93560381      -0.80529457      -0.43939825
C       -0.94838985      -0.41213612      -0.50827140
C       -1.56979758      -0.71205514       0.84873488
O       -1.96817201       0.44882660       1.53780550
H        2.36218600       2.06287469      -0.32496109
H        3.15794436       0.56121883      -0.60668849
H        1.61830127      -1.24084299      -1.03796593
H       -0.98537397      -1.31596467      -1.11981650
H       -1.64519338       0.21489455      -1.07360568
H       -0.85637869      -1.29586623       1.44435191
H       -2.46867383      -1.31721061       0.71050691
H       -1.22654246       1.06554629       1.49574115
