17
Frame=0 idx=010803 GeodesicLength=0.0 rxn_smarts="[C:1]([O:2][C@@:3]1([H:11])[C:4]([H:12])([H:13])[C@:5]1([C:6]([O:7][H:17])([H:15])[H:16])[H:14])([H:8])([H:9])[H:10]>>[C:1]([O:2][C@@:3]1([H:11])[C:4]([H:12])([H:13])/[C:5]1=[C:6](/[O:7][H:17])[H:16])([H:8])([H:9])[H:10].[H:14][H:15]"
C        2.34018689       0.24068926      -0.34915884
O        0.96605845       0.13761911      -0.65406630
C        0.28652000      -0.72175159       0.22122160
C       -0.25711189      -0.07040322       1.45752561
C       -1.16761424      -0.46726238       0.30754991
C       -1.87352235       0.45825342      -0.51739412
O       -1.52092806       1.71548585      -0.67504283
H        2.83357481      -0.73387828      -0.43167954
H        2.49496021       0.62902077       0.66426772
H        2.78247985       0.92487870      -1.07157963
H        0.68640772      -1.73526510       0.23557091
H       -0.36707856      -0.66137956       2.35883716
H        0.02585719       0.96467613       1.62860701
H       -1.79633446      -1.43462021      -0.40118845
H       -1.98903569      -1.27704437      -1.38417200
H       -2.88345098       0.25855112      -0.84022784
H       -0.56096888       1.77243027      -0.54907042
17
Frame=1 idx=010803 GeodesicLength=0.09174855568234455 rxn_smarts="[C:1]([O:2][C@@:3]1([H:11])[C:4]([H:12])([H:13])[C@:5]1([C:6]([O:7][H:17])([H:15])[H:16])[H:14])([H:8])([H:9])[H:10]>>[C:1]([O:2][C@@:3]1([H:11])[C:4]([H:12])([H:13])/[C:5]1=[C:6](/[O:7][H:17])[H:16])([H:8])([H:9])[H:10].[H:14][H:15]"
C        2.35927824       0.24621882      -0.32906017
O        0.98925125       0.14484395      -0.65153356
C        0.29759779      -0.71781966       0.20873163
C       -0.25503578      -0.08027900       1.44942302
C       -1.15522340      -0.46734601       0.29113869
C       -1.88777168       0.45418096      -0.51122442
O       -1.52405760       1.69809141      -0.75156644
H        2.85377801      -0.72792115      -0.41117294
H        2.50165612       0.62852026       0.68845145
H        2.81038301       0.93511923      -1.04148506
H        0.69447734      -1.73267690       0.21984738
H       -0.36230383      -0.68000908       2.34527804
H        0.01869849       0.95562758       1.62941600
H       -1.80396540      -1.45286108      -0.40954513
H       -2.03739463      -1.24862140      -1.38538046
H       -2.93320795       0.28221574      -0.71969355
H       -0.56615999       1.76271634      -0.62162448
17
Frame=2 idx=010803 GeodesicLength=0.18333214558850375 rxn_smarts="[C:1]([O:2][C@@:3]1([H:11])[C:4]([H:12])([H:13])[C@:5]1([C:6]([O:7][H:17])([H:15])[H:16])[H:14])([H:8])([H:9])[H:10]>>[C:1]([O:2][C@@:3]1([H:11])[C:4]([H:12])([H:13])/[C:5]1=[C:6](/[O:7][H:17])[H:16])([H:8])([H:9])[H:10].[H:14][H:15]"
C        2.37770447       0.25281330      -0.30835076
O        1.01194496       0.15377917      -0.64819472
C        0.30848923      -0.71348006       0.19559618
C       -0.25286174      -0.09147708       1.44145006
C       -1.14308105      -0.46716816       0.27471971
C       -1.90154062       0.45077632      -0.50395288
O       -1.52941597       1.67539642      -0.83120664
H        2.87328546      -0.72077419      -0.39156150
H        2.50782496       0.62759991       0.71357163
H        2.83734380       0.94740807      -1.00969640
H        0.70240645      -1.72963856       0.20177391
H       -0.35705731      -0.70100001       2.33104613
H        0.01136466       0.94496544       1.63148414
H       -1.81398850      -1.47063622      -0.41629001
H       -2.08990851      -1.22136793      -1.38116279
H       -2.96883320       0.31251349      -0.60104477
H       -0.57367709       1.75029006      -0.69818129
17
Frame=3 idx=010803 GeodesicLength=0.27489049954107286 rxn_smarts="[C:1]([O:2][C@@:3]1([H:11])[C:4]([H:12])([H:13])[C@:5]1([C:6]([O:7][H:17])([H:15])[H:16])[H:14])([H:8])([H:9])[H:10]>>[C:1]([O:2][C@@:3]1([H:11])[C:4]([H:12])([H:13])/[C:5]1=[C:6](/[O:7][H:17])[H:16])([H:8])([H:9])[H:10].[H:14][H:15]"
C        2.39568083       0.26030103      -0.28692682
O        1.03416358       0.16520398      -0.64366568
C        0.31927062      -0.70829640       0.18184922
C       -0.25068989      -0.10385676       1.43363199
C       -1.13116723      -0.46644354       0.25821900
C       -1.91441955       0.44810255      -0.49640135
O       -1.53786340       1.64751209      -0.91259714
H        2.89190987      -0.71275219      -0.37364869
H        2.51406908       0.62510803       0.74000635
H        2.86376401       0.96182445      -0.97567888
H        0.71021340      -1.72572395       0.18117318
H       -0.35162336      -0.72431629       2.31602627
H        0.00381180       0.93273038       1.63509722
H       -1.82612801      -1.48799834      -0.42112519
H       -2.14583853      -1.19551680      -1.37133017
H       -2.99112114       0.34932909      -0.48480277
H       -0.58403209       1.73479269      -0.77982654
17
Frame=4 idx=010803 GeodesicLength=0.36618185269409287 rxn_smarts="[C:1]([O:2][C@@:3]1([H:11])[C:4]([H:12])([H:13])[C@:5]1([C:6]([O:7][H:17])([H:15])[H:16])[H:14])([H:8])([H:9])[H:10]>>[C:1]([O:2][C@@:3]1([H:11])[C:4]([H:12])([H:13])/[C:5]1=[C:6](/[O:7][H:17])[H:16])([H:8])([H:9])[H:10].[H:14][H:15]"
C        2.41281387       0.26910293      -0.26481747
O        1.05565432       0.17863365      -0.63805200
C        0.32986060      -0.70256120       0.16756787
C       -0.24848454      -0.11795207       1.42611045
C       -1.11957857      -0.46527113       0.24181820
C       -1.92590761       0.44630102      -0.48878491
O       -1.54877083       1.61428061      -0.99481958
H        2.90980972      -0.70315036      -0.35696478
H        2.51969306       0.62211668       0.76746981
H        2.88883250       0.97870488      -0.93971067
H        0.71795477      -1.72112167       0.15795988
H       -0.34591145      -0.75066621       2.30016358
H       -0.00366666       0.91821213       1.64069525
H       -1.84076127      -1.50492183      -0.42348003
H       -2.20485574      -1.17095463      -1.35542367
H       -3.00028763       0.39433091      -0.37264729
H       -0.59639453       1.71491630      -0.86708463
17
Frame=5 idx=010803 GeodesicLength=0.4573530174632455 rxn_smarts="[C:1]([O:2][C@@:3]1([H:11])[C:4]([H:12])([H:13])[C@:5]1([C:6]([O:7][H:17])([H:15])[H:16])[H:14])([H:8])([H:9])[H:10]>>[C:1]([O:2][C@@:3]1([H:11])[C:4]([H:12])([H:13])/[C:5]1=[C:6](/[O:7][H:17])[H:16])([H:8])([H:9])[H:10].[H:14][H:15]"
C        2.42923886       0.27895408      -0.24197613
O        1.07628752       0.19489355      -0.63091521
C        0.34028400      -0.69573055       0.15290399
C       -0.24635259      -0.13351961       1.41897010
C       -1.10829858      -0.46333400       0.22555929
C       -1.93602131       0.44550694      -0.48150378
O       -1.56324912       1.57667646      -1.07586449
H        2.92664237      -0.69238642      -0.34221858
H        2.52530237       0.61746214       0.79620353
H        2.91296260       0.99780704      -0.90141478
H        0.72557893      -1.71525700       0.13210675
H       -0.34020476      -0.77983566       2.28340889
H       -0.01117781       0.90152878       1.64857450
H       -1.85726126      -1.52128931      -0.42351834
H       -2.26586215      -1.14732329      -1.33372472
H       -2.99658947       0.44649288      -0.26505600
H       -0.61127961       1.68935397      -0.96153502
17
Frame=6 idx=010803 GeodesicLength=0.5480875715360003 rxn_smarts="[C:1]([O:2][C@@:3]1([H:11])[C:4]([H:12])([H:13])[C@:5]1([C:6]([O:7][H:17])([H:15])[H:16])[H:14])([H:8])([H:9])[H:10]>>[C:1]([O:2][C@@:3]1([H:11])[C:4]([H:12])([H:13])/[C:5]1=[C:6](/[O:7][H:17])[H:16])([H:8])([H:9])[H:10].[H:14][H:15]"
C        2.44448671       0.29033328      -0.21855807
O        1.09571026       0.21340445      -0.62234925
C        0.35042802      -0.68816107       0.13806779
C       -0.24428519      -0.15114627       1.41244784
C       -1.09749689      -0.46078497       0.20982627
C       -1.94444180       0.44594575      -0.47447043
O       -1.58031352       1.53485818      -1.15522122
H        2.94255928      -0.67962746      -0.32922537
H        2.53019843       0.61221625       0.82578332
H        2.93511511       1.01964308      -0.86120034
H        0.73312318      -1.70836102       0.10363605
H       -0.33435924      -0.81260056       2.26577011
H       -0.01846246       0.88191164       1.65923077
H       -1.87596596      -1.53697662      -0.42081375
H       -2.32844208      -1.12410173      -1.30590282
H       -2.98013673       0.50727464      -0.16410818
H       -0.62771713       1.65617244      -1.06291271
17
Frame=7 idx=010803 GeodesicLength=0.6386481644170611 rxn_smarts="[C:1]([O:2][C@@:3]1([H:11])[C:4]([H:12])([H:13])[C@:5]1([C:6]([O:7][H:17])([H:15])[H:16])[H:14])([H:8])([H:9])[H:10]>>[C:1]([O:2][C@@:3]1([H:11])[C:4]([H:12])([H:13])/[C:5]1=[C:6](/[O:7][H:17])[H:16])([H:8])([H:9])[H:10].[H:14][H:15]"
C        2.45862837       0.30312381      -0.19441686
O        1.11376822       0.23493435      -0.61192972
C        0.36032721      -0.67936187       0.12313089
C       -0.24230274      -0.17071874       1.40651251
C       -1.08708053      -0.45737858       0.19458035
C       -1.95121353       0.44789572      -0.46776827
O       -1.60063211       1.48960579      -1.23189820
H        2.95725904      -0.66505019      -0.31823502
H        2.53479121       0.60562132       0.85642553
H        2.95567461       1.04396427      -0.81865341
H        0.74058055      -1.69982538       0.07239992
H       -0.32855466      -0.84885762       2.24701743
H       -0.02564833       0.85930767       1.67285536
H       -1.89632409      -1.55168579      -0.41590801
H       -2.39217150      -1.10045373      -1.27212881
H       -2.95070010       0.57567825      -0.06966970
H       -0.64640163       1.61320071      -1.17231401
17
Frame=8 idx=010803 GeodesicLength=0.728684942997189 rxn_smarts="[C:1]([O:2][C@@:3]1([H:11])[C:4]([H:12])([H:13])[C@:5]1([C:6]([O:7][H:17])([H:15])[H:16])[H:14])([H:8])([H:9])[H:10]>>[C:1]([O:2][C@@:3]1([H:11])[C:4]([H:12])([H:13])/[C:5]1=[C:6](/[O:7][H:17])[H:16])([H:8])([H:9])[H:10].[H:14][H:15]"
C        2.47119640       0.31779293      -0.16983577
O        1.13001347       0.25900988      -0.59969868
C        0.36988099      -0.66965482       0.10840771
C       -0.24044111      -0.19279140       1.40140874
C       -1.07724115      -0.45329922       0.18029610
C       -1.95594526       0.45159881      -0.46141585
O       -1.62279378       1.44087087      -1.30593758
H        2.97081518      -0.64780781      -0.30946401
H        2.53856743       0.59850368       0.88761774
H        2.97356060       1.07134189      -0.77426946
H        0.74798080      -1.68979775       0.03850980
H       -0.32269051      -0.88930170       2.22713981
H       -0.03254229       0.83293683       1.68989462
H       -1.91869439      -1.56522487      -0.40854967
H       -2.45677441      -1.07562984      -1.23201687
H       -2.90813779       0.65288563       0.01568755
H       -0.66675417       1.55856688      -1.28777417
17
Frame=9 idx=010803 GeodesicLength=0.8184284934800077 rxn_smarts="[C:1]([O:2][C@@:3]1([H:11])[C:4]([H:12])([H:13])[C@:5]1([C:6]([O:7][H:17])([H:15])[H:16])[H:14])([H:8])([H:9])[H:10]>>[C:1]([O:2][C@@:3]1([H:11])[C:4]([H:12])([H:13])/[C:5]1=[C:6](/[O:7][H:17])[H:16])([H:8])([H:9])[H:10].[H:14][H:15]"
C        2.48206196       0.33446103      -0.14484120
O        1.14417637       0.28583638      -0.58553258
C        0.37909428      -0.65893347       0.09400602
C       -0.23873417      -0.21753489       1.39704094
C       -1.06796604      -0.44859588       0.16699000
C       -1.95845225       0.45730339      -0.45564290
O       -1.64642305       1.38870374      -1.37725767
H        2.98310943      -0.62767524      -0.30276780
H        2.54151178       0.59096409       0.91920382
H        2.98871226       1.10170102      -0.72810378
H        0.75538736      -1.67797604       0.00197428
H       -0.31687545      -0.93406504       2.20585586
H       -0.03923395       0.80242387       1.71036618
H       -1.94297194      -1.57734696      -0.39930457
H       -2.52228331      -1.04869230      -1.18528683
H       -2.85162530       0.73865201       0.09116465
H       -0.68948797       1.49077429      -1.40786439
17
Frame=10 idx=010803 GeodesicLength=0.9076145706912 rxn_smarts="[C:1]([O:2][C@@:3]1([H:11])[C:4]([H:12])([H:13])[C@:5]1([C:6]([O:7][H:17])([H:15])[H:16])[H:14])([H:8])([H:9])[H:10]>>[C:1]([O:2][C@@:3]1([H:11])[C:4]([H:12])([H:13])/[C:5]1=[C:6](/[O:7][H:17])[H:16])([H:8])([H:9])[H:10].[H:14][H:15]"
C        2.49081039       0.35328735      -0.11985072
O        1.15578613       0.31486005      -0.56957128
C        0.38787295      -0.64745918       0.08035000
C       -0.23728686      -0.24509190       1.39350743
C       -1.05939861      -0.44348492       0.15507661
C       -1.95842192       0.46510840      -0.45052359
O       -1.67023938       1.33327077      -1.44533381
H        2.99404003      -0.60419598      -0.29845078
H        2.54332530       0.58350312       0.95054832
H        3.00027277       1.13513857      -0.68083686
H        0.76275607      -1.66442439      -0.03668411
H       -0.31120723      -0.98312765       2.18314076
H       -0.04565387       0.76741521       1.73425942
H       -1.96922238      -1.58781683      -0.38873485
H       -2.58797840      -1.01861597      -1.13198309
H       -2.78086204       0.83258745       0.15412713
H       -0.71459293       1.40904591      -1.52904057
17
Frame=11 idx=010803 GeodesicLength=0.9964819319284725 rxn_smarts="[C:1]([O:2][C@@:3]1([H:11])[C:4]([H:12])([H:13])[C@:5]1([C:6]([O:7][H:17])([H:15])[H:16])[H:14])([H:8])([H:9])[H:10]>>[C:1]([O:2][C@@:3]1([H:11])[C:4]([H:12])([H:13])/[C:5]1=[C:6](/[O:7][H:17])[H:16])([H:8])([H:9])[H:10].[H:14][H:15]"
C        2.49725072       0.37405074      -0.09512986
O        1.16466527       0.34537571      -0.55227677
C        0.39617077      -0.63546787       0.06758405
C       -0.23609011      -0.27522208       1.39046314
C       -1.05151167      -0.43824492       0.14447851
C       -1.95583459       0.47491871      -0.44625047
O       -1.69398113       1.27484143      -1.50955417
H        3.00343720      -0.57767964      -0.29530647
H        2.54369065       0.57712044       0.98101150
H        3.00827684       1.17062962      -0.63350370
H        0.77000223      -1.64922474      -0.07670975
H       -0.30580608      -1.03572679       2.15883215
H       -0.05176319       0.72807119       1.76075330
H       -1.99738874      -1.59651210      -0.37806821
H       -2.65291812      -0.98461389      -1.07269436
H       -2.69523248       0.93258099       0.20344439
H       -0.74296756       1.31510321      -1.64707328
17
Frame=12 idx=010803 GeodesicLength=1.0850796519337549 rxn_smarts="[C:1]([O:2][C@@:3]1([H:11])[C:4]([H:12])([H:13])[C@:5]1([C:6]([O:7][H:17])([H:15])[H:16])[H:14])([H:8])([H:9])[H:10]>>[C:1]([O:2][C@@:3]1([H:11])[C:4]([H:12])([H:13])/[C:5]1=[C:6](/[O:7][H:17])[H:16])([H:8])([H:9])[H:10].[H:14][H:15]"
C        2.50138942       0.39641874      -0.07116700
O        1.17075771       0.37652841      -0.53404707
C        0.40393525      -0.62329383       0.05611936
C       -0.23531147      -0.30742295       1.38789179
C       -1.04441663      -0.43306390       0.13547774
C       -1.95087500       0.48649886      -0.44274100
O       -1.71714094       1.21396395      -1.56915716
H        3.01145132      -0.54833973      -0.29388285
H        2.54271390       0.57168391       1.01005947
H        3.01242486       1.20792279      -0.58677464
H        0.77704161      -1.63270102      -0.11709873
H       -0.30086280      -1.09091248       2.13317778
H       -0.05772190       0.68494990       1.78917995
H       -2.02766576      -1.60336302      -0.36780619
H       -2.71545961      -0.94624613      -1.00850550
H       -2.59572766       1.03605592       0.23680884
H       -0.77453232       1.21132058      -1.75753480
17
Frame=13 idx=010803 GeodesicLength=1.1736838110735899 rxn_smarts="[C:1]([O:2][C@@:3]1([H:11])[C:4]([H:12])([H:13])[C@:5]1([C:6]([O:7][H:17])([H:15])[H:16])[H:14])([H:8])([H:9])[H:10]>>[C:1]([O:2][C@@:3]1([H:11])[C:4]([H:12])([H:13])/[C:5]1=[C:6](/[O:7][H:17])[H:16])([H:8])([H:9])[H:10].[H:14][H:15]"
C        2.50346823       0.41961454      -0.04810398
O        1.17450544       0.40719693      -0.51569505
C        0.41119518      -0.61123279       0.04581185
C       -0.23477107      -0.34073288       1.38517369
C       -1.03792301      -0.42814762       0.12765677
C       -1.94403833       0.49939516      -0.43986058
O       -1.74070197       1.15154087      -1.62311394
H        3.01809517      -0.51744947      -0.29220771
H        2.54022816       0.56824038       1.03725345
H        3.01357574       1.24514770      -0.54187441
H        0.78371304      -1.61523739      -0.15678128
H       -0.29626209      -1.14683737       2.10624068
H       -0.06345325       0.63927433       1.81788696
H       -2.06034554      -1.60836916      -0.35833992
H       -2.77361272      -0.90377098      -0.94171586
H       -2.48378014       1.13814035       0.25424988
H       -0.80989282       1.10322739      -1.85658055
17
Frame=14 idx=010803 GeodesicLength=1.2628354606982932 rxn_smarts="[C:1]([O:2][C@@:3]1([H:11])[C:4]([H:12])([H:13])[C@:5]1([C:6]([O:7][H:17])([H:15])[H:16])[H:14])([H:8])([H:9])[H:10]>>[C:1]([O:2][C@@:3]1([H:11])[C:4]([H:12])([H:13])/[C:5]1=[C:6](/[O:7][H:17])[H:16])([H:8])([H:9])[H:10].[H:14][H:15]"
C        2.50389528       0.44342976      -0.02585079
O        1.17631519       0.43724876      -0.49721950
C        0.41804220      -0.59933786       0.03666775
C       -0.23452899      -0.37472348       1.38219561
C       -1.03197122      -0.42346917       0.12092958
C       -1.93562912       0.51354436      -0.43724891
O       -1.76480467       1.08849871      -1.67089466
H        3.02376614      -0.48506234      -0.29113603
H        2.53668729       0.56577984       1.06290395
H        3.01195653       1.28268778      -0.49811393
H        0.79004766      -1.59696085      -0.19556919
H       -0.29205253      -1.20295318       2.07804063
H       -0.06927316       0.59163924       1.84638681
H       -2.09594329      -1.61133137      -0.34915640
H       -2.82666828      -0.85714251      -0.87330047
H       -2.36079879       1.23638493       0.25524966
H       -0.84904024       0.99176739      -1.94388412
17
Frame=15 idx=010803 GeodesicLength=1.3528926528306429 rxn_smarts="[C:1]([O:2][C@@:3]1([H:11])[C:4]([H:12])([H:13])[C@:5]1([C:6]([O:7][H:17])([H:15])[H:16])[H:14])([H:8])([H:9])[H:10]>>[C:1]([O:2][C@@:3]1([H:11])[C:4]([H:12])([H:13])/[C:5]1=[C:6](/[O:7][H:17])[H:16])([H:8])([H:9])[H:10].[H:14][H:15]"
C        2.50319169       0.46724331      -0.00422265
O        1.17699030       0.46598376      -0.47928329
C        0.42469596      -0.58779299       0.02823439
C       -0.23432493      -0.40856984       1.37834960
C       -1.02624595      -0.41914374       0.11464567
C       -1.92603467       0.52872376      -0.43462665
O       -1.79047703       1.02641703      -1.71175210
H        3.02880777      -0.45242343      -0.28864325
H        2.53198557       0.56523979       1.08709905
H        3.00878422       1.31906835      -0.45618757
H        0.79618931      -1.57828103      -0.23293686
H       -0.28797415      -1.25782012       2.04866006
H       -0.07519566       0.54327187       1.87326248
H       -2.13480588      -1.61220588      -0.33958004
H       -2.87355339      -0.80695785      -0.80551405
H       -2.22960591       1.32608199       0.24130048
H       -0.89242724       0.88116502      -2.01880527
17
Frame=16 idx=010803 GeodesicLength=1.4441771211284327 rxn_smarts="[C:1]([O:2][C@@:3]1([H:11])[C:4]([H:12])([H:13])[C@:5]1([C:6]([O:7][H:17])([H:15])[H:16])[H:14])([H:8])([H:9])[H:10]>>[C:1]([O:2][C@@:3]1([H:11])[C:4]([H:12])([H:13])/[C:5]1=[C:6](/[O:7][H:17])[H:16])([H:8])([H:9])[H:10].[H:14][H:15]"
C        2.50191870       0.49078502       0.01698116
O        1.17707454       0.49360839      -0.46165648
C        0.43134896      -0.57642752       0.02039893
C       -0.23409777      -0.44177573       1.37351762
C       -1.02056286      -0.41503816       0.10855443
C       -1.91531870       0.54491733      -0.43189090
O       -1.81761756       0.96631735      -1.74571389
H        3.03359480      -0.41967228      -0.28560527
H        2.52679297       0.56532253       1.11024543
H        3.00459819       1.35453056      -0.41516175
H        0.80228921      -1.55911984      -0.26891657
H       -0.28392002      -1.31088677       2.01813797
H       -0.08153175       0.49491149       1.89813818
H       -2.17709585      -1.61080757      -0.32858241
H       -2.91418322      -0.75352619      -0.73932780
H       -2.09333648       1.40479893       0.21310289
H       -0.93995313       0.77206247      -2.08222154
