14
Frame=0 idx=009497 GeodesicLength=0.0 rxn_smarts="[C:1]([N:2]([c:3]1[n:4][n:5]([H:12])[c:6]([H:13])[c:7]1[H:14])[H:11])([H:8])([H:9])[H:10]>>[C:1]([N:2]([C:3]1=[C:7]([H:14])[C:6]([H:12])([H:13])[N:5]=[N:4]1)[H:11])([H:8])([H:9])[H:10]"
C        2.18047603       0.03805014       0.27605017
N        1.19163124       0.25702088      -0.74975877
C       -0.13654880       0.18580805      -0.44708932
N       -1.04359227       0.70707271      -1.30442127
N       -2.25021317       0.54635985      -0.80549826
C       -2.11823214      -0.21074333       0.39397332
C       -0.75836720      -0.41983335       0.63875621
H        2.12239767      -0.98866499       0.64499508
H        3.17243809       0.17682322      -0.15045890
H        2.06741391       0.71687362       1.13072941
H        1.40519728       0.93285119      -1.46287910
H       -2.55043438      -0.72012384      -0.69510518
H       -2.96794940      -0.28453574       1.05871724
H       -0.31421688      -0.93695842       1.47198934
14
Frame=1 idx=009497 GeodesicLength=0.03639079522250244 rxn_smarts="[C:1]([N:2]([c:3]1[n:4][n:5]([H:12])[c:6]([H:13])[c:7]1[H:14])[H:11])([H:8])([H:9])[H:10]>>[C:1]([N:2]([C:3]1=[C:7]([H:14])[C:6]([H:12])([H:13])[N:5]=[N:4]1)[H:11])([H:8])([H:9])[H:10]"
C        2.18149751       0.04259510       0.27820810
N        1.19447766       0.25186077      -0.75143910
C       -0.13411665       0.17624536      -0.44992802
N       -1.04173660       0.70842147      -1.30219946
N       -2.24524550       0.54955577      -0.79928382
C       -2.11797519      -0.21826219       0.39154117
C       -0.75681540      -0.43596456       0.63081736
H        2.12775419      -0.98285686       0.65128190
H        3.17399407       0.18467308      -0.14604349
H        2.06249931       0.72449406       1.12969382
H        1.40634688       0.92789772      -1.46490852
H       -2.57796807      -0.71242247      -0.70422070
H       -2.96033674      -0.27083770       1.06781042
H       -0.31237547      -0.94539954       1.46867033
14
Frame=2 idx=009497 GeodesicLength=0.0727901997535423 rxn_smarts="[C:1]([N:2]([c:3]1[n:4][n:5]([H:12])[c:6]([H:13])[c:7]1[H:14])[H:11])([H:8])([H:9])[H:10]>>[C:1]([N:2]([C:3]1=[C:7]([H:14])[C:6]([H:12])([H:13])[N:5]=[N:4]1)[H:11])([H:8])([H:9])[H:10]"
C        2.18240194       0.04721592       0.28045564
N        1.19737510       0.24670861      -0.75309674
C       -0.13164879       0.16660065      -0.45288866
N       -1.03981637       0.70937768      -1.30016939
N       -2.24016871       0.55237188      -0.79319747
C       -2.11769539      -0.22583937       0.38905077
C       -0.75525571      -0.45210655       0.62273029
H        2.13297933      -0.97693329       0.65766811
H        3.17544905       0.19266209      -0.14144022
H        2.05732022       0.73214469       1.12870016
H        1.40755839       0.92294580      -1.46691527
H       -2.60606575      -0.70383506      -0.71285649
H       -2.95186603      -0.25719165       1.07697290
H       -0.31056727      -0.95412140       1.46498638
14
Frame=3 idx=009497 GeodesicLength=0.10921048704173279 rxn_smarts="[C:1]([N:2]([c:3]1[n:4][n:5]([H:12])[c:6]([H:13])[c:7]1[H:14])[H:11])([H:8])([H:9])[H:10]>>[C:1]([N:2]([C:3]1=[C:7]([H:14])[C:6]([H:12])([H:13])[N:5]=[N:4]1)[H:11])([H:8])([H:9])[H:10]"
C        2.18311905       0.05211777       0.28291591
N        1.20040976       0.24137505      -0.75482106
C       -0.12909361       0.15622220      -0.45635923
N       -1.03776624       0.70963305      -1.29851876
N       -2.23484846       0.55506205      -0.78709832
C       -2.11730036      -0.23328019       0.38660264
C       -0.75363918      -0.46870283       0.61422076
H        2.13826564      -0.97068344       0.66431295
H        3.17676959       0.20133134      -0.13631340
H        2.05136790       0.74001144       1.12781046
H        1.40885949       0.91781342      -1.46899461
H       -2.63514813      -0.69386549      -0.72072178
H       -2.94225055      -0.24310172       1.08650583
H       -0.30874492      -0.96393264       1.46045861
14
Frame=4 idx=009497 GeodesicLength=0.14563846364992972 rxn_smarts="[C:1]([N:2]([c:3]1[n:4][n:5]([H:12])[c:6]([H:13])[c:7]1[H:14])[H:11])([H:8])([H:9])[H:10]>>[C:1]([N:2]([C:3]1=[C:7]([H:14])[C:6]([H:12])([H:13])[N:5]=[N:4]1)[H:11])([H:8])([H:9])[H:10]"
C        2.18371086       0.05705706       0.28545170
N        1.20348744       0.23614451      -0.75649656
C       -0.12650287       0.14589433      -0.45990681
N       -1.03567086       0.70933363      -1.29720935
N       -2.22944498       0.55718506      -0.78131219
C       -2.11688726      -0.24065442       0.38413796
C       -0.75201086      -0.48493964       0.60575403
H        2.14336409      -0.96438699       0.67095309
H        3.17797236       0.21010606      -0.13101621
H        2.04517760       0.74778230       1.12701372
H        1.41022356       0.91283102      -1.47097319
H       -2.66465995      -0.68310317      -0.72788014
H       -2.93180944      -0.22904922       1.09601510
H       -0.30694969      -0.97420053       1.45546884
14
Frame=5 idx=009497 GeodesicLength=0.18207490048094946 rxn_smarts="[C:1]([N:2]([c:3]1[n:4][n:5]([H:12])[c:6]([H:13])[c:7]1[H:14])[H:11])([H:8])([H:9])[H:10]>>[C:1]([N:2]([C:3]1=[C:7]([H:14])[C:6]([H:12])([H:13])[N:5]=[N:4]1)[H:11])([H:8])([H:9])[H:10]"
C        2.18425876       0.06183437       0.28794027
N        1.20653257       0.23121691      -0.75803115
C       -0.12391607       0.13623328      -0.46315489
N       -1.03360176       0.70870162      -1.29612192
N       -2.22411072       0.55844976      -0.77604856
C       -2.11655325      -0.24807642       0.38158215
C       -0.75040172      -0.50025810       0.59767753
H        2.14811105      -0.95826076       0.67739497
H        3.17910157       0.21849359      -0.12586498
H        2.03924069       0.75524016       1.12626714
H        1.41162213       0.90821418      -1.47272762
H       -2.69419251      -0.67202073      -0.73449318
H       -2.92088278      -0.21550912       1.10514010
H       -0.30520797      -0.98425873       1.45044013
14
Frame=6 idx=009497 GeodesicLength=0.2184830135623307 rxn_smarts="[C:1]([N:2]([c:3]1[n:4][n:5]([H:12])[c:6]([H:13])[c:7]1[H:14])[H:11])([H:8])([H:9])[H:10]>>[C:1]([N:2]([C:3]1=[C:7]([H:14])[C:6]([H:12])([H:13])[N:5]=[N:4]1)[H:11])([H:8])([H:9])[H:10]"
C        2.18483511       0.06632520       0.29030281
N        1.20950491       0.22671801      -0.75937624
C       -0.12135530       0.12759391      -0.46588159
N       -1.03160275       0.70788357      -1.29518989
N       -2.21894727       0.55869727      -0.77144277
C       -2.11635334      -0.25561075       0.37890558
C       -0.74882934      -0.51433670       0.59021121
H        2.15244031      -0.95245315       0.68350206
H        3.18021151       0.22620270      -0.12105598
H        2.03387800       0.76224726       1.12555807
H        1.41303572       0.90411649      -1.47417824
H       -2.72351834      -0.66094155      -0.74065073
H       -2.90975413      -0.20276066       1.11364221
H       -0.30354510      -0.99368161       1.44565350
14
Frame=7 idx=009497 GeodesicLength=0.2546034706421689 rxn_smarts="[C:1]([N:2]([c:3]1[n:4][n:5]([H:12])[c:6]([H:13])[c:7]1[H:14])[H:11])([H:8])([H:9])[H:10]>>[C:1]([N:2]([C:3]1=[C:7]([H:14])[C:6]([H:12])([H:13])[N:5]=[N:4]1)[H:11])([H:8])([H:9])[H:10]"
C        2.18570090       0.07001649       0.29219577
N        1.21217610       0.22307265      -0.76030652
C       -0.11896271       0.12153346      -0.46702782
N       -1.02988541       0.70772345      -1.29383206
N       -2.21438330       0.55732368      -0.76785861
C       -2.11653987      -0.26374158       0.37578455
C       -0.74737510      -0.52597068       0.58419018
H        2.15599429      -0.94749761       0.68885566
H        3.18147117       0.23189020      -0.11751003
H        2.03047964       0.76837571       1.12470174
H        1.41434432       0.90093507      -1.47509988
H       -2.75152179      -0.65103266      -0.74716515
H       -2.89941201      -0.19216523       1.12063373
H       -0.30208623      -1.00046295       1.44243844
14
Frame=8 idx=009497 GeodesicLength=0.2908469084735164 rxn_smarts="[C:1]([N:2]([c:3]1[n:4][n:5]([H:12])[c:6]([H:13])[c:7]1[H:14])[H:11])([H:8])([H:9])[H:10]>>[C:1]([N:2]([C:3]1=[C:7]([H:14])[C:6]([H:12])([H:13])[N:5]=[N:4]1)[H:11])([H:8])([H:9])[H:10]"
C        2.18656597       0.07367103       0.29411202
N        1.21489285       0.21961732      -0.76116323
C       -0.11652224       0.11563443      -0.46813536
N       -1.02815841       0.70705048      -1.29283915
N       -2.20984785       0.55533464      -0.76473828
C       -2.11675022      -0.27178526       0.37268445
C       -0.74587470      -0.53711302       0.57837635
H        2.15946927      -0.94262343       0.69405824
H        3.18272856       0.23757428      -0.11390455
H        2.02709086       0.77429531       1.12397341
H        1.41568784       0.89806827      -1.47582573
H       -2.77999004      -0.64056089      -0.75296571
H       -2.88868245      -0.18174345       1.12733203
H       -0.30060943      -1.00741971       1.43903551
14
Frame=9 idx=009497 GeodesicLength=0.32693790613837687 rxn_smarts="[C:1]([N:2]([c:3]1[n:4][n:5]([H:12])[c:6]([H:13])[c:7]1[H:14])[H:11])([H:8])([H:9])[H:10]>>[C:1]([N:2]([C:3]1=[C:7]([H:14])[C:6]([H:12])([H:13])[N:5]=[N:4]1)[H:11])([H:8])([H:9])[H:10]"
C        2.18770682       0.07673163       0.29567322
N        1.21740991       0.21683052      -0.76170605
C       -0.11418215       0.11162383      -0.46805290
N       -1.02662891       0.70678755      -1.29155769
N       -2.20578549       0.55203971      -0.76244612
C       -2.11727251      -0.28028364       0.36923597
C       -0.74443682      -0.54643455       0.57367332
H        2.16244626      -0.93840670       0.69865196
H        3.18416315       0.24177647      -0.11124833
H        2.02522636       0.77954022       1.12317039
H        1.41695370       0.89595910      -1.47611926
H       -2.80769561      -0.63083357      -0.75896243
H       -2.87863266      -0.17294004       1.13283462
H       -0.29927206      -1.01239054       1.43685330
14
Frame=10 idx=009497 GeodesicLength=0.36308315288999404 rxn_smarts="[C:1]([N:2]([c:3]1[n:4][n:5]([H:12])[c:6]([H:13])[c:7]1[H:14])[H:11])([H:8])([H:9])[H:10]>>[C:1]([N:2]([C:3]1=[C:7]([H:14])[C:6]([H:12])([H:13])[N:5]=[N:4]1)[H:11])([H:8])([H:9])[H:10]"
C        2.18886748       0.07977676       0.29726092
N        1.21996613       0.21419368      -0.76218533
C       -0.11179991       0.10771465      -0.46792216
N       -1.02509354       0.70606364      -1.29059534
N       -2.20175028       0.54819110      -0.76060444
C       -2.11779461      -0.28875354       0.36578221
C       -0.74293967      -0.55543727       0.56912591
H        2.16540190      -0.93424895       0.70313491
H        3.18561587       0.24600352      -0.10854464
H        2.02338638       0.78463890       1.12248469
H        1.41823566       0.89410727      -1.47625327
H       -2.83591685      -0.62042190      -0.76427421
H       -2.86826621      -0.16434826       1.13800810
H       -0.29791235      -1.01747960       1.43458265
14
Frame=11 idx=009497 GeodesicLength=0.399149999326723 rxn_smarts="[C:1]([N:2]([c:3]1[n:4][n:5]([H:12])[c:6]([H:13])[c:7]1[H:14])[H:11])([H:8])([H:9])[H:10]>>[C:1]([N:2]([C:3]1=[C:7]([H:14])[C:6]([H:12])([H:13])[N:5]=[N:4]1)[H:11])([H:8])([H:9])[H:10]"
C        2.19038078       0.08218987       0.29844465
N        1.22229266       0.21218648      -0.76234104
C       -0.10953729       0.10583063      -0.46646868
N       -1.02377510       0.70612253      -1.28908965
N       -2.19822590       0.54309895      -0.75951374
C       -2.11863437      -0.29782564       0.36192185
C       -0.74149925      -0.56263557       0.56573491
H        2.16788967      -0.93074821       0.70706267
H        3.18731364       0.24854334      -0.10693390
H        2.02330563       0.78914268       1.12162173
H        1.41942597       0.89287777      -1.47602333
H       -2.86333276      -0.61085223      -0.77002760
H       -2.85890157      -0.15773625       1.14182428
H       -0.29670211      -1.02019434       1.43378783
14
Frame=12 idx=009497 GeodesicLength=0.4351894797575294 rxn_smarts="[C:1]([N:2]([c:3]1[n:4][n:5]([H:12])[c:6]([H:13])[c:7]1[H:14])[H:11])([H:8])([H:9])[H:10]>>[C:1]([N:2]([C:3]1=[C:7]([H:14])[C:6]([H:12])([H:13])[N:5]=[N:4]1)[H:11])([H:8])([H:9])[H:10]"
C        2.19209912       0.08429589       0.29944252
N        1.22452634       0.21055502      -0.76230968
C       -0.10730974       0.10497138      -0.46433102
N       -1.02255275       0.70636458      -1.28744802
N       -2.19495839       0.53714252      -0.75902774
C       -2.11960506      -0.30721943       0.35785022
C       -0.74004735      -0.56887688       0.56296796
H        2.17017935      -0.92759482       0.71067169
H        3.18916231       0.25028098      -0.10585191
H        2.02412463       0.79330846       1.12073325
H        1.42057581       0.89207092      -1.47554936
H       -2.89067089      -0.60132904      -0.77566820
H       -2.84996370      -0.15218752       1.14480367
H       -0.29555968      -1.02178205       1.43371662
14
Frame=13 idx=009497 GeodesicLength=0.47121725302399475 rxn_smarts="[C:1]([N:2]([c:3]1[n:4][n:5]([H:12])[c:6]([H:13])[c:7]1[H:14])[H:11])([H:8])([H:9])[H:10]>>[C:1]([N:2]([C:3]1=[C:7]([H:14])[C:6]([H:12])([H:13])[N:5]=[N:4]1)[H:11])([H:8])([H:9])[H:10]"
C        2.19389840       0.08634213       0.30041778
N        1.22676500       0.20908234      -0.76219139
C       -0.10505778       0.10439417      -0.46198688
N       -1.02134396       0.70639202      -1.28592203
N       -2.19175668       0.53056958      -0.75897742
C       -2.12057757      -0.31675898       0.35367001
C       -0.73853877      -0.57480694       0.56039657
H        2.17244789      -0.92452336       0.71417724
H        3.19107728       0.25185356      -0.10486910
H        2.02519425       0.79736022       1.11989227
H        1.42172664       0.89146482      -1.47494593
H       -2.91842080      -0.59115238      -0.78080490
H       -2.84099283      -0.14711206       1.14733077
H       -0.29442108      -1.02310511       1.43381300
14
Frame=14 idx=009497 GeodesicLength=0.5072484331229177 rxn_smarts="[C:1]([N:2]([c:3]1[n:4][n:5]([H:12])[c:6]([H:13])[c:7]1[H:14])[H:11])([H:8])([H:9])[H:10]>>[C:1]([N:2]([C:3]1=[C:7]([H:14])[C:6]([H:12])([H:13])[N:5]=[N:4]1)[H:11])([H:8])([H:9])[H:10]"
C        2.19565246       0.08857334       0.30153515
N        1.22910921       0.20756950      -0.76208175
C       -0.10272344       0.10340550      -0.45989047
N       -1.02006852       0.70577721      -1.28480283
N       -2.18844998       0.52358756      -0.75924288
C       -2.12144585      -0.32626255       0.34948756
C       -0.73693739      -0.58103253       0.55761422
H        2.17485329      -0.92127832       0.71778966
H        3.19297412       0.25388766      -0.10356332
H        2.02587730       0.80151482       1.11918551
H        1.42292706       0.89085870      -1.47432482
H       -2.94703310      -0.57962157      -0.78499236
H       -2.83151154      -0.14190729       1.14977853
H       -0.29322360      -1.02507205       1.43350781
14
Frame=15 idx=009497 GeodesicLength=0.543284420277328 rxn_smarts="[C:1]([N:2]([c:3]1[n:4][n:5]([H:12])[c:6]([H:13])[c:7]1[H:14])[H:11])([H:8])([H:9])[H:10]>>[C:1]([N:2]([C:3]1=[C:7]([H:14])[C:6]([H:12])([H:13])[N:5]=[N:4]1)[H:11])([H:8])([H:9])[H:10]"
C        2.19728809       0.09111997       0.30288596
N        1.23161078       0.20591543      -0.76202688
C       -0.10027900       0.10165705      -0.45827700
N       -1.01868387       0.70428899      -1.28425424
N       -2.18495674       0.51625623      -0.75979850
C       -2.12216159      -0.33564691       0.34535697
C       -0.73522840      -0.58787653       0.55439772
H        2.17746212      -0.91771856       0.72163374
H        3.19480153       0.25670164      -0.10171185
H        2.02584058       0.80589711       1.11865471
H        1.42420261       0.89015130      -1.47373965
H       -2.97671597      -0.56630868      -0.78792800
H       -2.82124971      -0.13626659       1.15231670
H       -0.29193041      -1.02817046       1.43249031
14
Frame=16 idx=009497 GeodesicLength=0.5793099334467624 rxn_smarts="[C:1]([N:2]([c:3]1[n:4][n:5]([H:12])[c:6]([H:13])[c:7]1[H:14])[H:11])([H:8])([H:9])[H:10]>>[C:1]([N:2]([C:3]1=[C:7]([H:14])[C:6]([H:12])([H:13])[N:5]=[N:4]1)[H:11])([H:8])([H:9])[H:10]"
C        2.19902622       0.09357888       0.30419140
N        1.23409476       0.20445402      -0.76185580
C       -0.09782558       0.10036678      -0.45633631
N       -1.01732525       0.70270083      -1.28374747
N       -2.18157429       0.50811957      -0.76090813
C       -2.12290691      -0.34528922       0.34106234
C       -0.73347229      -0.59436859       0.55141105
H        2.18001377      -0.91426048       0.72536782
H        3.19670834       0.25923734      -0.10004052
H        2.02618965       0.81016828       1.11814426
H        1.42547877       0.88964156      -1.47302297
H       -3.00668800      -0.55226528      -0.79028198
H       -2.81107087      -0.13122249       1.15427938
H       -0.29064832      -1.03086120       1.43173693
