16
Frame=0 idx=009348 GeodesicLength=0.0 rxn_smarts="[C:1]([N:2]1[C@@:3]2([H:11])[C@@:4]3([H:12])[C:5]([H:13])([H:14])[C@:6]1([H:15])[C@@:7]23[H:16])([H:8])([H:9])[H:10]>>[C:1]([N+:2]12[C@@:3]3([H:11])[C@@:4]([H:12])([C:5]1([H:13])[H:14])[C@@:7]3([H:16])[C-:6]2[H:15])([H:8])([H:9])[H:10]"
C        1.95268981       0.40755699      -0.17015084
N        0.54842576       0.20840748      -0.02143890
C       -0.08837597      -0.82073012       0.79247038
C       -1.44992120      -0.18359792       0.73381448
C       -1.06215918       1.16448575       0.16727638
C       -0.31391827      -0.16931553      -1.25832880
C       -1.03445199      -1.14512802      -0.34904755
H        2.43236958       0.61491193       0.78858540
H        2.11609204       1.25114573      -0.84559067
H        2.41445653      -0.48196187      -0.62752263
H        0.36090415      -1.33739375       1.63107721
H       -2.24484459      -0.34748658       1.44842429
H       -0.66650153       1.88414278       0.88397665
H       -1.71815254       1.62691869      -0.56015638
H        0.31975061      -0.61530703      -2.03565465
H       -1.56636316      -2.05664852      -0.57773437
16
Frame=1 idx=009348 GeodesicLength=0.04763622372526296 rxn_smarts="[C:1]([N:2]1[C@@:3]2([H:11])[C@@:4]3([H:12])[C:5]([H:13])([H:14])[C@:6]1([H:15])[C@@:7]23[H:16])([H:8])([H:9])[H:10]>>[C:1]([N+:2]12[C@@:3]3([H:11])[C@@:4]([H:12])([C:5]1([H:13])[H:14])[C@@:7]3([H:16])[C-:6]2[H:15])([H:8])([H:9])[H:10]"
C        1.95205484       0.41792129      -0.16596885
N        0.55330915       0.18510051      -0.03018029
C       -0.09157841      -0.83642562       0.78668810
C       -1.44659998      -0.18230481       0.73711345
C       -1.04346695       1.15822221       0.16287285
C       -0.32159608      -0.17195730      -1.25913414
C       -1.04547533      -1.14761185      -0.34900753
H        2.40698060       0.65647698       0.79778788
H        2.10605525       1.25212057      -0.85492593
H        2.43673436      -0.47001908      -0.60034038
H        0.35845898      -1.35986893       1.62051384
H       -2.23914989      -0.33791053       1.45599964
H       -0.64192109       1.87865951       0.87580331
H       -1.70387129       1.62741834      -0.55675141
H        0.30549237      -0.61556422      -2.04258356
H       -1.58542653      -2.05425709      -0.57788697
16
Frame=2 idx=009348 GeodesicLength=0.09533210525785316 rxn_smarts="[C:1]([N:2]1[C@@:3]2([H:11])[C@@:4]3([H:12])[C:5]([H:13])([H:14])[C@:6]1([H:15])[C@@:7]23[H:16])([H:8])([H:9])[H:10]>>[C:1]([N+:2]12[C@@:3]3([H:11])[C@@:4]([H:12])([C:5]1([H:13])[H:14])[C@@:7]3([H:16])[C-:6]2[H:15])([H:8])([H:9])[H:10]"
C        1.95090100       0.42831291      -0.16157324
N        0.55839881       0.16164390      -0.03939445
C       -0.09461146      -0.85205503       0.78066389
C       -1.44280676      -0.18096440       0.74046869
C       -1.02456450       1.15177680       0.15843313
C       -0.32921089      -0.17453832      -1.26001729
C       -1.05641333      -1.14992948      -0.34893352
H        2.37969228       0.69791335       0.80620072
H        2.09643748       1.25230879      -0.86430345
H        2.45892194      -0.45722469      -0.57163589
H        0.35609569      -1.38246284       1.60956283
H       -2.23269675      -0.32830721       1.46381692
H       -0.61726256       1.87295184       0.86764341
H       -1.68923538       1.62791027      -0.55323378
H        0.29084302      -0.61574486      -2.04984049
H       -1.60448859      -2.05159104      -0.57785747
16
Frame=3 idx=009348 GeodesicLength=0.14311516180391856 rxn_smarts="[C:1]([N:2]1[C@@:3]2([H:11])[C@@:4]3([H:12])[C:5]([H:13])([H:14])[C@:6]1([H:15])[C@@:7]23[H:16])([H:8])([H:9])[H:10]>>[C:1]([N+:2]12[C@@:3]3([H:11])[C@@:4]([H:12])([C:5]1([H:13])[H:14])[C@@:7]3([H:16])[C-:6]2[H:15])([H:8])([H:9])[H:10]"
C        1.94920538       0.43867688      -0.15697827
N        0.56368733       0.13811299      -0.04906721
C       -0.09744725      -0.86757049       0.77439660
C       -1.43852497      -0.17958276       0.74388577
C       -1.00550235       1.14515572       0.15395880
C       -0.33673646      -0.17701856      -1.26095601
C       -1.06721421      -1.15205936      -0.34881888
H        2.35053239       0.73912604       0.81371141
H        2.08735365       1.25162218      -0.87372619
H        2.48087543      -0.44360227      -0.54131822
H        0.35383472      -1.40515624       1.59819379
H       -2.22545018      -0.31871033       1.47188577
H       -0.59263374       1.86705473       0.85950180
H       -1.67429807       1.62836594      -0.54960586
H        0.27580442      -0.61579149      -2.05741267
H       -1.62348608      -2.04862298      -0.57765062
16
Frame=4 idx=009348 GeodesicLength=0.1909373706363843 rxn_smarts="[C:1]([N:2]1[C@@:3]2([H:11])[C@@:4]3([H:12])[C:5]([H:13])([H:14])[C@:6]1([H:15])[C@@:7]23[H:16])([H:8])([H:9])[H:10]>>[C:1]([N+:2]12[C@@:3]3([H:11])[C@@:4]([H:12])([C:5]1([H:13])[H:14])[C@@:7]3([H:16])[C-:6]2[H:15])([H:8])([H:9])[H:10]"
C        1.94697668       0.44894210      -0.15221113
N        0.56915893       0.11464273      -0.05916703
C       -0.10005325      -0.88288320       0.76792152
C       -1.43376880      -0.17816603       0.74735931
C       -0.98637873       1.13838960       0.14942843
C       -0.34415128      -0.17934055      -1.26192559
C       -1.07780616      -1.15399182      -0.34864165
H        2.31967433       0.77972354       0.82025610
H        2.07895678       1.25005801      -0.88310325
H        2.50238771      -0.42916354      -0.50950992
H        0.35169298      -1.42781681       1.58647971
H       -2.21742668      -0.30918156       1.48018462
H       -0.56819830       1.86104838       0.85135590
H       -1.65918955       1.62875343      -0.54590771
H        0.26038451      -0.61561195      -2.06528334
H       -1.64225918      -2.04540234      -0.57723597
16
Frame=5 idx=009348 GeodesicLength=0.23882494001926294 rxn_smarts="[C:1]([N:2]1[C@@:3]2([H:11])[C@@:4]3([H:12])[C:5]([H:13])([H:14])[C@:6]1([H:15])[C@@:7]23[H:16])([H:8])([H:9])[H:10]>>[C:1]([N+:2]12[C@@:3]3([H:11])[C@@:4]([H:12])([C:5]1([H:13])[H:14])[C@@:7]3([H:16])[C-:6]2[H:15])([H:8])([H:9])[H:10]"
C        1.94422764       0.45905293      -0.14729494
N        0.57479688       0.09133924      -0.06966679
C       -0.10240464      -0.89794435       0.76124785
C       -1.42854411      -0.17673230       0.75089923
C       -0.96727055       1.13149374       0.14484823
C       -0.35143602      -0.18145379      -1.26290715
C       -1.08814813      -1.15571334      -0.34839787
H        2.28725511       0.81966060       0.82572327
H        2.07140683       1.24752398      -0.89246865
H        2.52329779      -0.41398781      -0.47610572
H        0.34970301      -1.45043939       1.57439171
H       -2.20862845      -0.29978542       1.48871961
H       -0.54407960       1.85498389       0.84321247
H       -1.64400366       1.62904362      -0.54214382
H        0.24459423      -0.61512714      -2.07343232
H       -1.66076634      -2.04191445      -0.57662511
16
Frame=6 idx=009348 GeodesicLength=0.28679462638870695 rxn_smarts="[C:1]([N:2]1[C@@:3]2([H:11])[C@@:4]3([H:12])[C:5]([H:13])([H:14])[C@:6]1([H:15])[C@@:7]23[H:16])([H:8])([H:9])[H:10]>>[C:1]([N+:2]12[C@@:3]3([H:11])[C@@:4]([H:12])([C:5]1([H:13])[H:14])[C@@:7]3([H:16])[C-:6]2[H:15])([H:8])([H:9])[H:10]"
C        1.94096519       0.46894989      -0.14226063
N        0.58057884       0.06830499      -0.08053028
C       -0.10447579      -0.91268944       0.75438489
C       -1.42286709      -0.17528444       0.75450498
C       -0.94827400       1.12448108       0.14021499
C       -0.35854915      -0.18332278      -1.26386827
C       -1.09817486      -1.15719949      -0.34807350
H        2.25341427       0.85868856       0.83004606
H        2.06482006       1.24397263      -0.90177352
H        2.54342495      -0.39809220      -0.44117731
H        0.34788327      -1.47294721       1.56192688
H       -2.19905314      -0.29054795       1.49750407
H       -0.52043122       1.84890786       0.83505252
H       -1.62884548       1.62919383      -0.53833423
H        0.22848719      -0.61427670      -2.08181268
H       -1.67890302      -2.03813864      -0.57580398
16
Frame=7 idx=009348 GeodesicLength=0.33483234504095877 rxn_smarts="[C:1]([N:2]1[C@@:3]2([H:11])[C@@:4]3([H:12])[C:5]([H:13])([H:14])[C@:6]1([H:15])[C@@:7]23[H:16])([H:8])([H:9])[H:10]>>[C:1]([N+:2]12[C@@:3]3([H:11])[C@@:4]([H:12])([C:5]1([H:13])[H:14])[C@@:7]3([H:16])[C-:6]2[H:15])([H:8])([H:9])[H:10]"
C        1.93721809       0.47857484      -0.13714033
N        0.58647168       0.04567194      -0.09169413
C       -0.10626114      -0.92705274       0.74737679
C       -1.41676003      -0.17384084       0.75815941
C       -0.92945887       1.11739000       0.13551757
C       -0.36547878      -0.18491727      -1.26477637
C       -1.10784566      -1.15847346      -0.34765451
H        2.21847027       0.89656427       0.83317037
H        2.05930004       1.23947836      -0.91089706
H        2.56251919      -0.38153710      -0.40489896
H        0.34622421      -1.49523462       1.54915998
H       -2.18874893      -0.28154600       1.50646451
H       -0.49735085       1.84291269       0.82685972
H       -1.61380215       1.62917992      -0.53451773
H        0.21207146      -0.61300653      -2.09036119
H       -1.69656853      -2.03416345      -0.57476805
16
Frame=8 idx=009348 GeodesicLength=0.3828878563725656 rxn_smarts="[C:1]([N:2]1[C@@:3]2([H:11])[C@@:4]3([H:12])[C:5]([H:13])([H:14])[C@:6]1([H:15])[C@@:7]23[H:16])([H:8])([H:9])[H:10]>>[C:1]([N+:2]12[C@@:3]3([H:11])[C@@:4]([H:12])([C:5]1([H:13])[H:14])[C@@:7]3([H:16])[C-:6]2[H:15])([H:8])([H:9])[H:10]"
C        1.93303780       0.48786643      -0.13197743
N        0.59244870       0.02354591      -0.10311299
C       -0.10774394      -0.94098433       0.74025790
C       -1.41027563      -0.17240527       0.76187034
C       -0.91094104       1.11025724       0.13076325
C       -0.37219505      -0.18620077      -1.26562205
C       -1.11711040      -1.15952888      -0.34713511
H        2.18268360       0.93310975       0.83506946
H        2.05495733       1.23402807      -0.91981478
H        2.58042944      -0.36442146      -0.36739469
H        0.34474942      -1.51723614       1.53613865
H       -2.17779077      -0.27281795       1.51560383
H       -0.47499348       1.83706332       0.81863912
H       -1.59901738       1.62899548      -0.53071189
H        0.19541745      -0.61125886      -2.09905222
H       -1.71365605      -2.03001254      -0.57352137
16
Frame=9 idx=009348 GeodesicLength=0.4309840936681945 rxn_smarts="[C:1]([N:2]1[C@@:3]2([H:11])[C@@:4]3([H:12])[C:5]([H:13])([H:14])[C@:6]1([H:15])[C@@:7]23[H:16])([H:8])([H:9])[H:10]>>[C:1]([N+:2]12[C@@:3]3([H:11])[C@@:4]([H:12])([C:5]1([H:13])[H:14])[C@@:7]3([H:16])[C-:6]2[H:15])([H:8])([H:9])[H:10]"
C        1.92845777       0.49678708      -0.12679949
N        0.59847599       0.00200271      -0.11473164
C       -0.10892399      -0.95444966       0.73305285
C       -1.40344083      -0.17098567       0.76562651
C       -0.89278292       1.10310274       0.12594889
C       -0.37867993      -0.18716562      -1.26637986
C       -1.12594295      -1.16037016      -0.34650844
H        2.14630335       0.96819548       0.83573895
H        2.05183327       1.22766308      -0.92845060
H        2.59699461      -0.34679666      -0.32882293
H        0.34345842      -1.53889578       1.52289038
H       -2.16620952      -0.26439316       1.52489188
H       -0.45343554       1.83140687       0.81037181
H       -1.58456316       1.62861501      -0.52694328
H        0.17857006      -0.60900971      -2.10781713
H       -1.73011463      -2.02570657      -0.57206788
16
Frame=10 idx=009348 GeodesicLength=0.47914255948266576 rxn_smarts="[C:1]([N:2]1[C@@:3]2([H:11])[C@@:4]3([H:12])[C:5]([H:13])([H:14])[C@:6]1([H:15])[C@@:7]23[H:16])([H:8])([H:9])[H:10]>>[C:1]([N+:2]12[C@@:3]3([H:11])[C@@:4]([H:12])([C:5]1([H:13])[H:14])[C@@:7]3([H:16])[C-:6]2[H:15])([H:8])([H:9])[H:10]"
C        1.92351936       0.50531597      -0.12163523
N        0.60452802      -0.01888462      -0.12650865
C       -0.10979945      -0.96743215       0.72577051
C       -1.39628828      -0.16959650       0.76942647
C       -0.87504652       1.09595008       0.12108931
C       -0.38492306      -0.18779760      -1.26703425
C       -1.13433182      -1.16100319      -0.34577836
H        2.10955468       1.00184653       0.83514028
H        2.05000223       1.22035690      -0.93680575
H        2.61207190      -0.32875187      -0.28920417
H        0.34236502      -1.56021013       1.50939662
H       -2.15404134      -0.25631048       1.53432164
H       -0.43273911       1.82598307       0.80206059
H       -1.57051662       1.62802951      -0.52320961
H        0.16156979      -0.60623438      -2.11660182
H       -1.74592480      -2.02126114      -0.57042758
16
Frame=11 idx=009348 GeodesicLength=0.5273654103631035 rxn_smarts="[C:1]([N:2]1[C@@:3]2([H:11])[C@@:4]3([H:12])[C:5]([H:13])([H:14])[C@:6]1([H:15])[C@@:7]23[H:16])([H:8])([H:9])[H:10]>>[C:1]([N+:2]12[C@@:3]3([H:11])[C@@:4]([H:12])([C:5]1([H:13])[H:14])[C@@:7]3([H:16])[C-:6]2[H:15])([H:8])([H:9])[H:10]"
C        1.91827139       0.51343629      -0.11651320
N        0.61058012      -0.03907688      -0.13839601
C       -0.11038479      -0.97992475       0.71843987
C       -1.38886126      -0.16824250       0.77326815
C       -0.85777933       1.08882129       0.11618704
C       -0.39090520      -0.18810667      -1.26757562
C       -1.14227046      -1.16144273      -0.34494027
H        2.07267740       1.03399712       0.83330070
H        2.04947077       1.21217807      -0.94481116
H        2.62556311      -0.31033012      -0.24873349
H        0.34145415      -1.58115275       1.49569498
H       -2.14134764      -0.24858239       1.54388004
H       -0.41295203       1.82083012       0.79369570
H       -1.55693010       1.62723416      -0.51953379
H        0.14448248      -0.60293562      -2.12535779
H       -1.76106862      -2.01670265      -0.56860514
16
Frame=12 idx=009348 GeodesicLength=0.5756869271499585 rxn_smarts="[C:1]([N:2]1[C@@:3]2([H:11])[C@@:4]3([H:12])[C:5]([H:13])([H:14])[C@:6]1([H:15])[C@@:7]23[H:16])([H:8])([H:9])[H:10]>>[C:1]([N+:2]12[C@@:3]3([H:11])[C@@:4]([H:12])([C:5]1([H:13])[H:14])[C@@:7]3([H:16])[C-:6]2[H:15])([H:8])([H:9])[H:10]"
C        1.91275039       0.52114490      -0.11145464
N        0.61660596      -0.05854181      -0.15035069
C       -0.11069742      -0.99192213       0.71107813
C       -1.38118862      -0.16693176       0.77713638
C       -0.84100319       1.08173006       0.11124310
C       -0.39661917      -0.18810664      -1.26798518
C       -1.14976017      -1.16170503      -0.34399055
H        2.03589430       1.06462511       0.83025344
H        2.05021977       1.20319721      -0.95239362
H        2.63735655      -0.29157714      -0.20758039
H        0.34070730      -1.60169345       1.48180404
H       -2.12816833      -0.24122405       1.55352970
H       -0.39408211       1.81596870       0.78526097
H       -1.54382567       1.62621747      -0.51593017
H        0.12734811      -0.59912067      -2.13401757
H       -1.77553770      -2.01206079      -0.56660294
16
Frame=13 idx=009348 GeodesicLength=0.6240383471040456 rxn_smarts="[C:1]([N:2]1[C@@:3]2([H:11])[C@@:4]3([H:12])[C:5]([H:13])([H:14])[C@:6]1([H:15])[C@@:7]23[H:16])([H:8])([H:9])[H:10]>>[C:1]([N+:2]12[C@@:3]3([H:11])[C@@:4]([H:12])([C:5]1([H:13])[H:14])[C@@:7]3([H:16])[C-:6]2[H:15])([H:8])([H:9])[H:10]"
C        1.90700789       0.52842567      -0.10648096
N        0.62259169      -0.07727153      -0.16232219
C       -0.11075543      -1.00341974       0.70373504
C       -1.37332378      -0.16564951       0.78102213
C       -0.82474941       1.07470395       0.10625094
C       -0.40204697      -0.18783030      -1.26826684
C       -1.15679613      -1.16181260      -0.34292392
H        1.99947393       1.09359146       0.82612815
H        2.05214265       1.19360446      -0.95941623
H        2.64740026      -0.27255638      -0.16612005
H        0.34010270      -1.62177232       1.46782758
H       -2.11460522      -0.23421304       1.56322889
H       -0.37615243       1.81143219       0.77674540
H       -1.53124056       1.62499010      -0.51244239
H        0.11024575      -0.59483608      -2.14254361
H       -1.78929495      -2.00738632      -0.56442193
16
Frame=14 idx=009348 GeodesicLength=0.6724048601105128 rxn_smarts="[C:1]([N:2]1[C@@:3]2([H:11])[C@@:4]3([H:12])[C:5]([H:13])([H:14])[C@:6]1([H:15])[C@@:7]23[H:16])([H:8])([H:9])[H:10]>>[C:1]([N+:2]12[C@@:3]3([H:11])[C@@:4]([H:12])([C:5]1([H:13])[H:14])[C@@:7]3([H:16])[C-:6]2[H:15])([H:8])([H:9])[H:10]"
C        1.90108421       0.53528056      -0.10160597
N        0.62852175      -0.09526996      -0.17426776
C       -0.11058666      -1.01441671       0.69644477
C       -1.36530700      -0.16438741       0.78490435
C       -0.80901745       1.06775551       0.10120226
C       -0.40717932      -0.18731393      -1.26841165
C       -1.16338718      -1.16178766      -0.34173316
H        1.96363974       1.12080954       0.82106695
H        2.05511023       1.18359200      -0.96575568
H        2.65566102      -0.25332623      -0.12469847
H        0.33960296      -1.64132852       1.45384541
H       -2.10073847      -0.22753070       1.57291732
H       -0.35914084       1.80722967       0.76812881
H       -1.51916929       1.62355010      -0.50910269
H        0.09323211      -0.59012867      -2.15087745
H       -1.80232582      -2.00272759      -0.56205703
16
Frame=15 idx=009348 GeodesicLength=0.720789206434225 rxn_smarts="[C:1]([N:2]1[C@@:3]2([H:11])[C@@:4]3([H:12])[C:5]([H:13])([H:14])[C@:6]1([H:15])[C@@:7]23[H:16])([H:8])([H:9])[H:10]>>[C:1]([N+:2]12[C@@:3]3([H:11])[C@@:4]([H:12])([C:5]1([H:13])[H:14])[C@@:7]3([H:16])[C-:6]2[H:15])([H:8])([H:9])[H:10]"
C        1.89501159       0.54172360      -0.09683679
N        0.63438514      -0.11255349      -0.18616294
C       -0.11021154      -1.02493363       0.68922208
C       -1.35716527      -0.16314329       0.78877567
C       -0.79380176       1.06089558       0.09610079
C       -0.41201645      -0.18658434      -1.26842360
C       -1.16955137      -1.16164751      -0.34042250
H        1.92852102       1.14634098       0.81516635
H        2.05903659       1.17325185      -0.97137963
H        2.66214352      -0.23395303      -0.08347818
H        0.33919036      -1.66036711       1.43988386
H       -2.08661027      -0.22116137       1.58257819
H       -0.34301831       1.80336428       0.75940825
H       -1.50760519       1.62190848      -0.50592109
H        0.07634406      -0.58503377      -2.15899103
H       -1.81465213      -1.99810722      -0.55951943
16
Frame=16 idx=009348 GeodesicLength=0.7692009529723566 rxn_smarts="[C:1]([N:2]1[C@@:3]2([H:11])[C@@:4]3([H:12])[C:5]([H:13])([H:14])[C@:6]1([H:15])[C@@:7]23[H:16])([H:8])([H:9])[H:10]>>[C:1]([N+:2]12[C@@:3]3([H:11])[C@@:4]([H:12])([C:5]1([H:13])[H:14])[C@@:7]3([H:16])[C-:6]2[H:15])([H:8])([H:9])[H:10]"
C        1.88881640       0.54776824      -0.09217668
N        0.64017639      -0.12915008      -0.19798251
C       -0.10965245      -1.03498759       0.68208084
C       -1.34892437      -0.16191082       0.79262762
C       -0.77908873       1.05412472       0.09095067
C       -0.41655360      -0.18567217      -1.26830000
C       -1.17530619      -1.16140154      -0.33899150
H        1.89422154       1.17024282       0.80852553
H        2.06381052       1.16268155      -0.97625133
H        2.66688289      -0.21448924      -0.04264243
H        0.33884149      -1.67889029       1.42596271
H       -2.07227023      -0.21508111       1.59218477
H       -0.32775131       1.79982133       0.75058008
H       -1.49652862       1.62006635      -0.50290511
H        0.05962613      -0.57959373      -2.16684747
H       -1.82629988      -1.99352843      -0.55681520
