12
Frame=0 idx=009788 GeodesicLength=0.0 rxn_smarts="[N:1]([c:2]1[c:3]([H:10])[c:4]([O:5][H:11])[c:6]([H:12])[o:7]1)([H:8])[H:9]>>[N:1]([C:2](=[C:3]=[C:4]([O:5][H:11])[C:6](=[O:7])[H:12])[H:10])([H:8])[H:9]"
N       -2.08531475      -0.39035019      -0.65183903
C       -0.83533959      -0.14571269      -0.08666274
C        0.36990451      -0.89198437      -0.26873844
C        1.34490509       0.10822030       0.06319724
O        2.67971508      -0.10791150       0.12310087
C        0.74133350       1.29651756       0.30685012
O       -0.59820899       1.20038423       0.20080840
H       -2.86734306      -0.21088092      -0.04183095
H       -2.12927524      -1.30700257      -1.06649002
H       -0.56884381      -0.77237307       0.90430931
H        2.81950128      -1.02988056      -0.11094410
H        1.12896595       2.25097381       0.62823931
12
Frame=1 idx=009788 GeodesicLength=0.11036665826475674 rxn_smarts="[N:1]([c:2]1[c:3]([H:10])[c:4]([O:5][H:11])[c:6]([H:12])[o:7]1)([H:8])[H:9]>>[N:1]([C:2](=[C:3]=[C:4]([O:5][H:11])[C:6](=[O:7])[H:12])[H:10])([H:8])[H:9]"
N       -2.09022820      -0.39338054      -0.65151114
C       -0.84372285      -0.15296964      -0.07952716
C        0.36519395      -0.88003750      -0.26833328
C        1.34378854       0.11386014       0.05522531
O        2.67817835      -0.10538198       0.12001902
C        0.74595568       1.30570251       0.31801603
O       -0.59144085       1.21559387       0.22433577
H       -2.87587167      -0.22348228      -0.04368150
H       -2.13270695      -1.30158409      -1.08425794
H       -0.56832352      -0.81151318       0.90525022
H        2.81622686      -1.03262964      -0.09273441
H        1.15295067       2.26582233       0.59719908
12
Frame=2 idx=009788 GeodesicLength=0.2207110847241262 rxn_smarts="[N:1]([c:2]1[c:3]([H:10])[c:4]([O:5][H:11])[c:6]([H:12])[o:7]1)([H:8])[H:9]>>[N:1]([C:2](=[C:3]=[C:4]([O:5][H:11])[C:6](=[O:7])[H:12])[H:10])([H:8])[H:9]"
N       -2.09506287      -0.39631109      -0.65102627
C       -0.85217072      -0.16042647      -0.07191898
C        0.36038257      -0.86787569      -0.26719445
C        1.34253525       0.11962744       0.04805343
O        2.67653908      -0.10282746       0.11677675
C        0.75105827       1.31516352       0.32962929
O       -0.58408047       1.23142471       0.24790714
H       -2.88438896      -0.23592874      -0.04565602
H       -2.13599838      -1.29557890      -1.10195744
H       -0.56754280      -0.85213749       0.90509210
H        2.81260197      -1.03491671      -0.07446780
H        1.17612706       2.27978688       0.56476225
12
Frame=3 idx=009788 GeodesicLength=0.33103930079456556 rxn_smarts="[N:1]([c:2]1[c:3]([H:10])[c:4]([O:5][H:11])[c:6]([H:12])[o:7]1)([H:8])[H:9]>>[N:1]([C:2](=[C:3]=[C:4]([O:5][H:11])[C:6](=[O:7])[H:12])[H:10])([H:8])[H:9]"
N       -2.09975974      -0.39934243      -0.65045105
C       -0.86072879      -0.16806276      -0.06378233
C        0.35539573      -0.85570513      -0.26458386
C        1.34112074       0.12537534       0.04205253
O        2.67475550      -0.10043499       0.11398373
C        0.75671339       1.32516316       0.34059272
O       -0.57607057       1.24817158       0.27062875
H       -2.89294322      -0.24811391      -0.04804646
H       -2.13901208      -1.28935100      -1.11930773
H       -0.56675974      -0.89369861       0.90420378
H        2.80880790      -1.03650080      -0.05763653
H        1.19848089       2.29249955       0.53234647
12
Frame=4 idx=009788 GeodesicLength=0.4413260125731247 rxn_smarts="[N:1]([c:2]1[c:3]([H:10])[c:4]([O:5][H:11])[c:6]([H:12])[o:7]1)([H:8])[H:9]>>[N:1]([C:2](=[C:3]=[C:4]([O:5][H:11])[C:6](=[O:7])[H:12])[H:10])([H:8])[H:9]"
N       -2.10435522      -0.40277491      -0.64976796
C       -0.86946469      -0.17583922      -0.05520032
C        0.35015549      -0.84364767      -0.26017703
C        1.33952297       0.13108061       0.03697280
O        2.67279891      -0.09820540       0.11154962
C        0.76291826       1.33603732       0.34942461
O       -0.56742229       1.26621668       0.29130498
H       -2.90158709      -0.26000514      -0.05092842
H       -2.14174325      -1.28345958      -1.13582904
H       -0.56604080      -0.93564567       0.90281460
H        2.80489555      -1.03745349      -0.04258415
H        1.22032216       2.30369646       0.50242032
12
Frame=5 idx=009788 GeodesicLength=0.551627605205189 rxn_smarts="[N:1]([c:2]1[c:3]([H:10])[c:4]([O:5][H:11])[c:6]([H:12])[o:7]1)([H:8])[H:9]>>[N:1]([C:2](=[C:3]=[C:4]([O:5][H:11])[C:6](=[O:7])[H:12])[H:10])([H:8])[H:9]"
N       -2.10893708      -0.40643675      -0.64883822
C       -0.87841063      -0.18382201      -0.04602793
C        0.34466275      -0.83152445      -0.25447213
C        1.33773206       0.13679030       0.03273178
O        2.67067617      -0.09603068       0.10920293
C        0.76958583       1.34770688       0.35660321
O       -0.55818532       1.28547403       0.31066228
H       -2.91034159      -0.27188721      -0.05395588
H       -2.14425247      -1.27745490      -1.15194193
H       -0.56515697      -0.97871179       0.90041493
H        2.80076729      -1.03802331      -0.02819717
H        1.24185997       2.31391989       0.47381814
12
Frame=6 idx=009788 GeodesicLength=0.6618908258430115 rxn_smarts="[N:1]([c:2]1[c:3]([H:10])[c:4]([O:5][H:11])[c:6]([H:12])[o:7]1)([H:8])[H:9]>>[N:1]([C:2](=[C:3]=[C:4]([O:5][H:11])[C:6](=[O:7])[H:12])[H:10])([H:8])[H:9]"
N       -2.11348585      -0.41040001      -0.64765912
C       -0.88763316      -0.19203520      -0.03614950
C        0.33886504      -0.81936660      -0.24723908
C        1.33570400       0.14245804       0.02948007
O        2.66834014      -0.09395473       0.10718664
C        0.77665302       1.36019383       0.36209477
O       -0.54843044       1.30610790       0.32836269
H       -2.91924950      -0.28377394      -0.05722442
H       -2.14645057      -1.27144828      -1.16757024
H       -0.56420118      -1.02295670       0.89696038
H        2.79647988      -1.03817860      -0.01499267
H        1.26340862       2.32335427       0.44675047
12
Frame=7 idx=009788 GeodesicLength=0.7721662320845507 rxn_smarts="[N:1]([c:2]1[c:3]([H:10])[c:4]([O:5][H:11])[c:6]([H:12])[o:7]1)([H:8])[H:9]>>[N:1]([C:2](=[C:3]=[C:4]([O:5][H:11])[C:6](=[O:7])[H:12])[H:10])([H:8])[H:9]"
N       -2.11802154      -0.41453663      -0.64613715
C       -0.89715866      -0.20053738      -0.02537157
C        0.33275576      -0.80707589      -0.23858691
C        1.33342749       0.14810164       0.02733967
O        2.66577613      -0.09196409       0.10562959
C        0.78406615       1.37343831       0.36631208
O       -0.53815199       1.32810866       0.34482000
H       -2.92833037      -0.29583112      -0.06057924
H       -2.14830887      -1.26508657      -1.18298746
H       -0.56306211      -1.06887707       0.89204132
H        2.79200249      -1.03800391      -0.00267795
H        1.28500553       2.33226405       0.42019763
12
Frame=8 idx=009788 GeodesicLength=0.8824015994871539 rxn_smarts="[N:1]([c:2]1[c:3]([H:10])[c:4]([O:5][H:11])[c:6]([H:12])[o:7]1)([H:8])[H:9]>>[N:1]([C:2](=[C:3]=[C:4]([O:5][H:11])[C:6](=[O:7])[H:12])[H:10])([H:8])[H:9]"
N       -2.12254637      -0.41886340      -0.64419472
C       -0.90704656      -0.20937175      -0.01354640
C        0.32628089      -0.79462991      -0.22839754
C        1.33086817       0.15374092       0.02636051
O        2.66295946      -0.09002598       0.10450660
C        0.79181133       1.38746450       0.36930601
O       -0.52743536       1.35159087       0.35983793
H       -2.93760865      -0.30815062      -0.06397987
H       -2.14976420      -1.25830453      -1.19819529
H       -0.56172032      -1.11666694       0.88536723
H        2.78731242      -1.03754517       0.00879704
H        1.30688917       2.34076201       0.39413851
12
Frame=9 idx=009788 GeodesicLength=0.9926416883206465 rxn_smarts="[N:1]([c:2]1[c:3]([H:10])[c:4]([O:5][H:11])[c:6]([H:12])[o:7]1)([H:8])[H:9]>>[N:1]([C:2](=[C:3]=[C:4]([O:5][H:11])[C:6](=[O:7])[H:12])[H:10])([H:8])[H:9]"
N       -2.12709724      -0.42320281      -0.64161580
C       -0.91727496      -0.21861340      -0.00050137
C        0.31946085      -0.78189828      -0.21694627
C        1.32800945       0.15944474       0.02634397
O        2.65985715      -0.08810464       0.10353186
C        0.79981678       1.40222186       0.37121125
O       -0.51616720       1.37651473       0.37385943
H       -2.94704860      -0.32094323      -0.06705374
H       -2.15083190      -1.25056812      -1.21343105
H       -0.55983480      -1.16680878       0.87619126
H        2.78226630      -1.03694644       0.02063210
H        1.32884416       2.34890437       0.36777836
12
Frame=10 idx=009788 GeodesicLength=1.1028465837691532 rxn_smarts="[N:1]([c:2]1[c:3]([H:10])[c:4]([O:5][H:11])[c:6]([H:12])[o:7]1)([H:8])[H:9]>>[N:1]([C:2](=[C:3]=[C:4]([O:5][H:11])[C:6](=[O:7])[H:12])[H:10])([H:8])[H:9]"
N       -2.13159074      -0.42769611      -0.63845495
C       -0.92795463      -0.22830342       0.01400154
C        0.31219836      -0.76899671      -0.20346654
C        1.32480210       0.16514331       0.02782413
O        2.65642474      -0.08625364       0.10335865
C        0.80809729       1.41776575       0.37204900
O       -0.50448736       1.40313161       0.38622587
H       -2.95671812      -0.33417400      -0.07014629
H       -2.15128965      -1.24208785      -1.22853276
H       -0.55770004      -1.21915851       0.86452934
H        2.77699943      -1.03607845       0.03126720
H        1.35121861       2.35670802       0.34134482
12
Frame=11 idx=009788 GeodesicLength=1.2130331713555853 rxn_smarts="[N:1]([c:2]1[c:3]([H:10])[c:4]([O:5][H:11])[c:6]([H:12])[o:7]1)([H:8])[H:9]>>[N:1]([C:2](=[C:3]=[C:4]([O:5][H:11])[C:6](=[O:7])[H:12])[H:10])([H:8])[H:9]"
N       -2.13602755      -0.43225393      -0.63454145
C       -0.93911647      -0.23852900       0.03020348
C        0.30447479      -0.75589646      -0.18780799
C        1.32121318       0.17086582       0.03080200
O        2.65262899      -0.08445640       0.10389053
C        0.81660438       1.43409703       0.37179891
O       -0.49236338       1.43146902       0.39701325
H       -2.96662226      -0.34804381      -0.07307735
H       -2.15102856      -1.23245288      -1.24364591
H       -0.55514487      -1.27394627       0.84977158
H        2.77143715      -1.03503486       0.04117838
H        1.37394460       2.36418175       0.31441455
12
Frame=12 idx=009788 GeodesicLength=1.3231927843802143 rxn_smarts="[N:1]([c:2]1[c:3]([H:10])[c:4]([O:5][H:11])[c:6]([H:12])[o:7]1)([H:8])[H:9]>>[N:1]([C:2](=[C:3]=[C:4]([O:5][H:11])[C:6](=[O:7])[H:12])[H:10])([H:8])[H:9]"
N       -2.14034590      -0.43690275      -0.62980861
C       -0.95084131      -0.24937798       0.04837129
C        0.29621964      -0.74264465      -0.16942572
C        1.31719353       0.17661114       0.03551302
O        2.64842649      -0.08269570       0.10526585
C        0.82532759       1.45122743       0.37043998
O       -0.47985426       1.46163160       0.40597974
H       -2.97677201      -0.36261377      -0.07596009
H       -2.14986058      -1.22155494      -1.25870939
H       -0.55221200      -1.33116009       0.83147704
H        2.76557484      -1.03380775       0.04996428
H        1.39714398       2.37128746       0.28689261
12
Frame=13 idx=009788 GeodesicLength=1.4332880360320974 rxn_smarts="[N:1]([c:2]1[c:3]([H:10])[c:4]([O:5][H:11])[c:6]([H:12])[o:7]1)([H:8])[H:9]>>[N:1]([C:2](=[C:3]=[C:4]([O:5][H:11])[C:6](=[O:7])[H:12])[H:10])([H:8])[H:9]"
N       -2.14451331      -0.44142973      -0.62397902
C       -0.96311487      -0.26101657       0.06879486
C        0.28744193      -0.72921789      -0.14820188
C        1.31267393       0.18240462       0.04177690
O        2.64372622      -0.08096825       0.10711984
C        0.83418281       1.46909562       0.36782060
O       -0.46688616       1.49343700       0.41379467
H       -2.98709014      -0.37820512      -0.07845848
H       -2.14759974      -1.20853945      -1.27400597
H       -0.54851435      -1.39099508       0.80859007
H        2.75921528      -1.03252879       0.05894649
H        1.42047837       2.37796363       0.25780192
12
Frame=14 idx=009788 GeodesicLength=1.5433513762575177 rxn_smarts="[N:1]([c:2]1[c:3]([H:10])[c:4]([O:5][H:11])[c:6]([H:12])[o:7]1)([H:8])[H:9]>>[N:1]([C:2](=[C:3]=[C:4]([O:5][H:11])[C:6](=[O:7])[H:12])[H:10])([H:8])[H:9]"
N       -2.14841273      -0.44598660      -0.61711538
C       -0.97610465      -0.27354090       0.09179565
C        0.27803037      -0.71578805      -0.12294976
C        1.30758930       0.18821423       0.04996410
O        2.63849647      -0.07926540       0.10957771
C        0.84316443       1.48769052       0.36389520
O       -0.45355433       1.52704874       0.41988167
H       -2.99763877      -0.39481687      -0.08104635
H       -2.14387063      -1.19353516      -1.28932668
H       -0.54430810      -1.45297060       0.78093778
H        2.75242999      -1.03113689       0.06687850
H        1.44417866       2.38408700       0.22750757
12
Frame=15 idx=009788 GeodesicLength=1.6533699041234406 rxn_smarts="[N:1]([c:2]1[c:3]([H:10])[c:4]([O:5][H:11])[c:6]([H:12])[o:7]1)([H:8])[H:9]>>[N:1]([C:2](=[C:3]=[C:4]([O:5][H:11])[C:6](=[O:7])[H:12])[H:10])([H:8])[H:9]"
N       -2.15189010      -0.45044670      -0.60912042
C       -0.98991900      -0.28714183       0.11780812
C        0.26792598      -0.70246710      -0.09267919
C        1.30182814       0.19400398       0.06016937
O        2.63263194      -0.07760262       0.11223231
C        0.85219771       1.50690797       0.35852549
O       -0.43983501       1.56227514       0.42491056
H       -3.00837268      -0.41274527      -0.08391711
H       -2.13812955      -1.17579099      -1.30490148
H       -0.53946666      -1.51678183       0.74781103
H        2.74508087      -1.02970575       0.07407552
H        1.46794835       2.38949501       0.19508580
12
Frame=16 idx=009788 GeodesicLength=1.7632647647986481 rxn_smarts="[N:1]([c:2]1[c:3]([H:10])[c:4]([O:5][H:11])[c:6]([H:12])[o:7]1)([H:8])[H:9]>>[N:1]([C:2](=[C:3]=[C:4]([O:5][H:11])[C:6](=[O:7])[H:12])[H:10])([H:8])[H:9]"
N       -2.15461030      -0.45496591      -0.60016173
C       -1.00478743      -0.30187243       0.14722821
C        0.25698218      -0.68940721      -0.05559918
C        1.29517531       0.19975228       0.07229888
O        2.62589723      -0.07603974       0.11413779
C        0.86115788       1.52655617       0.35172921
O       -0.42578591       1.59918943       0.42858945
H       -3.01919835      -0.43199785      -0.08789861
H       -2.12947026      -1.15541979      -1.32047516
H       -0.53408131      -1.58134266       0.70928338
H        2.73692876      -1.02829917       0.07969121
H        1.49179222       2.39384689       0.16117655
