16
Frame=0 idx=009729 GeodesicLength=0.0 rxn_smarts="[C:1]([C@@:2]1([O:3][H:11])[C:4]([H:12])([H:13])[N:5]2[C:6]([H:14])([H:15])[C@@:7]12[H:16])([H:8])([H:9])[H:10]>>[C:1]([C@@:2]1([O:3][H:11])[C:4]([H:12])([H:13])[N+:5]([C-:6]([H:14])[H:15])=[C:7]1[H:16])([H:8])([H:9])[H:10]"
C        1.30763727      -1.12003668       0.02753654
C        0.79456001       0.30667858      -0.00722757
O        1.91365916       1.14923969       0.04459317
C       -0.27086169       0.55260047      -1.14660045
N       -1.29563760       0.64127680      -0.07292377
C       -2.09865778      -0.39544087       0.39836107
C       -0.36464156       0.62376934       0.91242316
H        0.48547967      -1.83259664      -0.05167119
H        1.84060270      -1.29502432       0.96198131
H        1.99511313      -1.28591136      -0.80329531
H        1.61054696       2.05707631       0.12362695
H       -0.43412142      -0.25413316      -1.86159291
H       -0.14883766       1.50970521      -1.65547658
H       -1.65006474      -1.31200070       0.75451029
H       -3.17206540      -0.25776193       0.43444732
H       -0.51271108       0.91255929       1.94130796
16
Frame=1 idx=009729 GeodesicLength=0.039181642320225404 rxn_smarts="[C:1]([C@@:2]1([O:3][H:11])[C:4]([H:12])([H:13])[N:5]2[C:6]([H:14])([H:15])[C@@:7]12[H:16])([H:8])([H:9])[H:10]>>[C:1]([C@@:2]1([O:3][H:11])[C:4]([H:12])([H:13])[N+:5]([C-:6]([H:14])[H:15])=[C:7]1[H:16])([H:8])([H:9])[H:10]"
C        1.31819783      -1.12046934       0.02608159
C        0.79190481       0.30110708      -0.00654513
O        1.90463943       1.15352630       0.04367467
C       -0.27350899       0.54552775      -1.14379198
N       -1.29708180       0.65323701      -0.07161771
C       -2.09894467      -0.38099697       0.40164529
C       -0.36582667       0.61150365       0.91690667
H        0.50270064      -1.84077832      -0.05138883
H        1.85566651      -1.29126245       0.95878345
H        2.00567624      -1.27969676      -0.80613561
H        1.59375459       2.05811374       0.12946809
H       -0.44387491      -0.26428041      -1.85370518
H       -0.14686726       1.49769814      -1.66057705
H       -1.67260583      -1.31243356       0.74576229
H       -3.17144980      -0.23472928       0.42496102
H       -0.50238011       0.90393343       1.94647842
16
Frame=2 idx=009729 GeodesicLength=0.0783318195728046 rxn_smarts="[C:1]([C@@:2]1([O:3][H:11])[C:4]([H:12])([H:13])[N:5]2[C:6]([H:14])([H:15])[C@@:7]12[H:16])([H:8])([H:9])[H:10]>>[C:1]([C@@:2]1([O:3][H:11])[C:4]([H:12])([H:13])[N+:5]([C-:6]([H:14])[H:15])=[C:7]1[H:16])([H:8])([H:9])[H:10]"
C        1.32893723      -1.12078960       0.02457092
C        0.78928282       0.29545915      -0.00583616
O        1.89549425       1.15778647       0.04284799
C       -0.27619634       0.53832762      -1.14093641
N       -1.29823917       0.66505442      -0.07023929
C       -2.09925900      -0.36657490       0.40483673
C       -0.36709235       0.59905678       0.92129417
H        0.52028322      -1.84889526      -0.05124193
H        1.87082071      -1.28730592       0.95555157
H        2.01637434      -1.27323896      -0.80903488
H        1.57685198       2.05900833       0.13531631
H       -0.45362309      -0.27455445      -1.84566002
H       -0.14500157       1.48544977      -1.66564697
H       -1.69594542      -1.31227363       0.73707874
H       -3.17061019      -0.21141078       0.41560374
H       -0.49207743       0.89490093       1.95149549
16
Frame=3 idx=009729 GeodesicLength=0.11740795383731453 rxn_smarts="[C:1]([C@@:2]1([O:3][H:11])[C:4]([H:12])([H:13])[N:5]2[C:6]([H:14])([H:15])[C@@:7]12[H:16])([H:8])([H:9])[H:10]>>[C:1]([C@@:2]1([O:3][H:11])[C:4]([H:12])([H:13])[N+:5]([C-:6]([H:14])[H:15])=[C:7]1[H:16])([H:8])([H:9])[H:10]"
C        1.33982551      -1.12099796       0.02300575
C        0.78668968       0.28973666      -0.00510446
O        1.88623327       1.16199768       0.04212132
C       -0.27891390       0.53102028      -1.13804649
N       -1.29911777       0.67670466      -0.06881391
C       -2.09957237      -0.35221924       0.40792016
C       -0.36844871       0.58645612       0.92556618
H        0.53820370      -1.85694232      -0.05127772
H        1.88599486      -1.28317514       0.95230665
H        2.02719445      -1.26654578      -0.81197337
H        1.55986735       2.05974591       0.14116896
H       -0.46333896      -0.28492173      -1.83748833
H       -0.14323537       1.47299639      -1.67066898
H       -1.72001455      -1.31149752       0.72851966
H       -3.16952294      -0.18787257       0.40643546
H       -0.48184426       0.88551455       1.95632912
16
Frame=4 idx=009729 GeodesicLength=0.1563674714530347 rxn_smarts="[C:1]([C@@:2]1([O:3][H:11])[C:4]([H:12])([H:13])[N:5]2[C:6]([H:14])([H:15])[C@@:7]12[H:16])([H:8])([H:9])[H:10]>>[C:1]([C@@:2]1([O:3][H:11])[C:4]([H:12])([H:13])[N+:5]([C-:6]([H:14])[H:15])=[C:7]1[H:16])([H:8])([H:9])[H:10]"
C        1.35082722      -1.12109665       0.02138915
C        0.78412095       0.28394310      -0.00435505
O        1.87687088       1.16613633       0.04149917
C       -0.28165248       0.52363162      -1.13513548
N       -1.29972869       0.68816472      -0.06736962
C       -2.09985372      -0.33797847       0.41087910
C       -0.36990625       0.57373525       0.92970573
H        0.55642783      -1.86491134      -0.05154011
H        1.90111563      -1.27889557       0.94907319
H        2.03811787      -1.25962973      -0.81492944
H        1.54283548       2.06031365       0.14702007
H       -0.47299729      -0.29534112      -1.82922580
H       -0.14156197       1.46038230      -1.67562357
H       -1.74473316      -1.31009408       0.72015492
H       -3.16816203      -0.16419572       0.39750685
H       -0.47172025       0.87583571       1.96095090
16
Frame=5 idx=009729 GeodesicLength=0.19516730644102112 rxn_smarts="[C:1]([C@@:2]1([O:3][H:11])[C:4]([H:12])([H:13])[N:5]2[C:6]([H:14])([H:15])[C@@:7]12[H:16])([H:8])([H:9])[H:10]>>[C:1]([C@@:2]1([O:3][H:11])[C:4]([H:12])([H:13])[N+:5]([C-:6]([H:14])[H:15])=[C:7]1[H:16])([H:8])([H:9])[H:10]"
C        1.36191061      -1.12110230       0.01973157
C        0.78157222       0.27808347      -0.00358330
O        1.86742626       1.17018769       0.04098218
C       -0.28442409       0.51618972      -1.13220544
N       -1.30009850       0.69943591      -0.06590752
C       -2.10009972      -0.32386426       0.41374263
C       -0.37145025       0.56093736       0.93372274
H        0.57492182      -1.87281738      -0.05205440
H        1.91612771      -1.27450785       0.94588061
H        2.04911924      -1.25252605      -0.81788389
H        1.52579576       2.06071621       0.15285460
H       -0.48261431      -0.30578314      -1.82089268
H       -0.14000047       1.44765976      -1.68049155
H       -1.76997079      -1.30808209       0.71199043
H       -3.16651917      -0.14048994       0.38875937
H       -0.46169631       0.86596290       1.96535464
16
Frame=6 idx=009729 GeodesicLength=0.23383352278755193 rxn_smarts="[C:1]([C@@:2]1([O:3][H:11])[C:4]([H:12])([H:13])[N:5]2[C:6]([H:14])([H:15])[C@@:7]12[H:16])([H:8])([H:9])[H:10]>>[C:1]([C@@:2]1([O:3][H:11])[C:4]([H:12])([H:13])[N+:5]([C-:6]([H:14])[H:15])=[C:7]1[H:16])([H:8])([H:9])[H:10]"
C        1.37308242      -1.12096893       0.01802289
C        0.77903836       0.27214809      -0.00280584
O        1.85786726       1.17414135       0.04056423
C       -0.28718742       0.50865058      -1.12926746
N       -1.30019433       0.71046826      -0.06444884
C       -2.10028001      -0.30990027       0.41647155
C       -0.37312829       0.54801004       0.93756285
H        0.59371465      -1.88060498      -0.05281973
H        1.93102311      -1.26994535       0.94270304
H        2.06022191      -1.24516345      -0.82083047
H        1.50870118       2.06091463       0.15869451
H       -0.49211887      -0.31627489      -1.81248147
H       -0.13849870       1.43475871      -1.68528824
H       -1.79581277      -1.30538517       0.70400643
H       -3.16457963      -0.11660494       0.38040241
H       -0.45184888       0.85575632       1.96951414
16
Frame=7 idx=009729 GeodesicLength=0.2723607691871219 rxn_smarts="[C:1]([C@@:2]1([O:3][H:11])[C:4]([H:12])([H:13])[N:5]2[C:6]([H:14])([H:15])[C@@:7]12[H:16])([H:8])([H:9])[H:10]>>[C:1]([C@@:2]1([O:3][H:11])[C:4]([H:12])([H:13])[N+:5]([C-:6]([H:14])[H:15])=[C:7]1[H:16])([H:8])([H:9])[H:10]"
C        1.38434715      -1.12073764       0.01627603
C        0.77652683       0.26614361      -0.00201577
O        1.84822296       1.17801776       0.04026020
C       -0.28997022       0.50104399      -1.12634356
N       -1.30005575       0.72128967      -0.06302104
C       -2.10042400      -0.29609202       0.41904720
C       -0.37491426       0.53499396       0.94125175
H        0.61279927      -1.88832917      -0.05384503
H        1.94582876      -1.26526694       0.93957946
H        2.07142286      -1.23759481      -0.82376203
H        1.49158591       2.06096204       0.16455175
H       -0.50155905      -0.32681237      -1.80403541
H       -0.13709290       1.42174465      -1.69002835
H       -1.82219301      -1.30204320       0.69625174
H       -3.16237707      -0.09260232       0.37237607
H       -0.44214748       0.84528279       1.97345698
16
Frame=8 idx=009729 GeodesicLength=0.31074239822994426 rxn_smarts="[C:1]([C@@:2]1([O:3][H:11])[C:4]([H:12])([H:13])[N:5]2[C:6]([H:14])([H:15])[C@@:7]12[H:16])([H:8])([H:9])[H:10]>>[C:1]([C@@:2]1([O:3][H:11])[C:4]([H:12])([H:13])[N+:5]([C-:6]([H:14])[H:15])=[C:7]1[H:16])([H:8])([H:9])[H:10]"
C        1.39568144      -1.12038224       0.01448217
C        0.77403157       0.26006568      -0.00122305
O        1.83848268       1.18178228       0.04005523
C       -0.29274361       0.49336828      -1.12342611
N       -1.29968144       0.73187593      -0.06164000
C       -2.10051542      -0.28245889       0.42145043
C       -0.37682049       0.52189099       0.94477533
H        0.63216166      -1.89593962      -0.05514588
H        1.96049434      -1.26045346       0.93649273
H        2.08271095      -1.22979510      -0.82667462
H        1.47444677       2.06080784       0.17041726
H       -0.51088696      -0.33737500      -1.79554269
H       -0.13574468       1.40860417      -1.69468226
H       -1.84907751      -1.29801787       0.68878160
H       -3.15989974      -0.06850516       0.36472741
H       -0.43263954       0.83453218       1.97715244
16
Frame=9 idx=009729 GeodesicLength=0.3489236142815658 rxn_smarts="[C:1]([C@@:2]1([O:3][H:11])[C:4]([H:12])([H:13])[N:5]2[C:6]([H:14])([H:15])[C@@:7]12[H:16])([H:8])([H:9])[H:10]>>[C:1]([C@@:2]1([O:3][H:11])[C:4]([H:12])([H:13])[N+:5]([C-:6]([H:14])[H:15])=[C:7]1[H:16])([H:8])([H:9])[H:10]"
C        1.40703552      -1.11992145       0.01265798
C        0.77154282       0.25392353      -0.00042390
O        1.82866652       1.18542045       0.03994963
C       -0.29552051       0.48565537      -1.12052352
N       -1.29909606       0.74222534      -0.06029859
C       -2.10052569      -0.26902291       0.42373477
C       -0.37883288       0.50875819       0.94813212
H        0.65174639      -1.90344957      -0.05672600
H        1.97495164      -1.25553902       0.93347564
H        2.09403457      -1.22180720      -0.82954451
H        1.45732928       2.06045906       0.17628332
H       -0.52012013      -0.34792870      -1.78703763
H       -0.13447348       1.39539769      -1.69924393
H       -1.87630077      -1.29335165       0.68155887
H       -3.15712538      -0.04442861       0.35740320
H       -0.42331185       0.82360947       1.98060257
16
Frame=10 idx=009729 GeodesicLength=0.38694973297449314 rxn_smarts="[C:1]([C@@:2]1([O:3][H:11])[C:4]([H:12])([H:13])[N:5]2[C:6]([H:14])([H:15])[C@@:7]12[H:16])([H:8])([H:9])[H:10]>>[C:1]([C@@:2]1([O:3][H:11])[C:4]([H:12])([H:13])[N+:5]([C-:6]([H:14])[H:15])=[C:7]1[H:16])([H:8])([H:9])[H:10]"
C        1.41843570      -1.11934634       0.01080376
C        0.76906712       0.24771302       0.00037382
O        1.81877257       1.18894814       0.03994170
C       -0.29829492       0.47788338      -1.11765105
N       -1.29829435       0.75232606      -0.05902196
C       -2.10046007      -0.25579260       0.42585490
C       -0.38097622       0.49556217       0.95130870
H        0.67158205      -1.91085212      -0.05858098
H        1.98924311      -1.25051233       0.93053033
H        2.10542916      -1.21360488      -0.83236753
H        1.44021659       2.05993074       0.18216270
H       -0.52924915      -0.35850025      -1.77852700
H       -0.13326958       1.38209970      -1.70373379
H       -1.90394030      -1.28800472       0.67459239
H       -3.15407127      -0.02028247       0.35050060
H       -0.41419044       0.81243250       1.98381341
16
Frame=11 idx=009729 GeodesicLength=0.42485366494155796 rxn_smarts="[C:1]([C@@:2]1([O:3][H:11])[C:4]([H:12])([H:13])[N:5]2[C:6]([H:14])([H:15])[C@@:7]12[H:16])([H:8])([H:9])[H:10]>>[C:1]([C@@:2]1([O:3][H:11])[C:4]([H:12])([H:13])[N+:5]([C-:6]([H:14])[H:15])=[C:7]1[H:16])([H:8])([H:9])[H:10]"
C        1.42990339      -1.11864933       0.00891579
C        0.76660582       0.24142676       0.00116665
O        1.80878299       1.19237132       0.04003020
C       -0.30105873       0.47003008      -1.11481276
N       -1.29728040       0.76217900      -0.05782577
C       -2.10034642      -0.24274878       0.42778637
C       -0.38324816       0.48227947       0.95430427
H        0.69170490      -1.91814188      -0.06070620
H        2.00339956      -1.24535280       0.92764629
H        2.11691350      -1.20516863      -0.83514908
H        1.42307625       2.05921792       0.18807498
H       -0.53826605      -0.36912265      -1.77000064
H       -0.13211788       1.36867843      -1.70816689
H       -1.93202127      -1.28195465       0.66787783
H       -3.15076097       0.00401070       0.34406761
H       -0.40528654       0.80094504       1.98679133
16
Frame=12 idx=009729 GeodesicLength=0.46257251373259733 rxn_smarts="[C:1]([C@@:2]1([O:3][H:11])[C:4]([H:12])([H:13])[N:5]2[C:6]([H:14])([H:15])[C@@:7]12[H:16])([H:8])([H:9])[H:10]>>[C:1]([C@@:2]1([O:3][H:11])[C:4]([H:12])([H:13])[N+:5]([C-:6]([H:14])[H:15])=[C:7]1[H:16])([H:8])([H:9])[H:10]"
C        1.44137314      -1.11783809       0.00700774
C        0.76414956       0.23507484       0.00195496
O        1.79872410       1.19565872       0.04020176
C       -0.30381957       0.46213374      -1.11200545
N       -1.29607755       0.77178037      -0.05669579
C       -2.10014517      -0.22992455       0.42959091
C       -0.38563396       0.46897480       0.95711934
H        0.71203348      -1.92530473      -0.06310796
H        2.01733307      -1.24009136       0.92484884
H        2.12843086      -1.19653307      -0.83785726
H        1.40596894       2.05830804       0.19399140
H       -0.54718048      -0.37974273      -1.76148016
H       -0.13102867       1.35519545      -1.71251697
H       -1.96037356      -1.27523635       0.66139453
H       -3.14716828       0.02828710       0.33802373
H       -0.39658592       0.78925782       1.98953036
16
Frame=13 idx=009729 GeodesicLength=0.5001554825820174 rxn_smarts="[C:1]([C@@:2]1([O:3][H:11])[C:4]([H:12])([H:13])[N:5]2[C:6]([H:14])([H:15])[C@@:7]12[H:16])([H:8])([H:9])[H:10]>>[C:1]([C@@:2]1([O:3][H:11])[C:4]([H:12])([H:13])[N+:5]([C-:6]([H:14])[H:15])=[C:7]1[H:16])([H:8])([H:9])[H:10]"
C        1.45288051      -1.11691522       0.00507767
C        0.76170604       0.22865285       0.00273567
O        1.78858954       1.19883511       0.04045974
C       -0.30657557       0.45417566      -1.10924259
N       -1.29468944       0.78113431      -0.05565899
C       -2.09988395      -0.21731406       0.43121902
C       -0.38813978       0.45561680       0.95975793
H        0.73261129      -1.93235174      -0.06577296
H        2.03110494      -1.23472333       0.92213384
H        2.14001007      -1.18768583      -0.84050520
H        1.38886940       2.05722333       0.19993660
H       -0.55599534      -0.39039348      -1.75296960
H       -0.12999612       1.34162952      -1.71680769
H       -1.98906988      -1.26782949       0.65517111
H       -3.14332494       0.05263580       0.33241833
H       -0.38809678       0.77730977       1.99204711
16
Frame=14 idx=009729 GeodesicLength=0.5376519725778398 rxn_smarts="[C:1]([C@@:2]1([O:3][H:11])[C:4]([H:12])([H:13])[N:5]2[C:6]([H:14])([H:15])[C@@:7]12[H:16])([H:8])([H:9])[H:10]>>[C:1]([C@@:2]1([O:3][H:11])[C:4]([H:12])([H:13])[N+:5]([C-:6]([H:14])[H:15])=[C:7]1[H:16])([H:8])([H:9])[H:10]"
C        1.46443290      -1.11585120       0.00312020
C        0.75926551       0.22214759       0.00350391
O        1.77834476       1.20188281       0.04079704
C       -0.30931220       0.44611646      -1.10651637
N       -1.29310029       0.79021892      -0.05470457
C       -2.09956042      -0.20488343       0.43268939
C       -0.39078952       0.44216845       0.96219945
H        0.75346570      -1.93924153      -0.06868829
H        2.04472019      -1.22920235       0.91947534
H        2.15166034      -1.17858396      -0.84309235
H        1.37173070       2.05592408       0.20591937
H       -0.56469042      -0.40111067      -1.74443907
H       -0.12899634       1.32791413      -1.72104635
H       -2.01811389      -1.25967074       0.64912574
H       -3.13919818       0.07714299       0.32732730
H       -0.37985884       0.76502845       1.99432926
16
Frame=15 idx=009729 GeodesicLength=0.5750260146414051 rxn_smarts="[C:1]([C@@:2]1([O:3][H:11])[C:4]([H:12])([H:13])[N:5]2[C:6]([H:14])([H:15])[C@@:7]12[H:16])([H:8])([H:9])[H:10]>>[C:1]([C@@:2]1([O:3][H:11])[C:4]([H:12])([H:13])[N+:5]([C-:6]([H:14])[H:15])=[C:7]1[H:16])([H:8])([H:9])[H:10]"
C        1.47602689      -1.11467864       0.00115092
C        0.75683882       0.21557031       0.00426397
O        1.76802826       1.20482803       0.04121845
C       -0.31205290       0.43798553      -1.10384647
N       -1.29134426       0.79906000      -0.05385472
C       -2.09919148      -0.19266260       0.43398909
C       -0.39355542       0.42866378       0.96446322
H        0.77457641      -1.94601901      -0.07184275
H        2.05820161      -1.22357589       0.91690936
H        2.16336591      -1.16927115      -0.84561065
H        1.35460244       2.05446556       0.21194597
H       -0.57330732      -0.41188346      -1.73592641
H       -0.12805944       1.31411421      -1.72524776
H       -2.04746377      -1.25081628       0.64328440
H       -3.13483522       0.10174848       0.32269736
H       -0.37183053       0.75247112       1.99640600
16
Frame=16 idx=009729 GeodesicLength=0.6122918009458058 rxn_smarts="[C:1]([C@@:2]1([O:3][H:11])[C:4]([H:12])([H:13])[N:5]2[C:6]([H:14])([H:15])[C@@:7]12[H:16])([H:8])([H:9])[H:10]>>[C:1]([C@@:2]1([O:3][H:11])[C:4]([H:12])([H:13])[N+:5]([C-:6]([H:14])[H:15])=[C:7]1[H:16])([H:8])([H:9])[H:10]"
C        1.48761641      -1.11336554      -0.00084188
C        0.75440940       0.20891539       0.00500618
O        1.75761650       1.20761592       0.04170456
C       -0.31476316       0.42978170      -1.10121467
N       -1.28941403       0.80762706      -0.05310460
C       -2.09873997      -0.18066247       0.43512739
C       -0.39645573       0.41511158       0.96653407
H        0.79590685      -1.95260914      -0.07524304
H        2.07146590      -1.21781913       0.91440313
H        2.17509104      -1.15972366      -0.84805980
H        1.33747244       2.05277021       0.21800111
H       -0.58178855      -0.42267773      -1.72741289
H       -0.12713958       1.30020915      -1.72937029
H       -2.07702847      -1.24121481       0.63769815
H       -3.13018397       0.12639287       0.31852899
H       -0.36406509       0.73964861       1.99824359
