14
Frame=0 idx=000552 GeodesicLength=0.0 rxn_smarts="[C:1]([C:2]([C:3]#[C:4][C:5]([O:6][H:14])([H:12])[H:13])([H:10])[H:11])([H:7])([H:8])[H:9]>>[C:1]1([H:7])([H:8])[C:2]([H:10])([H:11])[C:3]1=[C:4]=[C:5]([O:6][H:14])[H:12].[H:9][H:13]"
C       -1.42961790       0.31454690       0.21016934
C       -1.59840547      -0.41854184      -1.12832978
C       -0.22085579      -0.52911663      -0.77798631
C        1.00029382      -0.70099753      -0.54888498
C        1.81688695      -0.31809232       0.50463255
O        2.77485840       0.63919542       0.36015139
H       -1.57959235       1.38553472       0.13932980
H       -1.96804277      -0.14852998       1.02907820
H       -0.15039723       0.43090859       1.09687694
H       -2.18606762      -1.33211395      -1.11159749
H       -1.83241505       0.21147073      -1.98175089
H        2.13384369      -1.06453092       1.22773470
H        0.71762298       0.31968466       1.35129761
H        2.52188840       1.21058213      -0.37072103
14
Frame=1 idx=000552 GeodesicLength=0.09986364847980604 rxn_smarts="[C:1]([C:2]([C:3]#[C:4][C:5]([O:6][H:14])([H:12])[H:13])([H:10])[H:11])([H:7])([H:8])[H:9]>>[C:1]1([H:7])([H:8])[C:2]([H:10])([H:11])[C:3]1=[C:4]=[C:5]([O:6][H:14])[H:12].[H:9][H:13]"
C       -1.44402796       0.32013214       0.20876291
C       -1.60373387      -0.42475946      -1.12405132
C       -0.22462109      -0.53002441      -0.77183954
C        0.99760829      -0.69138177      -0.54511385
C        1.83127924      -0.32461527       0.50026565
O        2.79552984       0.62891038       0.35860390
H       -1.59112474       1.39089911       0.12743200
H       -2.01280495      -0.12899158       1.01550356
H       -0.15999219       0.45113636       1.11687993
H       -2.18099917      -1.34499515      -1.10617543
H       -1.83202931       0.19399999      -1.98719378
H        2.16803032      -1.09613212       1.18827409
H        0.73195901       0.32891844       1.36242655
H        2.52492658       1.22690334      -0.34377466
14
Frame=2 idx=000552 GeodesicLength=0.19968415662105693 rxn_smarts="[C:1]([C:2]([C:3]#[C:4][C:5]([O:6][H:14])([H:12])[H:13])([H:10])[H:11])([H:7])([H:8])[H:9]>>[C:1]1([H:7])([H:8])[C:2]([H:10])([H:11])[C:3]1=[C:4]=[C:5]([O:6][H:14])[H:12].[H:9][H:13]"
C       -1.45898711       0.32531699       0.20763063
C       -1.60894371      -0.43112280      -1.11956601
C       -0.22841640      -0.53106264      -0.76498324
C        0.99481760      -0.68157454      -0.54047489
C        1.84586239      -0.33133258       0.49613255
O        2.81613025       0.61862914       0.35676355
H       -1.60305487       1.39578008       0.11565602
H       -2.05876076      -0.10926705       1.00047708
H       -0.17020038       0.47241238       1.13742916
H       -2.17576019      -1.35789651      -1.10064638
H       -1.83116590       0.17637699      -1.99223966
H        2.20278712      -1.12746728       1.14601635
H        0.74668884       0.33908087       1.37369558
H        2.52900312       1.24212694      -0.31589074
14
Frame=3 idx=000552 GeodesicLength=0.2994547950381081 rxn_smarts="[C:1]([C:2]([C:3]#[C:4][C:5]([O:6][H:14])([H:12])[H:13])([H:10])[H:11])([H:7])([H:8])[H:9]>>[C:1]1([H:7])([H:8])[C:2]([H:10])([H:11])[C:3]1=[C:4]=[C:5]([O:6][H:14])[H:12].[H:9][H:13]"
C       -1.47451748       0.33007647       0.20680198
C       -1.61400845      -0.43762407      -1.11486494
C       -0.23223330      -0.53224045      -0.75735278
C        0.99190947      -0.67164431      -0.53486145
C        1.86065773      -0.33831226       0.49226805
O        2.83662091       0.60836188       0.35465206
H       -1.61534691       1.40015747       0.10403821
H       -2.10589160      -0.08936916       0.98386992
H       -0.18106574       0.49480371       1.15854238
H       -2.17034417      -1.37080091      -1.09502566
H       -1.82974975       0.15863656      -1.99687273
H        2.23804163      -1.15837902       1.10081736
H        0.76185707       0.35015032       1.38515863
H        2.53407062       1.25618377      -0.28717103
14
Frame=4 idx=000552 GeodesicLength=0.39917392628451426 rxn_smarts="[C:1]([C:2]([C:3]#[C:4][C:5]([O:6][H:14])([H:12])[H:13])([H:10])[H:11])([H:7])([H:8])[H:9]>>[C:1]1([H:7])([H:8])[C:2]([H:10])([H:11])[C:3]1=[C:4]=[C:5]([O:6][H:14])[H:12].[H:9][H:13]"
C       -1.49055803       0.33445477       0.20627269
C       -1.61886942      -0.44423226      -1.10994785
C       -0.23609207      -0.53386055      -0.74873302
C        0.98884989      -0.66194018      -0.52804633
C        1.87573756      -0.34565715       0.48868666
O        2.85676458       0.59832843       0.35210865
H       -1.62760358       1.40411517       0.09251206
H       -2.15428405      -0.06902458       0.96545092
H       -0.19262319       0.51813354       1.18036892
H       -2.16493117      -1.38354820      -1.08934018
H       -1.82745413       0.14084065      -2.00114069
H        2.27403171      -1.18860367       1.05248934
H        0.77751368       0.36176239       1.39703310
H        2.53951822       1.26923163      -0.25771426
14
Frame=5 idx=000552 GeodesicLength=0.4988009598933294 rxn_smarts="[C:1]([C:2]([C:3]#[C:4][C:5]([O:6][H:14])([H:12])[H:13])([H:10])[H:11])([H:7])([H:8])[H:9]>>[C:1]1([H:7])([H:8])[C:2]([H:10])([H:11])[C:3]1=[C:4]=[C:5]([O:6][H:14])[H:12].[H:9][H:13]"
C       -1.50728486       0.33831175       0.20611529
C       -1.62357767      -0.45101972      -1.10475755
C       -0.23992280      -0.53529240      -0.73940184
C        0.98568730      -0.65190335      -0.52024121
C        1.89103787      -0.35340977       0.48537093
O        2.87697127       0.58804076       0.34953823
H       -1.64051178       1.40743243       0.08127682
H       -2.20357290      -0.04877136       0.94527835
H       -0.20491065       0.54304839       1.20256576
H       -2.15910610      -1.39646558      -1.08347915
H       -1.82479485       0.12288424      -2.00487155
H        2.30984820      -1.21812369       1.00097839
H        0.79372753       0.37443678       1.40904314
H        2.54640944       1.28083154      -0.22741563
14
Frame=6 idx=000552 GeodesicLength=0.5983447344992827 rxn_smarts="[C:1]([C:2]([C:3]#[C:4][C:5]([O:6][H:14])([H:12])[H:13])([H:10])[H:11])([H:7])([H:8])[H:9]>>[C:1]1([H:7])([H:8])[C:2]([H:10])([H:11])[C:3]1=[C:4]=[C:5]([O:6][H:14])[H:12].[H:9][H:13]"
C       -1.52452546       0.34176834       0.20629401
C       -1.62801805      -0.45787796      -1.09933460
C       -0.24379840      -0.53730652      -0.72888509
C        0.98232951      -0.64242537      -0.51095064
C        1.90671362      -0.36169768       0.48231730
O        2.89666231       0.57810963       0.34644903
H       -1.65312460       1.41032967       0.07018673
H       -2.25398779      -0.02796770       0.92295917
H       -0.21797615       0.56894236       1.22553548
H       -2.15336516      -1.40912202      -1.07759099
H       -1.82099984       0.10496921      -2.00821274
H        2.34621981      -1.24640438       0.94616977
H        0.81056665       0.38730630       1.42168347
H        2.55330356       1.29137611      -0.19662090
14
Frame=7 idx=000552 GeodesicLength=0.6977770274894609 rxn_smarts="[C:1]([C:2]([C:3]#[C:4][C:5]([O:6][H:14])([H:12])[H:13])([H:10])[H:11])([H:7])([H:8])[H:9]>>[C:1]1([H:7])([H:8])[C:2]([H:10])([H:11])[C:3]1=[C:4]=[C:5]([O:6][H:14])[H:12].[H:9][H:13]"
C       -1.54237723       0.34474417       0.20684875
C       -1.63220339      -0.46482284      -1.09365571
C       -0.24769016      -0.53960934      -0.71727990
C        0.97878707      -0.63332814      -0.50020441
C        1.92276433      -0.37057793       0.47947812
O        2.91601347       0.56832096       0.34300765
H       -1.66573921       1.41268919       0.05937531
H       -2.30524249      -0.00689806       0.89844696
H       -0.23187027       0.59615889       1.24910135
H       -2.14751996      -1.42164833      -1.07165461
H       -1.81626574       0.08708932      -2.01107181
H        2.38257141      -1.27324636       0.88809877
H        0.82812105       0.40049489       1.43488667
H        2.56065111       1.30063358      -0.16537714
14
Frame=8 idx=000552 GeodesicLength=0.7971032435597748 rxn_smarts="[C:1]([C:2]([C:3]#[C:4][C:5]([O:6][H:14])([H:12])[H:13])([H:10])[H:11])([H:7])([H:8])[H:9]>>[C:1]1([H:7])([H:8])[C:2]([H:10])([H:11])[C:3]1=[C:4]=[C:5]([O:6][H:14])[H:12].[H:9][H:13]"
C       -1.56082152       0.34725417       0.20778662
C       -1.63608455      -0.47180730      -1.08773472
C       -0.25162260      -0.54241733      -0.70440155
C        0.97501990      -0.62497803      -0.48777059
C        1.93927330      -0.38012688       0.47678371
O        2.93485414       0.55886090       0.33901743
H       -1.67806580       1.41455909       0.04887542
H       -2.35725428       0.01458985       0.87152625
H       -0.24666656       0.62458147       1.27338084
H       -2.14171471      -1.43391628      -1.06575717
H       -1.81031348       0.06935173      -2.01346746
H        2.41888290      -1.29825501       0.82682460
H        0.84648927       0.41363487       1.44887138
H        2.56802400       1.30866875      -0.13393477
14
Frame=9 idx=000552 GeodesicLength=0.8963078241425246 rxn_smarts="[C:1]([C:2]([C:3]#[C:4][C:5]([O:6][H:14])([H:12])[H:13])([H:10])[H:11])([H:7])([H:8])[H:9]>>[C:1]1([H:7])([H:8])[C:2]([H:10])([H:11])[C:3]1=[C:4]=[C:5]([O:6][H:14])[H:12].[H:9][H:13]"
C       -1.57992244       0.34931211       0.20904838
C       -1.63972069      -0.47895581      -1.08149981
C       -0.25557469      -0.54534937      -0.69045056
C        0.97106235      -0.61694941      -0.47388210
C        1.95622913      -0.39042962       0.47404848
O        2.95342427       0.54944612       0.33475313
H       -1.69040459       1.41589172       0.03859600
H       -2.40957409       0.03636497       0.84223925
H       -0.26237137       0.65472929       1.29804361
H       -2.13569611      -1.44620268      -1.05961111
H       -1.80355860       0.05148682      -2.01532834
H        2.45444826      -1.32138815       0.76219703
H        0.86576400       0.42657937       1.46365096
H        2.57589457       1.31546463      -0.10180492
14
Frame=10 idx=000552 GeodesicLength=0.9953958022201755 rxn_smarts="[C:1]([C:2]([C:3]#[C:4][C:5]([O:6][H:14])([H:12])[H:13])([H:10])[H:11])([H:7])([H:8])[H:9]>>[C:1]1([H:7])([H:8])[C:2]([H:10])([H:11])[C:3]1=[C:4]=[C:5]([O:6][H:14])[H:12].[H:9][H:13]"
C       -1.59966370       0.35093386       0.21065152
C       -1.64302144      -0.48614281      -1.07500581
C       -0.25959775      -0.54881266      -0.67508646
C        0.96683661      -0.60991159      -0.45808683
C        1.97374474      -0.40151282       0.47121120
O        2.97142026       0.54043440       0.32983001
H       -1.70232630       1.41675946       0.02864708
H       -2.46217243       0.05859323       0.81030622
H       -0.27913708       0.68630008       1.32334542
H       -2.12974636      -1.45822271      -1.05347831
H       -1.79544953       0.03376214      -2.01669815
H        2.48943617      -1.34210412       0.69444853
H        0.88607649       0.43887950       1.47954420
H        2.58360031       1.32104405      -0.06962861
14
Frame=11 idx=000552 GeodesicLength=1.0943265413337362 rxn_smarts="[C:1]([C:2]([C:3]#[C:4][C:5]([O:6][H:14])([H:12])[H:13])([H:10])[H:11])([H:7])([H:8])[H:9]>>[C:1]1([H:7])([H:8])[C:2]([H:10])([H:11])[C:3]1=[C:4]=[C:5]([O:6][H:14])[H:12].[H:9][H:13]"
C       -1.62007124       0.35216270       0.21253360
C       -1.64597765      -0.49338799      -1.06822727
C       -0.26371740      -0.55279612      -0.65823504
C        0.96231730      -0.60392827      -0.44028201
C        1.99186116      -0.41341625       0.46811373
O        2.98881386       0.53184399       0.32422383
H       -1.71379573       1.41717820       0.01897951
H       -2.51473057       0.08130834       0.77562431
H       -0.29705737       0.71946316       1.34918577
H       -2.12385881      -1.46999737      -1.04728621
H       -1.78595149       0.01610817      -2.01755023
H        2.52353889      -1.36014227       0.62354465
H        0.90756358       0.45017240       1.49674785
H        2.59106547       1.32543131      -0.03737249
14
Frame=12 idx=000552 GeodesicLength=1.1931041442200137 rxn_smarts="[C:1]([C:2]([C:3]#[C:4][C:5]([O:6][H:14])([H:12])[H:13])([H:10])[H:11])([H:7])([H:8])[H:9]>>[C:1]1([H:7])([H:8])[C:2]([H:10])([H:11])[C:3]1=[C:4]=[C:5]([O:6][H:14])[H:12].[H:9][H:13]"
C       -1.64118356       0.35305224       0.21462433
C       -1.64857062      -0.50071316      -1.06114701
C       -0.26795758      -0.55728976      -0.63980728
C        0.95748073      -0.59908576      -0.42032945
C        2.01062281      -0.42617145       0.46457498
O        3.00558666       0.52369767       0.31786294
H       -1.72479817       1.41718151       0.00954590
H       -2.56693756       0.10452214       0.73811217
H       -0.31626672       0.75441443       1.37548014
H       -2.11802299      -1.48155846      -1.04098105
H       -1.77499715      -0.00154588      -2.01786785
H        2.55642834      -1.37525181       0.54944992
H        0.93038560       0.46009516       1.51549078
H        2.59823020       1.32865315      -0.00500851
14
Frame=13 idx=000552 GeodesicLength=1.2917601219713495 rxn_smarts="[C:1]([C:2]([C:3]#[C:4][C:5]([O:6][H:14])([H:12])[H:13])([H:10])[H:11])([H:7])([H:8])[H:9]>>[C:1]1([H:7])([H:8])[C:2]([H:10])([H:11])[C:3]1=[C:4]=[C:5]([O:6][H:14])[H:12].[H:9][H:13]"
C       -1.66303592       0.35372526       0.21678298
C       -1.65081639      -0.50824676      -1.05369802
C       -0.27231807      -0.56209992      -0.61985870
C        0.95234059      -0.59516958      -0.39828314
C        2.03003507      -0.43983449       0.46031932
O        3.02182532       0.51590500       0.31086316
H       -1.73546307       1.41683980       0.00012637
H       -2.61837379       0.12823827       0.69782621
H       -0.33687178       0.79166320       1.40193182
H       -2.11210357      -1.49312201      -1.03425739
H       -1.76275482      -0.01952489      -2.01763549
H        2.58758668      -1.38730139       0.47182237
H        0.95468354       0.46815179       1.53604871
H        2.60526619       1.33077572       0.02801181
14
Frame=14 idx=000552 GeodesicLength=1.3902547440595685 rxn_smarts="[C:1]([C:2]([C:3]#[C:4][C:5]([O:6][H:14])([H:12])[H:13])([H:10])[H:11])([H:7])([H:8])[H:9]>>[C:1]1([H:7])([H:8])[C:2]([H:10])([H:11])[C:3]1=[C:4]=[C:5]([O:6][H:14])[H:12].[H:9][H:13]"
C       -1.68562412       0.35427224       0.21891418
C       -1.65263241      -0.51594638      -1.04587599
C       -0.27684977      -0.56744306      -0.59808369
C        0.94682418      -0.59262716      -0.37369754
C        2.05016394      -0.45441375       0.45517101
O        3.03728837       0.50868590       0.30294922
H       -1.74556564       1.41622342      -0.00933712
H       -2.66879420       0.15256991       0.65457381
H       -0.35906658       0.83126290       1.42855725
H       -2.10622588      -1.50455466      -1.02717216
H       -1.74884175      -0.03780008      -2.01683850
H        2.61687677      -1.39582017       0.39059280
H        0.98070826       0.47379368       1.55880956
H        2.61173883       1.33179721       0.06143717
14
Frame=15 idx=000552 GeodesicLength=1.4885858756743497 rxn_smarts="[C:1]([C:2]([C:3]#[C:4][C:5]([O:6][H:14])([H:12])[H:13])([H:10])[H:11])([H:7])([H:8])[H:9]>>[C:1]1([H:7])([H:8])[C:2]([H:10])([H:11])[C:3]1=[C:4]=[C:5]([O:6][H:14])[H:12].[H:9][H:13]"
C       -1.70895505       0.35484015       0.22084630
C       -1.65398267      -0.52390547      -1.03760782
C       -0.28155835      -0.57321890      -0.57440385
C        0.94092098      -0.59145400      -0.34639924
C        2.07101298      -0.46994856       0.44882793
O        3.05192576       0.50204693       0.29414006
H       -1.75516239       1.41540668      -0.01909068
H       -2.71780623       0.17751302       0.60835882
H       -0.38299789       0.87374964       1.45502394
H       -2.10029724      -1.51598311      -1.01946505
H       -1.73323473      -0.05665700      -2.01543107
H        2.64378024      -1.40046722       0.30532500
H        1.00870723       0.47636531       1.58416427
H        2.61764735       1.33171252       0.09571140
14
Frame=16 idx=000552 GeodesicLength=1.586734188422501 rxn_smarts="[C:1]([C:2]([C:3]#[C:4][C:5]([O:6][H:14])([H:12])[H:13])([H:10])[H:11])([H:7])([H:8])[H:9]>>[C:1]1([H:7])([H:8])[C:2]([H:10])([H:11])[C:3]1=[C:4]=[C:5]([O:6][H:14])[H:12].[H:9][H:13]"
C       -1.73298845       0.35558455       0.22240886
C       -1.65476940      -0.53216855      -1.02883295
C       -0.28646886      -0.57951140      -0.54856199
C        0.93457801      -0.59196974      -0.31595052
C        2.09259404      -0.48645175       0.44097212
O        3.06550027       0.49616049       0.28423872
H       -1.76410106       1.41447969      -0.02936182
H       -2.76507035       0.20315760       0.55905776
H       -0.40884564       0.91951077       1.48111121
H       -2.09432363      -1.52741428      -1.01098655
H       -1.71564666      -0.07628490      -2.01336259
H        2.66781856      -1.40069117       0.21562369
H        1.03903311       0.47508929       1.61261157
H        2.62269007       1.33050940       0.13103249
