14
Frame=0 idx=001438 GeodesicLength=0.0 rxn_smarts="[C:1]([C@@:2]([O:3][H:11])([C:4](=[O:5])[C:6]([H:12])([H:13])[H:14])[H:10])([H:7])([H:8])[H:9]>>[C:1](=[C:2]([O:3][H:11])[H:10])([H:7])[H:8].[C:4](=[O:5])=[C:6]([H:13])[H:14].[H:9][H:12]"
C        1.23671809      -0.99828601      -0.01855560
C        1.06158690       0.27788227       0.46075831
O        1.71974970       1.30960780      -0.14711880
C       -0.99435092       1.01895255       0.06656763
O       -0.77056901       2.17539198       0.02248836
C       -1.80581188      -0.05721493      -0.03664680
H        1.10569483      -1.83433970       0.65646233
H        1.90440440      -1.15443375      -0.85800079
H       -0.03376098      -1.41387336      -0.81975878
H        0.82300831       0.41858877       1.51674596
H        1.13277500       2.08068826      -0.14158743
H       -0.84668560      -1.11136461      -0.78736299
H       -2.63161306      -0.00044085      -0.73338549
H       -1.90114579      -0.71115836       0.81939411
14
Frame=1 idx=001438 GeodesicLength=0.07508853500442904 rxn_smarts="[C:1]([C@@:2]([O:3][H:11])([C:4](=[O:5])[C:6]([H:12])([H:13])[H:14])[H:10])([H:7])([H:8])[H:9]>>[C:1](=[C:2]([O:3][H:11])[H:10])([H:7])[H:8].[C:4](=[O:5])=[C:6]([H:13])[H:14].[H:9][H:12]"
C        1.24965577      -1.00323693      -0.01342120
C        1.06746038       0.27777476       0.45909408
O        1.71655971       1.30603810      -0.16548701
C       -1.00238356       1.01378938       0.08954469
O       -0.77948497       2.17025639       0.03761631
C       -1.82025433      -0.05831092      -0.04226681
H        1.11621836      -1.83354160       0.66871981
H        1.93953050      -1.16395457      -0.83391320
H       -0.02664171      -1.40278707      -0.82963832
H        0.85162167       0.42212742       1.51950390
H        1.12709643       2.07482200      -0.16200976
H       -0.85922124      -1.10904552      -0.80333651
H       -2.65086254       0.02666656      -0.73055360
H       -1.92929448      -0.72059801       0.80614761
14
Frame=2 idx=001438 GeodesicLength=0.14985565637518522 rxn_smarts="[C:1]([C@@:2]([O:3][H:11])([C:4](=[O:5])[C:6]([H:12])([H:13])[H:14])[H:10])([H:7])([H:8])[H:9]>>[C:1](=[C:2]([O:3][H:11])[H:10])([H:7])[H:8].[C:4](=[O:5])=[C:6]([H:13])[H:14].[H:9][H:12]"
C        1.26287171      -1.00821205      -0.00854266
C        1.07328185       0.27741808       0.45755286
O        1.71325330       1.30218411      -0.18329675
C       -1.01019525       1.00818611       0.11164032
O       -0.78818228       2.16470998       0.05267856
C       -1.83478243      -0.05897746      -0.04832543
H        1.12832655      -1.83278192       0.68087934
H        1.97433312      -1.17254211      -0.80974540
H       -0.01972892      -1.39202356      -0.83869926
H        0.87974375       0.42544722       1.52180636
H        1.12106479       2.06848566      -0.18213727
H       -0.87224645      -1.10691435      -0.81942108
H       -2.67016877       0.05408898      -0.72693237
H       -1.95757098      -0.72906868       0.79254280
14
Frame=3 idx=001438 GeodesicLength=0.22432996156349805 rxn_smarts="[C:1]([C@@:2]([O:3][H:11])([C:4](=[O:5])[C:6]([H:12])([H:13])[H:14])[H:10])([H:7])([H:8])[H:9]>>[C:1](=[C:2]([O:3][H:11])[H:10])([H:7])[H:8].[C:4](=[O:5])=[C:6]([H:13])[H:14].[H:9][H:12]"
C        1.27637874      -1.01322275      -0.00391926
C        1.07903793       0.27680720       0.45611822
O        1.70984597       1.29804938      -0.20054510
C       -1.01781926       1.00216954       0.13282118
O       -0.79665745       2.15878434       0.06769193
C       -1.84941825      -0.05920635      -0.05481445
H        1.14200965      -1.83203643       0.69296250
H        2.00887256      -1.18019684      -0.78549228
H       -0.01304442      -1.38163519      -0.84694068
H        0.90734676       0.42853490       1.52365892
H        1.11471487       2.06167989      -0.20196229
H       -0.88579423      -1.10493872      -0.83567092
H       -2.68953751       0.08178401      -0.72250285
H       -1.98593535      -0.73657298       0.77859507
14
Frame=4 idx=001438 GeodesicLength=0.29854854132542014 rxn_smarts="[C:1]([C@@:2]([O:3][H:11])([C:4](=[O:5])[C:6]([H:12])([H:13])[H:14])[H:10])([H:7])([H:8])[H:9]>>[C:1](=[C:2]([O:3][H:11])[H:10])([H:7])[H:8].[C:4](=[O:5])=[C:6]([H:13])[H:14].[H:9][H:12]"
C        1.29018424      -1.01828263       0.00046166
C        1.08471982       0.27593901       0.45477556
O        1.70635065       1.29363238      -0.21725530
C       -1.02529365       0.99577087       0.15309180
O       -0.80491179       2.15250002       0.08267555
C       -1.86418185      -0.05899806      -0.06171738
H        1.15720401      -1.83127808       0.70500055
H        2.04322522      -1.18693653      -0.76110718
H       -0.00659544      -1.37164558      -0.85439493
H        0.93443125       0.43139403       1.52506859
H        1.10807105       2.05439780      -0.22150570
H       -0.89988948      -1.10305611      -0.85217438
H       -2.70897785       0.10971681      -0.71723431
H       -2.01433619      -0.74315393       0.76431548
14
Frame=5 idx=001438 GeodesicLength=0.37253886771740924 rxn_smarts="[C:1]([C@@:2]([O:3][H:11])([C:4](=[O:5])[C:6]([H:12])([H:13])[H:14])[H:10])([H:7])([H:8])[H:9]>>[C:1](=[C:2]([O:3][H:11])[H:10])([H:7])[H:8].[C:4](=[O:5])=[C:6]([H:13])[H:14].[H:9][H:12]"
C        1.30430449      -1.02340325       0.00461084
C        1.09032319       0.27481003       0.45350842
O        1.70276806       1.28893023      -0.23345664
C       -1.03264683       0.98899442       0.17246856
O       -0.81294468       2.14588312       0.09765181
C       -1.87909212      -0.05834568      -0.06902272
H        1.17386947      -1.83047651       0.71701482
H        2.07743205      -1.19276799      -0.73656635
H       -0.00038765      -1.36209938      -0.86106706
H        0.96101204       0.43403339       1.52604425
H        1.10115354       2.04664185      -0.24076888
H       -0.91456434      -1.10122183      -0.86898964
H       -2.72847567       0.13786037      -0.71112683
H       -2.04275155      -0.74883877       0.74969941
14
Frame=6 idx=001438 GeodesicLength=0.4463450875092627 rxn_smarts="[C:1]([C@@:2]([O:3][H:11])([C:4](=[O:5])[C:6]([H:12])([H:13])[H:14])[H:10])([H:7])([H:8])[H:9]>>[C:1](=[C:2]([O:3][H:11])[H:10])([H:7])[H:8].[C:4](=[O:5])=[C:6]([H:13])[H:14].[H:9][H:12]"
C        1.31875162      -1.02859442       0.00854717
C        1.09584415       0.27341698       0.45230831
O        1.69911321       1.28394085      -0.24917453
C       -1.03991267       0.98186926       0.19097282
O       -0.82075578       2.13894505       0.11261126
C       -1.89416723      -0.05725171      -0.07671276
H        1.19192548      -1.82960709       0.72902858
H        2.11154065      -1.19770454      -0.71182469
H        0.00558345      -1.35300540      -0.86698956
H        0.98710268       0.43646192       1.52660460
H        1.09398752       2.03840249      -0.25977236
H       -0.92984831      -1.09936009      -0.88621167
H       -2.74803331       0.16617159      -0.70414775
H       -2.07113145      -0.75368489       0.73476058
14
Frame=7 idx=001438 GeodesicLength=0.5199896937258562 rxn_smarts="[C:1]([C@@:2]([O:3][H:11])([C:4](=[O:5])[C:6]([H:12])([H:13])[H:14])[H:10])([H:7])([H:8])[H:9]>>[C:1](=[C:2]([O:3][H:11])[H:10])([H:7])[H:8].[C:4](=[O:5])=[C:6]([H:13])[H:14].[H:9][H:12]"
C        1.33354246      -1.03386378       0.01228784
C        1.10127910       0.27175574       0.45116867
O        1.69539580       1.27866027      -0.26442343
C       -1.04711354       0.97440616       0.20861037
O       -0.82834423       2.13169879       0.12753702
C       -1.90942052      -0.05571360      -0.08476714
H        1.21130066      -1.82864216       0.74105540
H        2.14557258      -1.20174868      -0.68685595
H        0.01132581      -1.34438473      -0.87218336
H        1.01270471       0.43868606       1.52675840
H        1.08659923       2.02967863      -0.27851575
H       -0.94577530      -1.09741206      -0.90391415
H       -2.76764069       0.19460857      -0.69626952
H       -2.09942607      -0.75772920       0.71951160
14
Frame=8 idx=001438 GeodesicLength=0.5934948658492544 rxn_smarts="[C:1]([C@@:2]([O:3][H:11])([C:4](=[O:5])[C:6]([H:12])([H:13])[H:14])[H:10])([H:7])([H:8])[H:9]>>[C:1](=[C:2]([O:3][H:11])[H:10])([H:7])[H:8].[C:4](=[O:5])=[C:6]([H:13])[H:14].[H:9][H:12]"
C        1.34869016      -1.03922086       0.01586739
C        1.10663271       0.26982829       0.45008487
O        1.69162095       1.27308289      -0.27925036
C       -1.05426928       0.96661125       0.22543357
O       -0.83571002       2.12415411       0.14241483
C       -1.92486693      -0.05373645      -0.09316628
H        1.23189164      -1.82756955       0.75313099
H        2.17955091      -1.20492137      -0.66162083
H        0.01684859      -1.33623758      -0.87667133
H        1.03785664       0.44074292       1.52652690
H        1.07900335       2.02046239      -0.29702453
H       -0.96236476      -1.09527390      -0.92221439
H       -2.78729258       0.22313383      -0.68745667
H       -2.12759141      -0.76105597       0.70394584
14
Frame=9 idx=001438 GeodesicLength=0.6667962893648748 rxn_smarts="[C:1]([C@@:2]([O:3][H:11])([C:4](=[O:5])[C:6]([H:12])([H:13])[H:14])[H:10])([H:7])([H:8])[H:9]>>[C:1](=[C:2]([O:3][H:11])[H:10])([H:7])[H:8].[C:4](=[O:5])=[C:6]([H:13])[H:14].[H:9][H:12]"
C        1.36422492      -1.04464739       0.01926365
C        1.11189331       0.26762026       0.44903138
O        1.68782298       1.26720778      -0.29364475
C       -1.06140337       0.95853113       0.24135324
O       -0.84286941       2.11631005       0.15718651
C       -1.94053071      -0.05133157      -0.10189916
H        1.25377139      -1.82628676       0.76520997
H        2.21338507      -1.20723400      -0.63621734
H        0.02210714      -1.32866667      -0.88029026
H        1.06255805       0.44256903       1.52594953
H        1.07126593       2.01083282      -0.31514942
H       -0.97966265      -1.09296375      -0.94111511
H       -2.80692821       0.25171902      -0.67778064
H       -2.15563443      -0.76365995       0.68810240
14
Frame=10 idx=001438 GeodesicLength=0.73999560221916 rxn_smarts="[C:1]([C@@:2]([O:3][H:11])([C:4](=[O:5])[C:6]([H:12])([H:13])[H:14])[H:10])([H:7])([H:8])[H:9]>>[C:1](=[C:2]([O:3][H:11])[H:10])([H:7])[H:8].[C:4](=[O:5])=[C:6]([H:13])[H:14].[H:9][H:12]"
C        1.38015938      -1.05016894       0.02255747
C        1.11708421       0.26514306       0.44803240
O        1.68398607       1.26102148      -0.30767691
C       -1.06853132       0.95013579       0.25653273
O       -0.84981165       2.10817776       0.17188034
C       -1.95641410      -0.04848491      -0.11093967
H        1.27673403      -1.82484863       0.77737423
H        2.24715290      -1.20868791      -0.61054459
H        0.02716291      -1.32161876      -0.88319032
H        1.08686492       0.44426859       1.52502473
H        1.06336488       2.00070720      -0.33305826
H       -0.99767726      -1.09029555      -0.96077492
H       -2.82656574       0.28030951      -0.66716142
H       -2.18350920      -0.76565868       0.67194418
14
Frame=11 idx=001438 GeodesicLength=0.8130832700473568 rxn_smarts="[C:1]([C@@:2]([O:3][H:11])([C:4](=[O:5])[C:6]([H:12])([H:13])[H:14])[H:10])([H:7])([H:8])[H:9]>>[C:1](=[C:2]([O:3][H:11])[H:10])([H:7])[H:8].[C:4](=[O:5])=[C:6]([H:13])[H:14].[H:9][H:12]"
C        1.39651576      -1.05578172       0.02577135
C        1.12220974       0.26239178       0.44709374
O        1.68012593       1.25451483      -0.32135322
C       -1.07567053       0.94143974       0.27097354
O       -0.85654230       2.09976150       0.18646483
C       -1.97253011      -0.04519443      -0.12026340
H        1.30074422      -1.82322315       0.78961479
H        2.28081297      -1.20928034      -0.58463156
H        0.03202306      -1.31513455      -0.88533696
H        1.11077912       0.44584328       1.52377306
H        1.05533034       1.99009153      -0.35073172
H       -1.01644070      -1.08720928      -0.98124934
H       -2.84617483       0.30885430      -0.65561037
H       -2.21118268      -0.76707350       0.65548524
14
Frame=12 idx=001438 GeodesicLength=0.8860741868008908 rxn_smarts="[C:1]([C@@:2]([O:3][H:11])([C:4](=[O:5])[C:6]([H:12])([H:13])[H:14])[H:10])([H:7])([H:8])[H:9]>>[C:1](=[C:2]([O:3][H:11])[H:10])([H:7])[H:8].[C:4](=[O:5])=[C:6]([H:13])[H:14].[H:9][H:12]"
C        1.41331519      -1.06148180       0.02894389
C        1.12728028       0.25936647       0.44622437
O        1.67625407       1.24768033      -0.33469214
C       -1.08283577       0.93245456       0.28469927
O       -0.86306388       2.09106246       0.20091363
C       -1.98888472      -0.04145857      -0.12984932
H        1.32573710      -1.82139351       0.80194870
H        2.31434353      -1.20902042      -0.55849640
H        0.03670462      -1.30923866      -0.88670895
H        1.13431300       0.44731203       1.52221682
H        1.04718477       1.97897414      -0.36818820
H       -1.03598226      -1.08359524      -1.00263216
H       -2.86574380       0.33730441      -0.64311402
H       -2.23862211      -0.76796619       0.63873451
14
Frame=13 idx=001438 GeodesicLength=0.9589608823918122 rxn_smarts="[C:1]([C@@:2]([O:3][H:11])([C:4](=[O:5])[C:6]([H:12])([H:13])[H:14])[H:10])([H:7])([H:8])[H:9]>>[C:1](=[C:2]([O:3][H:11])[H:10])([H:7])[H:8].[C:4](=[O:5])=[C:6]([H:13])[H:14].[H:9][H:12]"
C        1.43058266      -1.06726591       0.03211416
C        1.13230435       0.25606726       0.44542803
O        1.67237469       1.24050474      -0.34772094
C       -1.09003399       0.92317228       0.29772393
O       -0.86938289       2.08208088       0.21522022
C       -2.00548170      -0.03726636      -0.13967988
H        1.35168434      -1.81933667       0.81439697
H        2.34770175      -1.20792076      -0.53218692
H        0.04121494      -1.30398511      -0.88725216
H        1.15748237       0.44870244       1.52037022
H        1.03894602       1.96736588      -0.38541119
H       -1.05633645      -1.07936274      -1.02500568
H       -2.88524527       0.36561720      -0.62968390
H       -2.26581083      -0.76837313       0.62168713
14
Frame=14 idx=001438 GeodesicLength=1.0317472641712535 rxn_smarts="[C:1]([C@@:2]([O:3][H:11])([C:4](=[O:5])[C:6]([H:12])([H:13])[H:14])[H:10])([H:7])([H:8])[H:9]>>[C:1](=[C:2]([O:3][H:11])[H:10])([H:7])[H:8].[C:4](=[O:5])=[C:6]([H:13])[H:14].[H:9][H:12]"
C        1.44833232      -1.07312979       0.03532948
C        1.13729330       0.25249508       0.44471575
O        1.66850085       1.23297277      -0.36046914
C       -1.09727548       0.91360649       0.31007483
O       -0.87550563       2.07281329       0.22935112
C       -2.02233229      -0.03262461      -0.14972873
H        1.37851943      -1.81703011       0.82698979
H        2.38085752      -1.20600366      -0.50572482
H        0.04556648      -1.29939899      -0.88693644
H        1.18031311       0.45004294       1.51826076
H        1.03063490       1.95525448      -0.40241937
H       -1.07752417      -1.07436442      -1.04849496
H       -2.90467428       0.39373907      -0.61529587
H       -2.29270607      -0.76837253       0.60434762
14
Frame=15 idx=001438 GeodesicLength=1.1044161558299415 rxn_smarts="[C:1]([C@@:2]([O:3][H:11])([C:4](=[O:5])[C:6]([H:12])([H:13])[H:14])[H:10])([H:7])([H:8])[H:9]>>[C:1](=[C:2]([O:3][H:11])[H:10])([H:7])[H:8].[C:4](=[O:5])=[C:6]([H:13])[H:14].[H:9][H:12]"
C        1.46657849      -1.07906899       0.03863686
C        1.14225341       0.24865024       0.44409854
O        1.66464105       1.22506881      -0.37295020
C       -1.10456572       0.90376112       0.32175462
O       -0.88143738       2.06325884       0.24327274
C       -2.03944209      -0.02752963      -0.15997103
H        1.40619687      -1.81445408       0.83975598
H        2.41377470      -1.20328800      -0.47915203
H        0.04976758      -1.29551890      -0.88571903
H        1.20281274       0.45136212       1.51591283
H        1.02227595       1.94263087      -0.41922174
H       -1.09956917      -1.06846156      -1.07321845
H       -2.92402505       0.42161084      -0.59991879
H       -2.31926139      -0.76802168       0.58671968
14
Frame=16 idx=001438 GeodesicLength=1.176955869911535 rxn_smarts="[C:1]([C@@:2]([O:3][H:11])([C:4](=[O:5])[C:6]([H:12])([H:13])[H:14])[H:10])([H:7])([H:8])[H:9]>>[C:1](=[C:2]([O:3][H:11])[H:10])([H:7])[H:8].[C:4](=[O:5])=[C:6]([H:13])[H:14].[H:9][H:12]"
C        1.48532780      -1.08508134       0.04209023
C        1.14719610       0.24453524       0.44358470
O        1.66080904       1.21676735      -0.38519826
C       -1.11190942       0.89364197       0.33277078
O       -0.88718476       2.05341435       0.25694487
C       -2.05681877      -0.02198436      -0.17038419
H        1.43465283      -1.81158304       0.85273854
H        2.44642618      -1.19980857      -0.45248670
H        0.05382948      -1.29237381      -0.88356853
H        1.22500143       0.45269582       1.51334570
H        1.01389360       1.92949163      -0.43582874
H       -1.12248879      -1.06147875      -1.09932010
H       -2.94330905       0.44916597      -0.58348678
H       -2.34542566      -0.76740246       0.56879847
