14
Frame=0 idx=006180 GeodesicLength=0.0 rxn_smarts="[O:1]([C@:2]12[C:3]([H:8])([H:9])[C@@:4]1([H:10])[C:5]([H:11])([H:12])[C:6]2([H:13])[H:14])[H:7]>>[O:1]([C@@:2]1([H:10])[C:3]([H:8])([H:9])[C:4][C:5]([H:11])([H:12])[C:6]1([H:13])[H:14])[H:7]"
O        1.43033663       0.59207225       1.50995866
C        0.46789041       0.31588499       0.55838747
C        0.55353105       0.83669843      -0.84693001
C       -0.94606865       0.91860559      -0.61360088
C       -1.30379632      -0.57019418      -0.47367490
C       -0.17501837      -1.05517175       0.47019919
H        2.16197034       1.05310635       1.09683025
H        1.04169904       1.80488726      -0.94491443
H        0.90599711       0.11620267      -1.58428344
H       -0.51022597       0.96008445       0.86020590
H       -2.30485719      -0.73112310      -0.07719021
H       -1.25491305      -1.02693965      -1.46748586
H       -0.56707774      -1.39246851       1.42926516
H        0.50053277      -1.82164480       0.08323311
14
Frame=1 idx=006180 GeodesicLength=0.05865870998209466 rxn_smarts="[O:1]([C@:2]12[C:3]([H:8])([H:9])[C@@:4]1([H:10])[C:5]([H:11])([H:12])[C:6]2([H:13])[H:14])[H:7]>>[O:1]([C@@:2]1([H:10])[C:3]([H:8])([H:9])[C:4][C:5]([H:11])([H:12])[C:6]1([H:13])[H:14])[H:7]"
O        1.42156715       0.60294799       1.51344267
C        0.45944623       0.32512084       0.56114127
C        0.55228919       0.84406542      -0.84526711
C       -0.94688519       0.90906209      -0.62168327
C       -1.30048473      -0.57786991      -0.47768300
C       -0.17223628      -1.05190500       0.47158051
H        2.18418930       0.99963458       1.08965864
H        1.03199677       1.81636287      -0.94272165
H        0.91285435       0.12691280      -1.58238609
H       -0.52883803       0.98370079       0.85927982
H       -2.30093074      -0.72739396      -0.07365483
H       -1.25894218      -1.04437499      -1.46687017
H       -0.56385536      -1.39298373       1.42946881
H        0.50982952      -1.81327978       0.08569439
14
Frame=2 idx=006180 GeodesicLength=0.11735705082834169 rxn_smarts="[O:1]([C@:2]12[C:3]([H:8])([H:9])[C@@:4]1([H:10])[C:5]([H:11])([H:12])[C:6]2([H:13])[H:14])[H:7]>>[O:1]([C@@:2]1([H:10])[C:3]([H:8])([H:9])[C:4][C:5]([H:11])([H:12])[C:6]1([H:13])[H:14])[H:7]"
O        1.41410023       0.61344997       1.51580631
C        0.45154228       0.33390840       0.56353492
C        0.55131478       0.85117536      -0.84388889
C       -0.94711742       0.89964650      -0.62938251
C       -1.29711424      -0.58530366      -0.48133941
C       -0.16919840      -1.04884934       0.47273670
H        2.20250902       0.94717070       1.08490125
H        1.02272613       1.82739336      -0.94101036
H        0.91943447       0.13740585      -1.58098909
H       -0.54685983       1.00757285       0.85784718
H       -2.29675520      -0.72318689      -0.06965151
H       -1.26360887      -1.06156432      -1.46576409
H       -0.55996715      -1.39361918       1.42962691
H        0.51899418      -1.80519959       0.08757259
14
Frame=3 idx=006180 GeodesicLength=0.17606253867438748 rxn_smarts="[O:1]([C@:2]12[C:3]([H:8])([H:9])[C@@:4]1([H:10])[C:5]([H:11])([H:12])[C:6]2([H:13])[H:14])[H:7]>>[O:1]([C@@:2]1([H:10])[C:3]([H:8])([H:9])[C:4][C:5]([H:11])([H:12])[C:6]1([H:13])[H:14])[H:7]"
O        1.40775800       0.62355336       1.51722329
C        0.44414178       0.34225094       0.56561918
C        0.55058496       0.85802810      -0.84274536
C       -0.94680503       0.89033910      -0.63669720
C       -1.29370027      -0.59251754      -0.48467812
C       -0.16592639      -1.04601496       0.47366446
H        2.21737448       0.89582856       1.08233018
H        1.01382409       1.83799894      -0.93972520
H        0.92575198       0.14769757      -1.58004844
H       -0.56432354       1.03170540       0.85590500
H       -2.29233302      -0.71854833      -0.06523163
H       -1.26890349      -1.07850569      -1.46419478
H       -0.55547082      -1.39441500       1.42971119
H        0.52802727      -1.79740046       0.08886744
14
Frame=4 idx=006180 GeodesicLength=0.234706463558239 rxn_smarts="[O:1]([C@:2]12[C:3]([H:8])([H:9])[C@@:4]1([H:10])[C:5]([H:11])([H:12])[C:6]2([H:13])[H:14])[H:7]>>[O:1]([C@@:2]1([H:10])[C:3]([H:8])([H:9])[C:4][C:5]([H:11])([H:12])[C:6]1([H:13])[H:14])[H:7]"
O        1.40241405       0.63329077       1.51781480
C        0.43718927       0.35016213       0.56743610
C        0.55004835       0.86463462      -0.84179539
C       -0.94601304       0.88111608      -0.64365083
C       -1.29024329      -0.59952098      -0.48773238
C       -0.16243056      -1.04339409       0.47437398
H        2.22922782       0.84554203       1.08178615
H        1.00518938       1.84819849      -0.93882491
H        0.93179629       0.15782553      -1.57949470
H       -0.58129206       1.05609210       0.85340209
H       -2.28764726      -0.71352815      -0.06046810
H       -1.27478892      -1.09517433      -1.46216446
H       -0.55039673      -1.39538900       1.42970135
H        0.53694670      -1.78985521       0.08961630
14
Frame=5 idx=006180 GeodesicLength=0.2933933384687492 rxn_smarts="[O:1]([C@:2]12[C:3]([H:8])([H:9])[C@@:4]1([H:10])[C:5]([H:11])([H:12])[C:6]2([H:13])[H:14])[H:7]>>[O:1]([C@@:2]1([H:10])[C:3]([H:8])([H:9])[C:4][C:5]([H:11])([H:12])[C:6]1([H:13])[H:14])[H:7]"
O        1.39791206       0.64254909       1.51777943
C        0.43068132       0.35764917       0.56903343
C        0.54976565       0.87101368      -0.84099795
C       -0.94474038       0.87199683      -0.65021613
C       -1.28678062      -0.60635153      -0.49051643
C       -0.15874531      -1.04102618       0.47486013
H        2.23826062       0.79657327       1.08289228
H        0.99688534       1.85805050      -0.93823852
H        0.93768325       0.16777841      -1.57933049
H       -0.59779077       1.08076882       0.85041692
H       -2.28275741      -0.70816072      -0.05534908
H       -1.28128083      -1.11162143      -1.45971243
H       -0.54483883      -1.39660548       1.42959000
H        0.54574590      -1.78261443       0.08978883
14
Frame=6 idx=006180 GeodesicLength=0.3520755931057993 rxn_smarts="[O:1]([C@:2]12[C:3]([H:8])([H:9])[C@@:4]1([H:10])[C:5]([H:11])([H:12])[C:6]2([H:13])[H:14])[H:7]>>[O:1]([C@@:2]1([H:10])[C:3]([H:8])([H:9])[C:4][C:5]([H:11])([H:12])[C:6]1([H:13])[H:14])[H:7]"
O        1.39420155       0.65136948       1.51715005
C        0.42457888       0.36470836       0.57042274
C        0.54966578       0.87716794      -0.84034172
C       -0.94305242       0.86296510      -0.65642386
C       -1.28330536      -0.61300485      -0.49305509
C       -0.15487051      -1.03890319       0.47512637
H        2.24485329       0.74883461       1.08571098
H        0.98880537       1.86755303      -0.93797148
H        0.94334239       0.17758897      -1.57949906
H       -0.61387796       1.10572781       0.84686600
H       -2.27763254      -0.70247846      -0.04993822
H       -1.28835071      -1.12780498      -1.45681652
H       -0.53879521      -1.39807182       1.42934969
H        0.55443746      -1.77565200       0.08942012
14
Frame=7 idx=006180 GeodesicLength=0.4107716543327675 rxn_smarts="[O:1]([C@:2]12[C:3]([H:8])([H:9])[C@@:4]1([H:10])[C:5]([H:11])([H:12])[C:6]2([H:13])[H:14])[H:7]>>[O:1]([C@@:2]1([H:10])[C:3]([H:8])([H:9])[C:4][C:5]([H:11])([H:12])[C:6]1([H:13])[H:14])[H:7]"
O        1.39118354       0.65972897       1.51601228
C        0.41887423       0.37134874       0.57163353
C        0.54975709       0.88310485      -0.83979981
C       -0.94096934       0.85401955      -0.66226091
C       -1.27983929      -0.61950246      -0.49536505
C       -0.15081829      -1.03703684       0.47516934
H        2.24919812       0.70240485       1.09009713
H        0.98095433       1.87672723      -0.93797481
H        0.94881468       0.18726244      -1.57999771
H       -0.62956804       1.13099360       0.84275972
H       -2.27229608      -0.69651489      -0.04424498
H       -1.29601532      -1.14374690      -1.45350024
H       -0.53230511      -1.39981225       1.42897260
H        0.56302946      -1.76897690       0.08849890
14
Frame=8 idx=006180 GeodesicLength=0.46950296231990396 rxn_smarts="[O:1]([C@:2]12[C:3]([H:8])([H:9])[C@@:4]1([H:10])[C:5]([H:11])([H:12])[C:6]2([H:13])[H:14])[H:7]>>[O:1]([C@@:2]1([H:10])[C:3]([H:8])([H:9])[C:4][C:5]([H:11])([H:12])[C:6]1([H:13])[H:14])[H:7]"
O        1.38880924       0.66759072       1.51444253
C        0.41354273       0.37756764       0.57267792
C        0.55002099       0.88883307      -0.83936267
C       -0.93852478       0.84516408      -0.66774012
C       -1.27638742      -0.62585330      -0.49745946
C       -0.14660404      -1.03543903       0.47498554
H        2.25154485       0.65734091       1.09599359
H        0.97330899       1.88558783      -0.93824196
H        0.95408688       0.19681208      -1.58079118
H       -0.64491344       1.15657556       0.83806848
H       -2.26674322      -0.69029473      -0.03829386
H       -1.30425939      -1.15943422      -1.44974373
H       -0.52539758      -1.40185454       1.42843158
H        0.57151619      -1.76259607       0.08703334
14
Frame=9 idx=006180 GeodesicLength=0.5283064985104318 rxn_smarts="[O:1]([C@:2]12[C:3]([H:8])([H:9])[C@@:4]1([H:10])[C:5]([H:11])([H:12])[C:6]2([H:13])[H:14])[H:7]>>[O:1]([C@@:2]1([H:10])[C:3]([H:8])([H:9])[C:4][C:5]([H:11])([H:12])[C:6]1([H:13])[H:14])[H:7]"
O        1.38693220       0.67495594       1.51261309
C        0.40857302       0.38338901       0.57359354
C        0.55048917       0.89437921      -0.83898616
C       -0.93572676       0.83639742      -0.67286649
C       -1.27296760      -0.63208415      -0.49935274
C       -0.14223219      -1.03410899       0.47458479
H        2.25199733       0.61360980       1.10301884
H        0.96589796       1.89419047      -0.93868652
H        0.95925531       0.20623421      -1.58185625
H       -0.65995769       1.18249465       0.83282314
H       -2.26100654      -0.68384579      -0.03208744
H       -1.31307302      -1.17490700      -1.44556933
H       -0.51811013      -1.40420610       1.42773426
H        0.57992894      -1.75649868       0.08503727
14
Frame=10 idx=006180 GeodesicLength=0.5871170922497303 rxn_smarts="[O:1]([C@:2]12[C:3]([H:8])([H:9])[C@@:4]1([H:10])[C:5]([H:11])([H:12])[C:6]2([H:13])[H:14])[H:7]>>[O:1]([C@@:2]1([H:10])[C:3]([H:8])([H:9])[C:4][C:5]([H:11])([H:12])[C:6]1([H:13])[H:14])[H:7]"
O        1.38558291       0.68185030       1.51045092
C        0.40394387       0.38880062       0.57438130
C        0.55110148       0.89973080      -0.83867520
C       -0.93261949       0.82770806      -0.67764086
C       -1.26957789      -0.63818769      -0.50106051
C       -0.13770816      -1.03304840       0.47395769
H        2.25079329       0.57120681       1.11140853
H        0.95865304       1.90249853      -0.93932253
H        0.96423273       0.21555731      -1.58318341
H       -0.67471014       1.20875113       0.82694342
H       -2.25505418      -0.67719418      -0.02565766
H       -1.32245978      -1.19011789      -1.44096361
H       -0.51043296      -1.40687930       1.42685529
H        0.58825528      -1.75067610       0.08250663
14
Frame=11 idx=006180 GeodesicLength=0.6459526404724413 rxn_smarts="[O:1]([C@:2]12[C:3]([H:8])([H:9])[C@@:4]1([H:10])[C:5]([H:11])([H:12])[C:6]2([H:13])[H:14])[H:7]>>[O:1]([C@@:2]1([H:10])[C:3]([H:8])([H:9])[C:4][C:5]([H:11])([H:12])[C:6]1([H:13])[H:14])[H:7]"
O        1.38468911       0.68829482       1.50801062
C        0.39963818       0.39382258       0.57506103
C        0.55184872       0.90490657      -0.83841238
C       -0.92922876       0.81909561      -0.68207105
C       -1.26622182      -0.64417765      -0.50259435
C       -0.13303342      -1.03225206       0.47310874
H        2.24809031       0.53004994       1.12105664
H        0.95156273       1.91053579      -0.94011868
H        0.96903440       0.22480230      -1.58475387
H       -0.68921563       1.23536342       0.82041129
H       -2.24888945      -0.67037181      -0.01901728
H       -1.33240689      -1.20507965      -1.43592533
H       -0.50238135      -1.40987740       1.42579037
H        0.59651386      -1.74511246       0.07945425
14
Frame=12 idx=006180 GeodesicLength=0.704824581729739 rxn_smarts="[O:1]([C@:2]12[C:3]([H:8])([H:9])[C@@:4]1([H:10])[C:5]([H:11])([H:12])[C:6]2([H:13])[H:14])[H:7]>>[O:1]([C@@:2]1([H:10])[C:3]([H:8])([H:9])[C:4][C:5]([H:11])([H:12])[C:6]1([H:13])[H:14])[H:7]"
O        1.38420867       0.69430318       1.50533962
C        0.39564280       0.39846446       0.57564828
C        0.55272279       0.90991946      -0.83818203
C       -0.92557925       0.81055663      -0.68615977
C       -1.26290549      -0.65006408      -0.50396494
C       -0.12820929      -1.03171927       0.47203989
H        2.24400565       0.49008844       1.13188624
H        0.94461624       1.91832196      -0.94104382
H        0.97367171       0.23398018      -1.58655294
H       -0.70351061       1.26234845       0.81319601
H       -2.24251144      -0.66340165      -0.01217560
H       -1.34290788      -1.21979325      -1.43045160
H       -0.49396229      -1.41320654       1.42453398
H        0.60471840      -1.73979795       0.07588667
14
Frame=13 idx=006180 GeodesicLength=0.7637203547240512 rxn_smarts="[O:1]([C@:2]12[C:3]([H:8])([H:9])[C@@:4]1([H:10])[C:5]([H:11])([H:12])[C:6]2([H:13])[H:14])[H:7]>>[O:1]([C@@:2]1([H:10])[C:3]([H:8])([H:9])[C:4][C:5]([H:11])([H:12])[C:6]1([H:13])[H:14])[H:7]"
O        1.38411784       0.69988330       1.50246056
C        0.39194927       0.40273095       0.57615519
C        0.55371506       0.91477668      -0.83797014
C       -0.92168693       0.80208858      -0.68990937
C       -1.25963448      -0.65585271      -0.50518006
C       -0.12323594      -1.03145062       0.47074987
H        2.23861817       0.45129797       1.14385630
H        0.93780510       1.92586696      -0.94206682
H        0.97815023       0.24310049      -1.58857317
H       -0.71761624       1.28971276       0.80526713
H       -2.23592203      -0.65630290      -0.00513539
H       -1.35396006      -1.23425326      -1.42453897
H       -0.48517872      -1.41687445       1.42308010
H        0.61287872      -1.73472375       0.07180478
14
Frame=14 idx=006180 GeodesicLength=0.8226581361138146 rxn_smarts="[O:1]([C@:2]12[C:3]([H:8])([H:9])[C@@:4]1([H:10])[C:5]([H:11])([H:12])[C:6]2([H:13])[H:14])[H:7]>>[O:1]([C@@:2]1([H:10])[C:3]([H:8])([H:9])[C:4][C:5]([H:11])([H:12])[C:6]1([H:13])[H:14])[H:7]"
O        1.38438206       0.70503289       1.49942699
C        0.38854405       0.40662627       0.57659163
C        0.55481503       0.91949065      -0.83776761
C       -0.91757077       0.79369431      -0.69332755
C       -1.25640930      -0.66155105      -0.50624715
C       -0.11811830      -1.03144672       0.46923880
H        2.23205049       0.41364451       1.15690385
H        0.93112419       1.93318616      -0.94317272
H        0.98246443       0.25217575      -1.59079620
H       -0.73157596       1.31747006       0.79659420
H       -2.22911639      -0.64909759       0.00209523
H       -1.36554756      -1.24845458      -1.41817365
H       -0.47604322      -1.42088986       1.42141703
H        0.62100127      -1.72988079       0.06721717
14
Frame=15 idx=006180 GeodesicLength=0.8816375534797241 rxn_smarts="[O:1]([C@:2]12[C:3]([H:8])([H:9])[C@@:4]1([H:10])[C:5]([H:11])([H:12])[C:6]2([H:13])[H:14])[H:7]>>[O:1]([C@@:2]1([H:10])[C:3]([H:8])([H:9])[C:4][C:5]([H:11])([H:12])[C:6]1([H:13])[H:14])[H:7]"
O        1.38498117       0.70973498       1.49627010
C        0.38542156       0.41015054       0.57696775
C        0.55601933       0.92406747      -0.83756221
C       -0.91324290       0.78537562      -0.69641613
C       -1.25323725      -0.66716496      -0.50717314
C       -0.11285878      -1.03171123       0.46750362
H        2.22437918       0.37714125       1.17098546
H        0.92457668       1.94028899      -0.94433309
H        0.98661742       0.26120906      -1.59321613
H       -0.74541843       1.34562811       0.78714719
H       -2.22209686      -0.64179982       0.00951656
H       -1.37767175      -1.26239273      -1.41134826
H       -0.46656357      -1.42526329       1.41953542
H        0.62909419      -1.72526399       0.06212287
14
Frame=16 idx=006180 GeodesicLength=0.9406458953045393 rxn_smarts="[O:1]([C@:2]12[C:3]([H:8])([H:9])[C@@:4]1([H:10])[C:5]([H:11])([H:12])[C:6]2([H:13])[H:14])[H:7]>>[O:1]([C@@:2]1([H:10])[C:3]([H:8])([H:9])[C:4][C:5]([H:11])([H:12])[C:6]1([H:13])[H:14])[H:7]"
O        1.38591205       0.71399037       1.49301218
C        0.38257087       0.41330804       0.57729410
C        0.55731664       0.92851545      -0.83734233
C       -0.90872019       0.77713112      -0.69917725
C       -1.25011890      -0.67269817      -0.50796365
C       -0.10745920      -1.03224299       0.46554442
H        2.21566993       0.34175160       1.18606581
H        0.91815394       1.94718622      -0.94552496
H        0.99060493       0.27021222      -1.59582009
H       -0.75917290       1.37419386       0.77688442
H       -2.21485848      -0.63442931       0.01712366
H       -1.39031879      -1.27605637      -1.40405198
H       -0.45674375      -1.43000045       1.41742768
H        0.63716385      -1.72086158       0.05652800
