14
Frame=0 idx=003356 GeodesicLength=0.0 rxn_smarts="[O:1]([C:2]([C@@:3]1([H:10])[C:4]([H:11])([H:12])[C@:5]1([O:6][H:14])[H:13])([H:8])[H:9])[H:7]>>[O:1]([C:2]([C:3][C@@:5]([C:4]([H:10])([H:11])[H:12])([O:6][H:14])[H:13])([H:8])[H:9])[H:7]"
O        1.72269666      -1.45910186      -0.51908491
C        1.37840947      -0.09903555      -0.65485181
C        0.71439411       0.33053245       0.66270721
C       -0.86358654       1.21230038       0.27094987
C       -0.65323418      -0.20182899       0.78561906
O       -1.02895515      -1.22623294      -0.11604443
H        0.89672704      -1.95287038      -0.49348093
H        0.75625457       0.06162460      -1.54738899
H        2.31425980       0.44285854      -0.79115447
H        0.26212940       1.62703121       0.34340801
H       -1.22175786       1.24297060      -0.75300081
H       -1.32275698       1.90967216       0.96344605
H       -1.02011615      -0.40198236       1.79050273
H       -1.93446414      -1.48593791       0.05837340
14
Frame=1 idx=003356 GeodesicLength=0.058035790744970374 rxn_smarts="[O:1]([C:2]([C@@:3]1([H:10])[C:4]([H:11])([H:12])[C@:5]1([O:6][H:14])[H:13])([H:8])[H:9])[H:7]>>[O:1]([C:2]([C:3][C@@:5]([C:4]([H:10])([H:11])[H:12])([O:6][H:14])[H:13])([H:8])[H:9])[H:7]"
O        1.72714901      -1.45794835      -0.49924269
C        1.37923015      -0.10092275      -0.66485501
C        0.71611518       0.32873666       0.64890374
C       -0.86478149       1.21364173       0.27471360
C       -0.65163651      -0.20201715       0.78163784
O       -1.03251720      -1.22481087      -0.11981795
H        0.90265333      -1.95489408      -0.48062953
H        0.75313223       0.04133083      -1.55712803
H        2.31280454       0.44246566      -0.80939048
H        0.26817224       1.64261632       0.37316686
H       -1.21350019       1.25257224      -0.75236258
H       -1.34749016       1.89590942       0.96624188
H       -1.00661639      -0.40468696       1.79028791
H       -1.94271475      -1.47199270       0.04847444
14
Frame=2 idx=003356 GeodesicLength=0.1160708584893653 rxn_smarts="[O:1]([C:2]([C@@:3]1([H:10])[C:4]([H:11])([H:12])[C@:5]1([O:6][H:14])[H:13])([H:8])[H:9])[H:7]>>[O:1]([C:2]([C:3][C@@:5]([C:4]([H:10])([H:11])[H:12])([O:6][H:14])[H:13])([H:8])[H:9])[H:7]"
O        1.73144139      -1.45631909      -0.47970029
C        1.37991020      -0.10296480      -0.67504774
C        0.71769873       0.32731009       0.63479335
C       -0.86599802       1.21508300       0.27845111
C       -0.65002283      -0.20209859       0.77761564
O       -1.03607000      -1.22335276      -0.12351830
H        0.90867921      -1.95673863      -0.46744635
H        0.75006196       0.02074242      -1.56683163
H        2.31117823       0.44181326      -0.82789548
H        0.27406895       1.65741181       0.40447807
H       -1.20502957       1.26236597      -0.75166589
H       -1.37221956       1.88195001       0.96819069
H       -0.99296667      -0.40723883       1.78992657
H       -1.95073201      -1.45796386       0.03865023
14
Frame=3 idx=003356 GeodesicLength=0.17410471297413382 rxn_smarts="[O:1]([C:2]([C@@:3]1([H:10])[C:4]([H:11])([H:12])[C@:5]1([O:6][H:14])[H:13])([H:8])[H:9])[H:7]>>[O:1]([C:2]([C:3][C@@:5]([C:4]([H:10])([H:11])[H:12])([O:6][H:14])[H:13])([H:8])[H:9])[H:7]"
O        1.73559351      -1.45420356      -0.46042747
C        1.38045046      -0.10516131      -0.68543301
C        0.71913557       0.32627708       0.62035844
C       -0.86724532       1.21663408       0.28216221
C       -0.64839247      -0.20206558       0.77354285
O       -1.03961340      -1.22185246      -0.12715257
H        0.91480810      -1.95838160      -0.45391464
H        0.74704066      -0.00015838      -1.57649473
H        2.30937597       0.44090506      -0.84668539
H        0.27980453       1.67131143       0.43734243
H       -1.19638133       1.27236104      -0.75089504
H       -1.39690030       1.86781717       0.96929784
H       -0.97916003      -0.40963120       1.78940779
H       -1.95851595      -1.44385178       0.02889129
14
Frame=4 idx=003356 GeodesicLength=0.23213800601010282 rxn_smarts="[O:1]([C:2]([C@@:3]1([H:10])[C:4]([H:11])([H:12])[C@:5]1([O:6][H:14])[H:13])([H:8])[H:9])[H:7]>>[O:1]([C:2]([C:3][C@@:5]([C:4]([H:10])([H:11])[H:12])([O:6][H:14])[H:13])([H:8])[H:9])[H:7]"
O        1.73962350      -1.45158720      -0.44139181
C        1.38085169      -0.10751142      -0.69601247
C        0.72041558       0.32566246       0.60558188
C       -0.86853292       1.21830524       0.28584724
C       -0.64674551      -0.20191024       0.76940936
O       -1.04314749      -1.22030388      -0.13072881
H        0.92104475      -1.95979842      -0.44001492
H        0.74406668      -0.02138847      -1.58611028
H        2.30739364       0.43974283      -0.86577518
H        0.28536704       1.68420285       0.47174744
H       -1.18759557       1.28256616      -0.75003376
H       -1.42148479       1.85353632       0.96957536
H       -0.96518942      -0.41185921       1.78871980
H       -1.96606717      -1.42965702       0.01918616
14
Frame=5 idx=003356 GeodesicLength=0.2901728839451469 rxn_smarts="[O:1]([C:2]([C@@:3]1([H:10])[C:4]([H:11])([H:12])[C@:5]1([O:6][H:14])[H:13])([H:8])[H:9])[H:7]>>[O:1]([C:2]([C:3][C@@:5]([C:4]([H:10])([H:11])[H:12])([O:6][H:14])[H:13])([H:8])[H:9])[H:7]"
O        1.74354803      -1.44845168      -0.42255841
C        1.38111441      -0.11001373      -0.70678627
C        0.72152743       0.32549176       0.59044784
C       -0.86987089       1.22010741       0.28950760
C       -0.64508301      -0.20162508       0.76520501
O       -1.04667245      -1.21870230      -0.13425640
H        0.92739524      -1.96096331      -0.42572416
H        0.74113993      -0.04296429      -1.59566981
H        2.30522778       0.43832728      -0.88517865
H        0.29074877       1.69596998       0.50766360
H       -1.17871753       1.29298988      -0.74906566
H       -1.44592198       1.83913556       0.96904490
H       -0.95104849      -0.41392082       1.78785095
H       -1.97338723      -1.41538067       0.00951945
14
Frame=6 idx=003356 GeodesicLength=0.348222048462668 rxn_smarts="[O:1]([C:2]([C@@:3]1([H:10])[C:4]([H:11])([H:12])[C@:5]1([O:6][H:14])[H:13])([H:8])[H:9])[H:7]>>[O:1]([C:2]([C:3][C@@:5]([C:4]([H:10])([H:11])[H:12])([O:6][H:14])[H:13])([H:8])[H:9])[H:7]"
O        1.74739123      -1.44478626      -0.40389674
C        1.38124805      -0.11266790      -0.71776203
C        0.72245473       0.32579665       0.57494449
C       -0.87127498       1.22206140       0.29315200
C       -0.64341544      -0.20120480       0.76092842
O       -1.05018810      -1.21706148      -0.13774093
H        0.93387474      -1.96186786      -0.41101965
H        0.73827784      -0.06490799      -1.60517655
H        2.30288740       0.43666383      -0.90492284
H        0.29594245       1.70651209       0.54504444
H       -1.16979306       1.30364745      -0.74797482
H       -1.47016722       1.82466314       0.96775335
H       -0.93675136      -0.41581830       1.78680643
H       -1.98048628      -1.40102997      -0.00013556
14
Frame=7 idx=003356 GeodesicLength=0.4062455673751183 rxn_smarts="[O:1]([C:2]([C@@:3]1([H:10])[C:4]([H:11])([H:12])[C@:5]1([O:6][H:14])[H:13])([H:8])[H:9])[H:7]>>[O:1]([C:2]([C:3][C@@:5]([C:4]([H:10])([H:11])[H:12])([O:6][H:14])[H:13])([H:8])[H:9])[H:7]"
O        1.75114449      -1.44052403      -0.38535529
C        1.38122633      -0.11547136      -0.72890447
C        0.72319112       0.32657033       0.55904437
C       -0.87274544       1.22413725       0.29677171
C       -0.64172185      -0.20063432       0.75653908
O       -1.05368899      -1.21531032      -0.14119822
H        0.94047646      -1.96240903      -0.39587764
H        0.73543860      -0.08721613      -1.61455742
H        2.30033163       0.43471734      -0.92497061
H        0.30096043       1.71563250       0.58381458
H       -1.16088925       1.31451132      -0.74672204
H       -1.49415492       1.81009222       0.96567797
H       -0.92223216      -0.41754089       1.78550606
H       -1.98733645      -1.38655489      -0.00976809
14
Frame=8 idx=003356 GeodesicLength=0.4643177931859031 rxn_smarts="[O:1]([C:2]([C@@:3]1([H:10])[C:4]([H:11])([H:12])[C@:5]1([O:6][H:14])[H:13])([H:8])[H:9])[H:7]>>[O:1]([C:2]([C:3][C@@:5]([C:4]([H:10])([H:11])[H:12])([O:6][H:14])[H:13])([H:8])[H:9])[H:7]"
O        1.75484361      -1.43566633      -0.36690708
C        1.38106816      -0.11841967      -0.74023996
C        0.72371857       0.32786757       0.54275287
C       -0.87429736       1.22638260       0.30038535
C       -0.64002897      -0.19991835       0.75205789
O       -1.05718433      -1.21351950      -0.14463710
H        0.94722626      -1.96262331      -0.38023026
H        0.73265941      -0.10993534      -1.62385858
H        2.29758401       0.43252579      -0.94539335
H        0.30581736       1.72329249       0.62391230
H       -1.15204024       1.32562321      -0.74531626
H       -1.51784247       1.79549883       0.96293235
H       -0.90754322      -0.41911274       1.78400657
H       -1.99398079      -1.37199524      -0.01946473
14
Frame=9 idx=003356 GeodesicLength=0.5223650282565713 rxn_smarts="[O:1]([C:2]([C@@:3]1([H:10])[C:4]([H:11])([H:12])[C@:5]1([O:6][H:14])[H:13])([H:8])[H:9])[H:7]>>[O:1]([C:2]([C:3][C@@:5]([C:4]([H:10])([H:11])[H:12])([O:6][H:14])[H:13])([H:8])[H:9])[H:7]"
O        1.75848609      -1.43017049      -0.34852199
C        1.38076829      -0.12151217      -0.75173116
C        0.72401733       0.32968023       0.52605363
C       -0.87594807       1.22878514       0.30399360
C       -0.63833376      -0.19904234       0.74745775
O       -1.06066445      -1.21163532      -0.14806465
H        0.95412431      -1.96243329      -0.36410146
H        0.72994400      -0.13303959      -1.63301014
H        2.29463808       0.43004728      -0.96613245
H        0.31052739       1.72931552       0.66517481
H       -1.14333542       1.33696216      -0.74371058
H       -1.54117212       1.78090219       0.95953739
H       -0.89266454      -0.42052608       1.78224564
H       -2.00038713      -1.35733326      -0.02919037
14
Frame=10 idx=003356 GeodesicLength=0.5804304963775648 rxn_smarts="[O:1]([C:2]([C@@:3]1([H:10])[C:4]([H:11])([H:12])[C@:5]1([O:6][H:14])[H:13])([H:8])[H:9])[H:7]>>[O:1]([C:2]([C:3][C@@:5]([C:4]([H:10])([H:11])[H:12])([O:6][H:14])[H:13])([H:8])[H:9])[H:7]"
O        1.76207394      -1.42400747      -0.33017442
C        1.38033544      -0.12473494      -0.76336802
C        0.72406988       0.33202650       0.50895926
C       -0.87770409       1.23135755       0.30760665
C       -0.63665550      -0.19800886       0.74274212
O       -1.06414293      -1.20967982      -0.15149837
H        0.96116591      -1.96181708      -0.34748009
H        0.72731571      -0.15652997      -1.64200779
H        2.29151212       0.42729748      -0.98718241
H        0.31514300       1.73362621       0.70746737
H       -1.13482743       1.34852605      -0.74190414
H       -1.56408941       1.76635561       0.95556487
H       -0.87762452      -0.42179308       1.78023587
H       -2.00657214      -1.34261817      -0.03896089
14
Frame=11 idx=003356 GeodesicLength=0.6385086681578637 rxn_smarts="[O:1]([C:2]([C@@:3]1([H:10])[C:4]([H:11])([H:12])[C@:5]1([O:6][H:14])[H:13])([H:8])[H:9])[H:7]>>[O:1]([C:2]([C:3][C@@:5]([C:4]([H:10])([H:11])[H:12])([O:6][H:14])[H:13])([H:8])[H:9])[H:7]"
O        1.76561211      -1.41713635      -0.31183484
C        1.37976565      -0.12808132      -0.77512459
C        0.72385829       0.33490522       0.49147218
C       -0.87957767       1.23409616       0.31123432
C       -0.63500239      -0.19681634       0.73790221
O       -1.06761894      -1.20764562      -0.15494692
H        0.96835941      -1.96072601      -0.33034619
H        0.72478067      -0.18040541      -1.65081041
H        2.28820019       0.42426808      -1.00852067
H        0.31971626       1.73611797       0.75061573
H       -1.12658526       1.36030587      -0.73987288
H       -1.58654412       1.75188654       0.95108177
H       -0.86242709      -0.42292654       1.77795457
H       -2.01253712      -1.32784224      -0.04880430
14
Frame=12 idx=003356 GeodesicLength=0.6966009884116365 rxn_smarts="[O:1]([C:2]([C@@:3]1([H:10])[C:4]([H:11])([H:12])[C@:5]1([O:6][H:14])[H:13])([H:8])[H:9])[H:7]>>[O:1]([C:2]([C:3][C@@:5]([C:4]([H:10])([H:11])[H:12])([O:6][H:14])[H:13])([H:8])[H:9])[H:7]"
O        1.76910181      -1.40951958      -0.29348177
C        1.37905874      -0.13154200      -0.78697417
C        0.72336355       0.33831112       0.47360262
C       -0.88157934       1.23699862       0.31488880
C       -0.63338796      -0.19546543       0.73293444
O       -1.07109558      -1.20553185      -0.15842026
H        0.97570844      -1.95911665      -0.31268940
H        0.72235354      -0.20466070      -1.65938055
H        2.28470379       0.42095575      -1.03012022
H        0.32431476       1.73670817       0.79443231
H       -1.11867029       1.37229165      -0.73759780
H       -1.60849751       1.73752533       0.94615977
H       -0.84708752      -0.42394117       1.77538816
H       -2.01828643      -1.31301326      -0.05874193
14
Frame=13 idx=003356 GeodesicLength=0.7547109803771785 rxn_smarts="[O:1]([C:2]([C@@:3]1([H:10])[C:4]([H:11])([H:12])[C@:5]1([O:6][H:14])[H:13])([H:8])[H:9])[H:7]>>[O:1]([C:2]([C:3][C@@:5]([C:4]([H:10])([H:11])[H:12])([O:6][H:14])[H:13])([H:8])[H:9])[H:7]"
O        1.77254173      -1.40112087      -0.27509947
C        1.37821444      -0.13510617      -0.79888708
C        0.72256703       0.34223174       0.45536630
C       -0.88371863       1.24005947       0.31858301
C       -0.63182734      -0.19395933       0.72783843
O       -1.07457710      -1.20334043      -0.16192658
H        0.98321455      -1.95694640      -0.29450411
H        0.72005009      -0.22928648      -1.66767843
H        2.28102476       0.41735967      -1.05194821
H        0.32901990       1.73533302       0.83871782
H       -1.11113873       1.38447085      -0.73506250
H       -1.62991954       1.72329899       0.94087044
H       -0.83162497      -0.42485372       1.77252628
H       -2.02382618      -1.29814034      -0.06879589
14
Frame=14 idx=003356 GeodesicLength=0.8128430329430949 rxn_smarts="[O:1]([C:2]([C@@:3]1([H:10])[C:4]([H:11])([H:12])[C@:5]1([O:6][H:14])[H:13])([H:8])[H:9])[H:7]>>[O:1]([C:2]([C:3][C@@:5]([C:4]([H:10])([H:11])[H:12])([O:6][H:14])[H:13])([H:8])[H:9])[H:7]"
O        1.77592793      -1.39190632      -0.25667857
C        1.37723251      -0.13876195      -0.81083132
C        0.72145056       0.34664759       0.43678340
C       -0.88600395       1.24327041       0.32232990
C       -0.63033683      -0.19230316       0.72261656
O       -1.07806884      -1.20107501      -0.16547242
H        0.99087680      -1.95417379      -0.27579083
H        0.71788703      -0.25426943      -1.67566224
H        2.27716538       0.41348119      -1.07396582
H        0.33392495       1.73194787       0.88326791
H       -1.10404016       1.39682877      -0.73225332
H       -1.65079024       1.70923016       0.93528180
H       -0.81606179      -0.42568193       1.76936127
H       -2.02916334      -1.28323440      -0.07898630
14
Frame=15 idx=003356 GeodesicLength=0.8710021291739961 rxn_smarts="[O:1]([C:2]([C@@:3]1([H:10])[C:4]([H:11])([H:12])[C@:5]1([O:6][H:14])[H:13])([H:8])[H:9])[H:7]>>[O:1]([C:2]([C:3][C@@:5]([C:4]([H:10])([H:11])[H:12])([O:6][H:14])[H:13])([H:8])[H:9])[H:7]"
O        1.77925448      -1.38184493      -0.23821613
C        1.37611232      -0.14249681      -0.82277371
C        0.71999691       0.35153274       0.41787758
C       -0.88844251       1.24662019       0.32614199
C       -0.62893337      -0.19050379       0.71727407
O       -1.08157673      -1.19874104      -0.16906181
H        0.99869246      -1.95075899      -0.25655479
H        0.71588109      -0.27959359      -1.68328872
H        2.27312723       0.40932401      -1.09613088
H        0.33913226       1.72652651       0.92788063
H       -1.09741559       1.40934901      -0.72915945
H       -1.67109995       1.69533642       0.92945567
H       -0.80042294      -0.42644366       1.76588846
H       -2.03430567      -1.26830609      -0.08933292
14
Frame=16 idx=003356 GeodesicLength=0.9291935673335138 rxn_smarts="[O:1]([C:2]([C@@:3]1([H:10])[C:4]([H:11])([H:12])[C@:5]1([O:6][H:14])[H:13])([H:8])[H:9])[H:7]>>[O:1]([C:2]([C:3][C@@:5]([C:4]([H:10])([H:11])[H:12])([O:6][H:14])[H:13])([H:8])[H:9])[H:7]"
O        1.78251354      -1.37090935      -0.21971524
C        1.37485312      -0.14629782      -0.83468081
C        0.71818988       0.35685608       0.39867498
C       -0.89104037       1.25009520       0.33003057
C       -0.62763406      -0.18856945       0.71181880
O       -1.08510726      -1.19634545      -0.17269632
H        1.00665671      -1.94666443      -0.23680646
H        0.71404886      -0.30524065      -1.69051412
H        2.26891158       0.40489396      -1.11839850
H        0.34475009       1.71905962       0.97236260
H       -1.09129717       1.42201399      -0.72577346
H       -1.69084855       1.68163069       0.92344561
H       -0.78473514      -0.42715603       1.76210614
H       -2.03926124      -1.25336636      -0.09985378
