19
Frame=0 idx=007429 GeodesicLength=0.0 rxn_smarts="[C:1]([C:2]([C@@:3]1([H:13])[C:4]([H:14])([H:15])[C@@:5]2([H:16])[C:6]([H:17])([H:18])[C@@:7]12[H:19])([H:11])[H:12])([H:8])([H:9])[H:10]>>[C:1]([C:2]([C@:3]1([H:13])[C:4]([H:14])([H:15])[C@@:5]([C:6][H:17])([H:16])[C:7]1([H:18])[H:19])([H:11])[H:12])([H:8])([H:9])[H:10]"
C        2.38862063       0.45946993      -0.68706182
C        1.14156900      -0.41082346      -0.76310474
C        0.25218933      -0.25809914       0.45675371
C       -0.48253221       1.09355456       0.66843041
C       -1.81588066       0.33880792       0.70089203
C       -2.30973781      -0.11062720      -0.60373001
C       -1.09839806      -1.00369534       0.44810396
H        3.00134667       0.35432827      -1.58356272
H        3.00740475       0.19158062       0.17324060
H        2.12587197       1.51542819      -0.58877486
H        0.56007214      -0.15205020      -1.65332261
H        1.42676271      -1.46329479      -0.86734997
H        0.80118434      -0.54004904       1.35860054
H       -0.40738463       1.79528909      -0.16272755
H       -0.21710135       1.59604718       1.59784971
H       -2.48375307       0.40923962       1.55290403
H       -3.19621623      -0.73449468      -0.40264193
H       -1.35419809      -1.20622606      -0.68976057
H       -1.33981935      -1.87438541       1.04526178
19
Frame=1 idx=007429 GeodesicLength=0.054347473069559275 rxn_smarts="[C:1]([C:2]([C@@:3]1([H:13])[C:4]([H:14])([H:15])[C@@:5]2([H:16])[C:6]([H:17])([H:18])[C@@:7]12[H:19])([H:11])[H:12])([H:8])([H:9])[H:10]>>[C:1]([C:2]([C@:3]1([H:13])[C:4]([H:14])([H:15])[C@@:5]([C:6][H:17])([H:16])[C:7]1([H:18])[H:19])([H:11])[H:12])([H:8])([H:9])[H:10]"
C        2.38893590       0.45978896      -0.68570334
C        1.14229690      -0.41107696      -0.76245105
C        0.25149445      -0.25880547       0.45648833
C       -0.48278263       1.09324121       0.66674055
C       -1.81640461       0.33998861       0.70446385
C       -2.30952077      -0.11647020      -0.59646107
C       -1.09883557      -1.00383682       0.44423990
H        3.00315677       0.35357339      -1.58107045
H        3.00646778       0.19338658       0.17595851
H        2.12558423       1.51578662      -0.58930872
H        0.56140832      -0.15337042      -1.65335890
H        1.42867528      -1.46334777      -0.86567947
H        0.80078619      -0.54021231       1.35835620
H       -0.40783506       1.79459212      -0.16488636
H       -0.21578256       1.59663990       1.59523299
H       -2.48177324       0.41088290       1.55851160
H       -3.20112766      -0.73301982      -0.39898924
H       -1.35697743      -1.20609737      -0.70896887
H       -1.33776628      -1.87164315       1.04688554
19
Frame=2 idx=007429 GeodesicLength=0.1086886800644484 rxn_smarts="[C:1]([C:2]([C@@:3]1([H:13])[C:4]([H:14])([H:15])[C@@:5]2([H:16])[C:6]([H:17])([H:18])[C@@:7]12[H:19])([H:11])[H:12])([H:8])([H:9])[H:10]>>[C:1]([C:2]([C@:3]1([H:13])[C:4]([H:14])([H:15])[C@@:5]([C:6][H:17])([H:16])[C:7]1([H:18])[H:19])([H:11])[H:12])([H:8])([H:9])[H:10]"
C        2.38922818       0.46008356      -0.68436892
C        1.14299774      -0.41135283      -0.76176801
C        0.25081590      -0.25950813       0.45627850
C       -0.48305087       1.09291754       0.66508457
C       -1.81691954       0.34114012       0.70803556
C       -2.30921124      -0.12240945      -0.58917411
C       -1.09922761      -1.00401013       0.44053634
H        3.00490264       0.35279783      -1.57862588
H        3.00554253       0.19516214       0.17861920
H        2.12528229       1.51611774      -0.58985053
H        0.56269844      -0.15471473      -1.65335196
H        1.43053831      -1.46342660      -0.86397651
H        0.80044258      -0.54031844       1.35816072
H       -0.40830396       1.79387312      -0.16702098
H       -0.21451029       1.59723854       1.59264490
H       -2.47982879       0.41254574       1.56406841
H       -3.20589747      -0.73160503      -0.39544443
H       -1.35983537      -1.20560360      -0.72845163
H       -1.33566347      -1.86892740       1.04860477
19
Frame=3 idx=007429 GeodesicLength=0.1630175648457516 rxn_smarts="[C:1]([C:2]([C@@:3]1([H:13])[C:4]([H:14])([H:15])[C@@:5]2([H:16])[C:6]([H:17])([H:18])[C@@:7]12[H:19])([H:11])[H:12])([H:8])([H:9])[H:10]>>[C:1]([C:2]([C@:3]1([H:13])[C:4]([H:14])([H:15])[C@@:5]([C:6][H:17])([H:16])[C:7]1([H:18])[H:19])([H:11])[H:12])([H:8])([H:9])[H:10]"
C        2.38949662       0.46035227      -0.68306271
C        1.14366913      -0.41165078      -0.76105440
C        0.25015649      -0.26020665       0.45612956
C       -0.48333686       1.09258249       0.66346762
C       -1.81742678       0.34226235       0.71159994
C       -2.30879680      -0.12845497      -0.58187686
C       -1.09957000      -1.00421894       0.43700665
H        3.00657352       0.35200760      -1.57624120
H        3.00463648       0.19689613       0.18120987
H        2.12496820       1.51641974      -0.59039238
H        0.56393637      -0.15608038      -1.65329750
H        1.43234637      -1.46353134      -0.86224453
H        0.80015991      -0.54036409       1.35801797
H       -0.40878785       1.79313351      -0.16912378
H       -0.21329116       1.59783951       1.59009407
H       -2.47793261       0.41423506       1.56955863
H       -3.21051660      -0.73025549      -0.39202343
H       -1.36277345      -1.20473066      -0.74820883
H       -1.33351098      -1.86623537       1.05044129
19
Frame=4 idx=007429 GeodesicLength=0.2173193948054184 rxn_smarts="[C:1]([C:2]([C@@:3]1([H:13])[C:4]([H:14])([H:15])[C@@:5]2([H:16])[C:6]([H:17])([H:18])[C@@:7]12[H:19])([H:11])[H:12])([H:8])([H:9])[H:10]>>[C:1]([C:2]([C@:3]1([H:13])[C:4]([H:14])([H:15])[C@@:5]([C:6][H:17])([H:16])[C:7]1([H:18])[H:19])([H:11])[H:12])([H:8])([H:9])[H:10]"
C        2.38974050       0.46059383      -0.68178936
C        1.14430963      -0.41197173      -0.76030956
C        0.24951971      -0.26090156       0.45604751
C       -0.48364104       1.09223586       0.66189547
C       -1.81792833       0.34335609       0.71515002
C       -2.30826562      -0.13461685      -0.57457937
C       -1.09985716      -1.00446940       0.43366390
H        3.00815922       0.35120837      -1.57392962
H        3.00375732       0.19857854       0.18371868
H        2.12464292       1.51669205      -0.59092782
H        0.56511650      -0.15746615      -1.65319293
H        1.43409622      -1.46366421      -0.86048703
H        0.79994564      -0.54034717       1.35793397
H       -0.40928432       1.79237616      -0.17118773
H       -0.21213240       1.59844085       1.58759114
H       -2.47609860       0.41595953       1.57496865
H       -3.21497745      -0.72897442      -0.38874437
H       -1.36579531      -1.20346189      -0.76823762
H       -1.33130743      -1.86356790       1.05241605
19
Frame=5 idx=007429 GeodesicLength=0.27164935381468586 rxn_smarts="[C:1]([C:2]([C@@:3]1([H:13])[C:4]([H:14])([H:15])[C@@:5]2([H:16])[C:6]([H:17])([H:18])[C@@:7]12[H:19])([H:11])[H:12])([H:8])([H:9])[H:10]>>[C:1]([C:2]([C@:3]1([H:13])[C:4]([H:14])([H:15])[C@@:5]([C:6][H:17])([H:16])[C:7]1([H:18])[H:19])([H:11])[H:12])([H:8])([H:9])[H:10]"
C        2.38995830       0.46080501      -0.68055064
C        1.14491389      -0.41231274      -0.75953139
C        0.24890433      -0.26159072       0.45603432
C       -0.48396243       1.09187368       0.66037075
C       -1.81842427       0.34441770       0.71867992
C       -2.30760883      -0.14090171      -0.56727544
C       -1.10009175      -1.00475636       0.43052387
H        3.00964934       0.35040455      -1.57169867
H        3.00291039       0.20019530       0.18613361
H        2.12431015       1.51692907      -0.59144604
H        0.56623222      -0.15886477      -1.65303108
H        1.43577692      -1.46382010      -0.85870735
H        0.79980139      -0.54026150       1.35790418
H       -0.40978806       1.79159759      -0.17320476
H       -0.21103746       1.59903417       1.58513737
H       -2.47433585       0.41771954       1.58027823
H       -3.21926430      -0.72777928      -0.38561278
H       -1.36888665      -1.20178393      -0.78856601
H       -1.32905735      -1.86090551       1.05456192
19
Frame=6 idx=007429 GeodesicLength=0.3259587230057587 rxn_smarts="[C:1]([C:2]([C@@:3]1([H:13])[C:4]([H:14])([H:15])[C@@:5]2([H:16])[C:6]([H:17])([H:18])[C@@:7]12[H:19])([H:11])[H:12])([H:8])([H:9])[H:10]>>[C:1]([C:2]([C@:3]1([H:13])[C:4]([H:14])([H:15])[C@@:5]([C:6][H:17])([H:16])[C:7]1([H:18])[H:19])([H:11])[H:12])([H:8])([H:9])[H:10]"
C        2.39015188       0.46098459      -0.67934786
C        1.14548392      -0.41267627      -0.75872177
C        0.24831448      -0.26227531       0.45609367
C       -0.48430456       1.09149810       0.65889454
C       -1.81891788       0.34544727       0.72218724
C       -2.30682456      -0.14732023      -0.55997400
C       -1.10026489      -1.00509219       0.42759102
H        3.01104355       0.34959737      -1.56955424
H        3.00210049       0.20173889       0.18845306
H        2.12397075       1.51713222      -0.59194276
H        0.56728390      -0.16027756      -1.65281619
H        1.43739067      -1.46400476      -0.85691099
H        0.79973375      -0.54010567       1.35793687
H       -0.41030427       1.79080082      -0.17517789
H       -0.21001186       1.59962530       1.58273784
H       -2.47265317       0.41952386       1.58548830
H       -3.22337971      -0.72667111      -0.38263899
H       -1.37206172      -1.19966627      -0.80918682
H       -1.32675077      -1.85825905       1.05688898
19
Frame=7 idx=007429 GeodesicLength=0.3802160755282234 rxn_smarts="[C:1]([C:2]([C@@:3]1([H:13])[C:4]([H:14])([H:15])[C@@:5]2([H:16])[C:6]([H:17])([H:18])[C@@:7]12[H:19])([H:11])[H:12])([H:8])([H:9])[H:10]>>[C:1]([C:2]([C@:3]1([H:13])[C:4]([H:14])([H:15])[C@@:5]([C:6][H:17])([H:16])[C:7]1([H:18])[H:19])([H:11])[H:12])([H:8])([H:9])[H:10]"
C        2.39032199       0.46113061      -0.67817987
C        1.14601816      -0.41306104      -0.75788063
C        0.24775009      -0.26295519       0.45622471
C       -0.48466886       1.09110588       0.65746352
C       -1.81941048       0.34644040       0.72566889
C       -2.30591408      -0.15388057      -0.55267238
C       -1.10037496      -1.00548220       0.42486891
H        3.01234102       0.34878836      -1.56749537
H        3.00132882       0.20320108       0.19067444
H        2.12362803       1.51729805      -0.59241121
H        0.56827166      -0.16170147      -1.65254629
H        1.43893217      -1.46421553      -0.85510149
H        0.79974348      -0.53987550       1.35802989
H       -0.41083402       1.78998040      -0.17711020
H       -0.20905681       1.60021222       1.58038680
H       -2.47105448       0.42137419       1.59059284
H       -3.22732051      -0.72565974      -0.37982057
H       -1.37531771      -1.19707532      -0.83010523
H       -1.32438351      -1.85562462       1.05941324
19
Frame=8 idx=007429 GeodesicLength=0.4344763928192666 rxn_smarts="[C:1]([C:2]([C@@:3]1([H:13])[C:4]([H:14])([H:15])[C@@:5]2([H:16])[C:6]([H:17])([H:18])[C@@:7]12[H:19])([H:11])[H:12])([H:8])([H:9])[H:10]>>[C:1]([C:2]([C@:3]1([H:13])[C:4]([H:14])([H:15])[C@@:5]([C:6][H:17])([H:16])[C:7]1([H:18])[H:19])([H:11])[H:12])([H:8])([H:9])[H:10]"
C        2.39046763       0.46124446      -0.67704621
C        1.14652121      -0.41347392      -0.75700530
C        0.24721310      -0.26363288       0.45642882
C       -0.48505439       1.09069471       0.65607669
C       -1.81990085       0.34739278       0.72912979
C       -2.30487730      -0.16058732      -0.54536204
C       -1.10041876      -1.00592955       0.42235953
H        3.01354914       0.34797012      -1.56551628
H        3.00059053       0.20460256       0.19280837
H        2.12327229       1.51742869      -0.59287040
H        0.56920055      -0.16315185      -1.65222276
H        1.44041355      -1.46445946      -0.85326599
H        0.79983153      -0.53957209       1.35818521
H       -0.41138018       1.78912983      -0.17900713
H       -0.20817068       1.60079545       1.57808190
H       -2.46953344       0.42326320       1.59560115
H       -3.23109260      -0.72473916      -0.37715249
H       -1.37867863      -1.19396915      -0.85135706
H       -1.32195270      -1.85300641       1.06213421
19
Frame=9 idx=007429 GeodesicLength=0.48873846548124544 rxn_smarts="[C:1]([C:2]([C@@:3]1([H:13])[C:4]([H:14])([H:15])[C@@:5]2([H:16])[C:6]([H:17])([H:18])[C@@:7]12[H:19])([H:11])[H:12])([H:8])([H:9])[H:10]>>[C:1]([C:2]([C@:3]1([H:13])[C:4]([H:14])([H:15])[C@@:5]([C:6][H:17])([H:16])[C:7]1([H:18])[H:19])([H:11])[H:12])([H:8])([H:9])[H:10]"
C        2.39059005       0.46132521      -0.67594596
C        1.14699493      -0.41391764      -0.75609465
C        0.24670430      -0.26431071       0.45670620
C       -0.48546290       1.09026136       0.65472884
C       -1.82038953       0.34829847       0.73257269
C       -2.30371958      -0.16744856      -0.53803535
C       -1.10039399      -1.00644201       0.42006279
H        3.01467830       0.34712844      -1.56360813
H        2.99988086       0.20595733       0.19486491
H        2.12290168       1.51752364      -0.59333357
H        0.57007387      -0.16463242      -1.65184551
H        1.44183893      -1.46473878      -0.85139972
H        0.79999832      -0.53919447       1.35840454
H       -0.41194885       1.78824261      -0.18087690
H       -0.20735409       1.60137897       1.57581349
H       -2.46808370       0.42518197       1.60052231
H       -3.23470158      -0.72391039      -0.37462601
H       -1.38215366      -1.19029243      -0.87296480
H       -1.31945337      -1.85041057       1.06505483
19
Frame=10 idx=007429 GeodesicLength=0.542977769514057 rxn_smarts="[C:1]([C:2]([C@@:3]1([H:13])[C:4]([H:14])([H:15])[C@@:5]2([H:16])[C:6]([H:17])([H:18])[C@@:7]12[H:19])([H:11])[H:12])([H:8])([H:9])[H:10]>>[C:1]([C:2]([C@:3]1([H:13])[C:4]([H:14])([H:15])[C@@:5]([C:6][H:17])([H:16])[C:7]1([H:18])[H:19])([H:11])[H:12])([H:8])([H:9])[H:10]"
C        2.39068704       0.46136994      -0.67488386
C        1.14743459      -0.41439161      -0.75514970
C        0.24622561      -0.26498952       0.45706104
C       -0.48589428       1.08980359       0.65342643
C       -1.82087871       0.34915695       0.73598744
C       -2.30242797      -0.17447465      -0.53070084
C       -1.10029713      -1.00702493       0.41799254
H        3.01571987       0.34626126      -1.56178052
H        2.99920172       0.20725839       0.19683510
H        2.12251497       1.51757968      -0.59380140
H        0.57088269      -0.16613670      -1.65141096
H        1.44320076      -1.46505255      -0.84951148
H        0.80024961      -0.53874160       1.35868964
H       -0.41253258       1.78732214      -0.18270752
H       -0.20661539       1.60195309       1.57359495
H       -2.46671895       0.42713619       1.60533689
H       -3.23813286      -0.72318499      -0.37226307
H       -1.38573759      -1.18602017      -0.89492697
H       -1.31688139      -1.84782449       1.06821230
19
Frame=11 idx=007429 GeodesicLength=0.5972111083452015 rxn_smarts="[C:1]([C:2]([C@@:3]1([H:13])[C:4]([H:14])([H:15])[C@@:5]2([H:16])[C:6]([H:17])([H:18])[C@@:7]12[H:19])([H:11])[H:12])([H:8])([H:9])[H:10]>>[C:1]([C:2]([C@:3]1([H:13])[C:4]([H:14])([H:15])[C@@:5]([C:6][H:17])([H:16])[C:7]1([H:18])[H:19])([H:11])[H:12])([H:8])([H:9])[H:10]"
C        2.39075855       0.46137874      -0.67386037
C        1.14784355      -0.41490112      -0.75416719
C        0.24577925      -0.26567177       0.45749593
C       -0.48634943       1.08931843       0.65216727
C       -1.82136879       0.34996293       0.73937540
C       -2.30100241      -0.18167552      -0.52335372
C       -1.10012350      -1.00768517       0.41615260
H        3.01667594       0.34536609      -1.56003270
H        2.99855458       0.20851379       0.19872080
H        2.12210862       1.51759724      -0.59427854
H        0.57163001      -0.16767587      -1.65091803
H        1.44450572      -1.46540644      -0.84759349
H        0.80058786      -0.53821296       1.35904377
H       -0.41313663       1.78636105      -0.18450575
H       -0.20595553       1.60252038       1.57142169
H       -2.46543967       0.42912560       1.61004783
H       -3.24138749      -0.72256589      -0.37006064
H       -1.38944770      -1.18109729      -0.91726759
H       -1.31423294      -1.84525221       1.07161274
19
Frame=12 idx=007429 GeodesicLength=0.6514407713133182 rxn_smarts="[C:1]([C:2]([C@@:3]1([H:13])[C:4]([H:14])([H:15])[C@@:5]2([H:16])[C:6]([H:17])([H:18])[C@@:7]12[H:19])([H:11])[H:12])([H:8])([H:9])[H:10]>>[C:1]([C:2]([C@:3]1([H:13])[C:4]([H:14])([H:15])[C@@:5]([C:6][H:17])([H:16])[C:7]1([H:18])[H:19])([H:11])[H:12])([H:8])([H:9])[H:10]"
C        2.39080655       0.46134926      -0.67287152
C        1.14822426      -0.41544933      -0.75314544
C        0.24536521      -0.26635762       0.45800911
C       -0.48683183       1.08880233       0.65094232
C       -1.82185989       0.35070676       0.74274171
C       -2.29944997      -0.18906156      -0.51598059
C       -1.09987046      -1.00842902       0.41454202
H        3.01755596       0.34443535      -1.55835407
H        2.99793541       0.20972754       0.20053098
H        2.12168323       1.51757314      -0.59477020
H        0.57232343      -0.16925696      -1.65036788
H        1.44575650      -1.46580290      -0.84563743
H        0.80101196      -0.53760093       1.35946640
H       -0.41377140       1.78534752      -0.18628685
H       -0.20537389       1.60308780       1.56927592
H       -2.46423835       0.43113772       1.61466471
H       -3.24447021      -0.72206019      -0.36800311
H       -1.39329701      -1.17545049      -0.94001262
H       -1.31149952      -1.84269841       1.07525653
19
Frame=13 idx=007429 GeodesicLength=0.7056663922263785 rxn_smarts="[C:1]([C:2]([C@@:3]1([H:13])[C:4]([H:14])([H:15])[C@@:5]2([H:16])[C:6]([H:17])([H:18])[C@@:7]12[H:19])([H:11])[H:12])([H:8])([H:9])[H:10]>>[C:1]([C:2]([C@:3]1([H:13])[C:4]([H:14])([H:15])[C@@:5]([C:6][H:17])([H:16])[C:7]1([H:18])[H:19])([H:11])[H:12])([H:8])([H:9])[H:10]"
C        2.39083033       0.46127937      -0.67191988
C        1.14857783      -0.41604153      -0.75208353
C        0.24498625      -0.26704958       0.45860502
C       -0.48734379       1.08825385       0.64975267
C       -1.82235425       0.35138523       0.74608352
C       -2.29776586      -0.19664488      -0.50858314
C       -1.09953244      -1.00926518       0.41317008
H        3.01835720       0.34346807      -1.55675068
H        2.99734661       0.21089899       0.20226381
H        2.12123459       1.51750647      -0.59527856
H        0.57296265      -0.17088739      -1.64976151
H        1.44695665      -1.46624882      -0.84364044
H        0.80152689      -0.53690386       1.35996369
H       -0.41443975       1.78427952      -0.18805242
H       -0.20487568       1.60365651       1.56716040
H       -2.46312219       0.43317496       1.61918305
H       -3.24737560      -0.72167588      -0.36609814
H       -1.39729520      -1.16902109      -0.96317710
H       -1.30867424      -1.84016475       1.07916317
19
Frame=14 idx=007429 GeodesicLength=0.7598820295348395 rxn_smarts="[C:1]([C:2]([C@@:3]1([H:13])[C:4]([H:14])([H:15])[C@@:5]2([H:16])[C:6]([H:17])([H:18])[C@@:7]12[H:19])([H:11])[H:12])([H:8])([H:9])[H:10]>>[C:1]([C:2]([C@:3]1([H:13])[C:4]([H:14])([H:15])[C@@:5]([C:6][H:17])([H:16])[C:7]1([H:18])[H:19])([H:11])[H:12])([H:8])([H:9])[H:10]"
C        2.39082803       0.46116768      -0.67100747
C        1.14890349      -0.41668109      -0.75097791
C        0.24464478      -0.26774932       0.45928703
C       -0.48788488       1.08766730       0.64859746
C       -1.82285211       0.35199216       0.74939485
C       -2.29594151      -0.20444082      -0.50116132
C       -1.09910466      -1.01020085       0.41204704
H        3.01907427       0.34246532      -1.55522581
H        2.99678924       0.21202934       0.20391379
H        2.12075964       1.51739358      -0.59580531
H        0.57354580      -0.17257422      -1.64909335
H        1.44810541      -1.46674559      -0.84159654
H        0.80213663      -0.53611741       1.36053706
H       -0.41513990       1.78314900      -0.18980284
H       -0.20446347       1.60422172       1.56507265
H       -2.46209726       0.43523661       1.62359132
H       -3.25009546      -0.72142193      -0.36435216
H       -1.40145476      -1.16174371      -0.98677044
H       -1.30575327      -1.83764777       1.08335195
19
Frame=15 idx=007429 GeodesicLength=0.8140954722705223 rxn_smarts="[C:1]([C:2]([C@@:3]1([H:13])[C:4]([H:14])([H:15])[C@@:5]2([H:16])[C:6]([H:17])([H:18])[C@@:7]12[H:19])([H:11])[H:12])([H:8])([H:9])[H:10]>>[C:1]([C:2]([C@:3]1([H:13])[C:4]([H:14])([H:15])[C@@:5]([C:6][H:17])([H:16])[C:7]1([H:18])[H:19])([H:11])[H:12])([H:8])([H:9])[H:10]"
C        2.39080062       0.46101041      -0.67013430
C        1.14920165      -0.41737123      -0.74982691
C        0.24434281      -0.26845668       0.46005745
C       -0.48845906       1.08703993       0.64747386
C       -1.82335466       0.35251831       0.75267632
C       -2.29397397      -0.21246567      -0.49370886
C       -1.09858103      -1.01124390       0.41117882
H        3.01971289       0.34141236      -1.55377475
H        2.99626215       0.21312202       0.20548504
H        2.12025900       1.51723147      -0.59636023
H        0.57407328      -0.17432163      -1.64836219
H        1.44920198      -1.46729709      -0.83950354
H        0.80284491      -0.53523452       1.36118909
H       -0.41588016       1.78194839      -0.19154530
H       -0.20414493       1.60478743       1.56300722
H       -2.46116456       0.43731439       1.62788931
H       -3.25262499      -0.72131113      -0.36276560
H       -1.40579092      -1.15353612      -1.01081373
H       -1.30272501      -1.83514676       1.08783829
19
Frame=16 idx=007429 GeodesicLength=0.8683076377771459 rxn_smarts="[C:1]([C:2]([C@@:3]1([H:13])[C:4]([H:14])([H:15])[C@@:5]2([H:16])[C:6]([H:17])([H:18])[C@@:7]12[H:19])([H:11])[H:12])([H:8])([H:9])[H:10]>>[C:1]([C:2]([C@:3]1([H:13])[C:4]([H:14])([H:15])[C@@:5]([C:6][H:17])([H:16])[C:7]1([H:18])[H:19])([H:11])[H:12])([H:8])([H:9])[H:10]"
C        2.39074721       0.46080455      -0.66930505
C        1.14947269      -0.41811728      -0.74862871
C        0.24408409      -0.26917387       0.46092269
C       -0.48906920       1.08636869       0.64638445
C       -1.82386492       0.35295828       0.75592243
C       -2.29185157      -0.22073675      -0.48622966
C       -1.09795397      -1.01240453       0.41057971
H        3.02026882       0.34030598      -1.55240633
H        2.99576920       0.21417507       0.20697151
H        2.11972949       1.51701806      -0.59694766
H        0.57454237      -0.17613691      -1.64756626
H        1.45024784      -1.46790983      -0.83735899
H        0.80365887      -0.53425118       1.36192673
H       -0.41666290       1.78067408      -0.19327932
H       -0.20392997       1.60535269       1.56096896
H       -2.46033677       0.43940951       1.63206613
H       -3.25495275      -0.72135405      -0.36135267
H       -1.41031689      -1.14432182      -1.03531748
H       -1.29958164      -1.83266069       1.09264952
