17
Frame=0 idx=011437 GeodesicLength=0.0 rxn_smarts="[C:1]([C@:2]1([O:3][H:11])[C:4]([H:12])([H:13])[C@@:5]1([C:6]([H:14])([H:15])[H:16])[O:7][H:17])([H:8])([H:9])[H:10]>>[C:1]([C:2]([O:3][H:11])=[C:4]([H:12])[H:13])([H:8])([H:9])[H:10].[C:5]([C:6]([H:14])([H:15])[H:16])[O:7][H:17]"
C       -1.90038838      -0.40093493      -0.25579933
C       -0.84403460       0.45500669       0.36600505
O       -0.99931305       1.78859858       0.04208471
C       -0.12864218       0.09263844       1.46449950
C        0.80654298       0.06838796      -0.81806985
C        1.68831415      -1.12061145      -0.57537394
O        1.54404677       1.16949473      -0.83464163
H       -2.84154255      -0.27099388       0.28457324
H       -2.04446712      -0.11516824      -1.29544078
H       -1.61216303      -1.45040586      -0.21603760
H       -0.71095388       2.31095684       0.79435572
H        0.52830807       0.79136659       1.96716036
H       -0.16814005      -0.92130865       1.83301591
H        2.53512333      -0.93463702       0.09106706
H        1.11015713      -1.97192539      -0.22028083
H        2.09045564      -1.38367347      -1.55956673
H        0.94669676       1.89320910      -1.06755080
17
Frame=1 idx=011437 GeodesicLength=0.07232359826764595 rxn_smarts="[C:1]([C@:2]1([O:3][H:11])[C:4]([H:12])([H:13])[C@@:5]1([C:6]([H:14])([H:15])[H:16])[O:7][H:17])([H:8])([H:9])[H:10]>>[C:1]([C:2]([O:3][H:11])=[C:4]([H:12])[H:13])([H:8])([H:9])[H:10].[C:5]([C:6]([H:14])([H:15])[H:16])[O:7][H:17]"
C       -1.90508589      -0.39801778      -0.25308698
C       -0.85027377       0.45862521       0.37010668
O       -0.99540794       1.79144817       0.03528430
C       -0.13155976       0.09794477       1.47069097
C        0.81702440       0.05834418      -0.79711687
C        1.70937662      -1.13005373      -0.59604100
O        1.55037212       1.16364793      -0.82744813
H       -2.85685178      -0.23997136       0.26027277
H       -2.02079782      -0.13650315      -1.30301255
H       -1.63394823      -1.45049471      -0.18335153
H       -0.74146772       2.31812719       0.79687202
H        0.50161694       0.80666945       1.98969694
H       -0.19049140      -0.90859287       1.85688437
H        2.58092978      -0.94407193       0.03773822
H        1.14657664      -1.98413608      -0.22289767
H        2.07536004      -1.39011354      -1.59502086
H        0.94462776       1.88714825      -1.03957068
17
Frame=2 idx=011437 GeodesicLength=0.1431947952177315 rxn_smarts="[C:1]([C@:2]1([O:3][H:11])[C:4]([H:12])([H:13])[C@@:5]1([C:6]([H:14])([H:15])[H:16])[O:7][H:17])([H:8])([H:9])[H:10]>>[C:1]([C:2]([O:3][H:11])=[C:4]([H:12])[H:13])([H:8])([H:9])[H:10].[C:5]([C:6]([H:14])([H:15])[H:16])[O:7][H:17]"
C       -1.90938684      -0.39508778      -0.25047398
C       -0.85629113       0.46207957       0.37460973
O       -0.99099814       1.79405480       0.02912182
C       -0.13507318       0.10308670       1.47786461
C        0.82816550       0.04802591      -0.77451763
C        1.73029127      -1.13909918      -0.61706421
O        1.55662391       1.15772375      -0.82046639
H       -2.87097220      -0.20928361       0.23422188
H       -1.99612609      -0.15854393      -1.30946601
H       -1.65628027      -1.44963917      -0.15066342
H       -0.77088025       2.32499427       0.79821470
H        0.47356345       0.82135231       2.01300569
H       -0.21410368      -0.89537205       1.88146792
H        2.62618389      -0.95238912      -0.01838639
H        1.18461098      -1.99616156      -0.22535384
H        2.05796857      -1.39615025      -1.63000394
H        0.94270422       1.88040934      -1.01211053
17
Frame=3 idx=011437 GeodesicLength=0.2124933656798397 rxn_smarts="[C:1]([C@:2]1([O:3][H:11])[C:4]([H:12])([H:13])[C@@:5]1([C:6]([H:14])([H:15])[H:16])[O:7][H:17])([H:8])([H:9])[H:10]>>[C:1]([C:2]([O:3][H:11])=[C:4]([H:12])[H:13])([H:8])([H:9])[H:10].[C:5]([C:6]([H:14])([H:15])[H:16])[O:7][H:17]"
C       -1.91324791      -0.39210565      -0.24800690
C       -0.86202796       0.46535675       0.37953371
O       -0.98601108       1.79643095       0.02368579
C       -0.13923606       0.10798008       1.48610582
C        0.84002131       0.03740529      -0.75017562
C        1.75097633      -1.14768602      -0.63830322
O        1.56265729       1.15172217      -0.81405177
H       -2.88375852      -0.17900810       0.20644187
H       -1.97045979      -0.18113818      -1.31476586
H       -1.67916359      -1.44778470      -0.11818939
H       -0.79894857       2.33157137       0.79857040
H        0.44429185       0.83523921       2.03703755
H       -0.23894792      -0.88179964       1.90663133
H        2.67046507      -0.95938971      -0.07705441
H        1.22431960      -2.00799252      -0.22771639
H        2.03837100      -1.40173252      -1.66412064
H        0.94069894       1.87293123      -0.98562227
17
Frame=4 idx=011437 GeodesicLength=0.2804330106038733 rxn_smarts="[C:1]([C@:2]1([O:3][H:11])[C:4]([H:12])([H:13])[C@@:5]1([C:6]([H:14])([H:15])[H:16])[O:7][H:17])([H:8])([H:9])[H:10]>>[C:1]([C:2]([O:3][H:11])=[C:4]([H:12])[H:13])([H:8])([H:9])[H:10].[C:5]([C:6]([H:14])([H:15])[H:16])[O:7][H:17]"
C       -1.91672432      -0.38911672      -0.24577458
C       -0.86745273       0.46847353       0.38489652
O       -0.98048150       1.79873483       0.01904274
C       -0.14398520       0.11255965       1.49552723
C        0.85268330       0.02651718      -0.72397697
C        1.77139277      -1.15584539      -0.65962683
O        1.56837625       1.14576311      -0.80849628
H       -2.89522932      -0.14924353       0.17684354
H       -1.94397285      -0.20422449      -1.31896093
H       -1.70266856      -1.44505928      -0.08612592
H       -0.82544347       2.33808270       0.79811438
H        0.41411425       0.84828544       2.06180373
H       -0.26486844      -0.86809904       1.93232286
H        2.71346833      -0.96501624      -0.13788561
H        1.26569998      -2.01977801      -0.23018494
H        2.01669361      -1.40688944      -1.69702605
H        0.93839791       1.86485570      -0.96049289
17
Frame=5 idx=011437 GeodesicLength=0.34619792771120034 rxn_smarts="[C:1]([C@:2]1([O:3][H:11])[C:4]([H:12])([H:13])[C@@:5]1([C:6]([H:14])([H:15])[H:16])[O:7][H:17])([H:8])([H:9])[H:10]>>[C:1]([C:2]([O:3][H:11])=[C:4]([H:12])[H:13])([H:8])([H:9])[H:10].[C:5]([C:6]([H:14])([H:15])[H:16])[O:7][H:17]"
C       -1.91929515      -0.38596878      -0.24372827
C       -0.87236987       0.47135696       0.39070108
O       -0.97414678       1.80057067       0.01529179
C       -0.14960234       0.11686780       1.50609001
C        0.86631394       0.01538289      -0.69573334
C        1.79116083      -1.16335456      -0.68095385
O        1.57362399       1.13955549      -0.80421994
H       -2.90466096      -0.12002214       0.14568216
H       -1.91595513      -0.22760692      -1.32183352
H       -1.72634959      -1.44104433      -0.05466630
H       -0.85065569       2.34397373       0.79710532
H        0.38257749       0.86035332       2.08717192
H       -0.29203989      -0.85409519       1.95821232
H        2.75453195      -0.96918603      -0.20112517
H        1.30857969      -2.03101457      -0.23259002
H        1.99255427      -1.41152115      -1.72838889
H        0.93573325       1.85575282      -0.93701529
17
Frame=6 idx=011437 GeodesicLength=0.4099952912224966 rxn_smarts="[C:1]([C@:2]1([O:3][H:11])[C:4]([H:12])([H:13])[C@@:5]1([C:6]([H:14])([H:15])[H:16])[O:7][H:17])([H:8])([H:9])[H:10]>>[C:1]([C:2]([O:3][H:11])=[C:4]([H:12])[H:13])([H:8])([H:9])[H:10].[C:5]([C:6]([H:14])([H:15])[H:16])[O:7][H:17]"
C       -1.92124201      -0.38291246      -0.24192996
C       -0.87683769       0.47406503       0.39691058
O       -0.96733700       1.80230198       0.01235705
C       -0.15577118       0.12092928       1.51784474
C        0.88089115       0.00417924      -0.66563822
C        1.81014257      -1.17032416      -0.70210390
O        1.57829601       1.13342813      -0.80093782
H       -2.91236320      -0.09174761       0.11298858
H       -1.88711909      -0.25139579      -1.32348438
H       -1.75027672      -1.43621294      -0.02398330
H       -0.87393935       2.34983936       0.79544249
H        0.35078366       0.87159226       2.11282032
H       -0.31972809      -0.84014674       1.98423388
H        2.79288243      -0.97211550      -0.26505318
H        1.35220616      -2.04220990      -0.23606683
H        1.96691136      -1.41531091      -1.75782499
H        0.93250098       1.84604072      -0.91557507
17
Frame=7 idx=011437 GeodesicLength=0.47200265166421396 rxn_smarts="[C:1]([C@:2]1([O:3][H:11])[C:4]([H:12])([H:13])[C@@:5]1([C:6]([H:14])([H:15])[H:16])[O:7][H:17])([H:8])([H:9])[H:10]>>[C:1]([C:2]([O:3][H:11])=[C:4]([H:12])[H:13])([H:8])([H:9])[H:10].[C:5]([C:6]([H:14])([H:15])[H:16])[O:7][H:17]"
C       -1.92211092      -0.37996627      -0.24052031
C       -0.88069990       0.47659045       0.40357837
O       -0.95990884       1.80382690       0.01030838
C       -0.16264277       0.12481909       1.53093477
C        0.89677493      -0.00692161      -0.63319403
C        1.82806270      -1.17671392      -0.72309842
O        1.58242867       1.12732848      -0.79885678
H       -2.91788134      -0.06449077       0.07844843
H       -1.85669080      -0.27565276      -1.32397848
H       -1.77408808      -1.43049041       0.00580989
H       -0.89571717       2.35552080       0.79339805
H        0.31819554       0.88215493       2.13907408
H       -0.34821652      -0.82613583       2.01048582
H        2.82861289      -0.97393355      -0.33075736
H        1.39663920      -2.05306763      -0.24009107
H        1.93852888      -1.41852086      -1.78532603
H        0.92871354       1.83565296      -0.89621532
17
Frame=8 idx=011437 GeodesicLength=0.5322008069323897 rxn_smarts="[C:1]([C@:2]1([O:3][H:11])[C:4]([H:12])([H:13])[C@@:5]1([C:6]([H:14])([H:15])[H:16])[O:7][H:17])([H:8])([H:9])[H:10]>>[C:1]([C:2]([O:3][H:11])=[C:4]([H:12])[H:13])([H:8])([H:9])[H:10].[C:5]([C:6]([H:14])([H:15])[H:16])[O:7][H:17]"
C       -1.92156469      -0.37735597      -0.23956132
C       -0.88383789       0.47893657       0.41067503
O       -0.95192812       1.80512447       0.00902221
C       -0.17014466       0.12874904       1.54539311
C        0.91425594      -0.01762288      -0.59820520
C        1.84447785      -1.18252008      -0.74399241
O        1.58617089       1.12132686      -0.79757648
H       -2.92088652      -0.03861190       0.04190141
H       -1.82426610      -0.30066610      -1.32330981
H       -1.79738507      -1.42405703       0.03469998
H       -0.91623511       2.36106644       0.79090569
H        0.28482679       0.89241040       2.16586745
H       -0.37729386      -0.81191636       2.03699664
H        2.86118253      -0.97505875      -0.39827504
H        1.44121386      -2.06354542      -0.24507352
H        1.90685768      -1.42099394      -1.81079480
H        0.92455649       1.82473464      -0.87867295
17
Frame=9 idx=011437 GeodesicLength=0.5907499171034407 rxn_smarts="[C:1]([C@:2]1([O:3][H:11])[C:4]([H:12])([H:13])[C@@:5]1([C:6]([H:14])([H:15])[H:16])[O:7][H:17])([H:8])([H:9])[H:10]>>[C:1]([C:2]([O:3][H:11])=[C:4]([H:12])[H:13])([H:8])([H:9])[H:10].[C:5]([C:6]([H:14])([H:15])[H:16])[O:7][H:17]"
C       -1.91906484      -0.37521555      -0.23927034
C       -0.88603439       0.48109818       0.41823144
O       -0.94328960       1.80618483       0.00856127
C       -0.17833679       0.13282496       1.56140293
C        0.93376663      -0.02759064      -0.56018609
C        1.85887391      -1.18769912      -0.76468901
O        1.58954850       1.11555087      -0.79721130
H       -2.92082778      -0.01444445       0.00302040
H       -1.78907043      -0.32648949      -1.32158851
H       -1.81961791      -1.41702427       0.06235723
H       -0.93573905       2.36640944       0.78814061
H        0.25037857       0.90253145       2.19347939
H       -0.40697300      -0.79749261       2.06380679
H        2.89019893      -0.97575131      -0.46837522
H        1.48565342      -2.07346253      -0.25066697
H        1.87054372      -1.42282605      -1.83391053
H        0.91999010       1.81339628      -0.86310208
17
Frame=10 idx=011437 GeodesicLength=0.6475117945864511 rxn_smarts="[C:1]([C@:2]1([O:3][H:11])[C:4]([H:12])([H:13])[C@@:5]1([C:6]([H:14])([H:15])[H:16])[O:7][H:17])([H:8])([H:9])[H:10]>>[C:1]([C:2]([O:3][H:11])=[C:4]([H:12])[H:13])([H:8])([H:9])[H:10].[C:5]([C:6]([H:14])([H:15])[H:16])[O:7][H:17]"
C       -1.91426538      -0.37417454      -0.23949640
C       -0.88715457       0.48306677       0.42600234
O       -0.93421208       1.80691514       0.00823312
C       -0.18682282       0.13770090       1.57871928
C        0.95557851      -0.03638592      -0.51944662
C        1.87040213      -1.19230129      -0.78561502
O        1.59337447       1.11013702      -0.79596213
H       -2.91738336       0.00714006      -0.03800545
H       -1.75091083      -0.35403724      -1.31861510
H       -1.84017599      -1.40992640       0.08920431
H       -0.95508959       2.37168054       0.78429439
H        0.21500223       0.91362815       2.22134239
H       -0.43646201      -0.78225685       2.09095417
H        2.91443825      -0.97711309      -0.54025556
H        1.52798988      -2.08309626      -0.25863614
H        1.82957580      -1.42311267      -1.85497278
H        0.91611537       1.80213568      -0.84774482
17
Frame=11 idx=011437 GeodesicLength=0.7028760910804772 rxn_smarts="[C:1]([C@:2]1([O:3][H:11])[C:4]([H:12])([H:13])[C@@:5]1([C:6]([H:14])([H:15])[H:16])[O:7][H:17])([H:8])([H:9])[H:10]>>[C:1]([C:2]([O:3][H:11])=[C:4]([H:12])[H:13])([H:8])([H:9])[H:10].[C:5]([C:6]([H:14])([H:15])[H:16])[O:7][H:17]"
C       -1.90631608      -0.37412838      -0.24071742
C       -0.88688126       0.48475005       0.43415734
O       -0.92451896       1.80720743       0.00851883
C       -0.19579476       0.14302668       1.59763465
C        0.98026229      -0.04366003      -0.47485366
C        1.87846553      -1.19601066      -0.80613610
O        1.59717571       1.10526826      -0.79436463
H       -2.90968798       0.02607166      -0.08229676
H       -1.70833531      -0.38293405      -1.31450466
H       -1.85847999      -1.40257905       0.11460467
H       -0.97363913       2.37651950       0.77989458
H        0.17860955       0.92503070       2.24981786
H       -0.46623656      -0.76657771       2.11842465
H        2.93349549      -0.97871446      -0.61553582
H        1.56857877      -2.09189276      -0.26756463
H        1.78139131      -1.42190056      -1.87277876
H        0.91191139       1.79052337      -0.83430015
17
Frame=12 idx=011437 GeodesicLength=0.7565966006691116 rxn_smarts="[C:1]([C@:2]1([O:3][H:11])[C:4]([H:12])([H:13])[C@@:5]1([C:6]([H:14])([H:15])[H:16])[O:7][H:17])([H:8])([H:9])[H:10]>>[C:1]([C:2]([O:3][H:11])=[C:4]([H:12])[H:13])([H:8])([H:9])[H:10].[C:5]([C:6]([H:14])([H:15])[H:16])[O:7][H:17]"
C       -1.89545517      -0.37624359      -0.24215900
C       -0.88521759       0.48605228       0.44196619
O       -0.91464640       1.80674796       0.00760001
C       -0.20431839       0.15008680       1.61720545
C        1.00742990      -0.04933959      -0.42832411
C        1.88194558      -1.19894377      -0.82726228
O        1.60295708       1.10118528      -0.78837935
H       -2.89789036       0.04091636      -0.12833193
H       -1.66247064      -0.41498234      -1.30860030
H       -1.87416661      -1.39597915       0.13985349
H       -0.99321088       2.38107544       0.77275723
H        0.14192638       0.93892934       2.27717226
H       -0.49444643      -0.74916940       2.14608352
H        2.94557152      -0.98237761      -0.69081653
H        1.60325029      -2.10093183      -0.28161858
H        1.72858904      -1.41678310      -1.88882706
H        0.91015268       1.77975692      -0.81831901
17
Frame=13 idx=011437 GeodesicLength=0.8116396944613931 rxn_smarts="[C:1]([C@:2]1([O:3][H:11])[C:4]([H:12])([H:13])[C@@:5]1([C:6]([H:14])([H:15])[H:16])[O:7][H:17])([H:8])([H:9])[H:10]>>[C:1]([C:2]([O:3][H:11])=[C:4]([H:12])[H:13])([H:8])([H:9])[H:10].[C:5]([C:6]([H:14])([H:15])[H:16])[O:7][H:17]"
C       -1.88000072      -0.38088514      -0.24480487
C       -0.88155251       0.48685051       0.44977187
O       -0.90393594       1.80552906       0.00597827
C       -0.21313941       0.15874004       1.63852642
C        1.03871033      -0.05275909      -0.37729569
C        1.87969644      -1.20070423      -0.84868859
O        1.61114652       1.09841474      -0.77852658
H       -2.88038905       0.05106465      -0.17869081
H       -1.61001807      -0.45058318      -1.30137814
H       -1.88635054      -1.39038283       0.16416714
H       -1.01342811       2.38515192       0.76338046
H        0.10343561       0.95514523       2.30496349
H       -0.52273853      -0.73016739       2.17478687
H        2.95009322      -0.98755802      -0.77204614
H        1.63334242      -2.10924564      -0.29801076
H        1.66444608      -1.40842404      -1.90142034
H        0.91068226       1.76981340      -0.80071260
17
Frame=14 idx=011437 GeodesicLength=0.8682659398391018 rxn_smarts="[C:1]([C@:2]1([O:3][H:11])[C:4]([H:12])([H:13])[C@@:5]1([C:6]([H:14])([H:15])[H:16])[O:7][H:17])([H:8])([H:9])[H:10]>>[C:1]([C:2]([O:3][H:11])=[C:4]([H:12])[H:13])([H:8])([H:9])[H:10].[C:5]([C:6]([H:14])([H:15])[H:16])[O:7][H:17]"
C       -1.86035521      -0.38909489      -0.24752191
C       -0.87582571       0.48676030       0.45646139
O       -0.89276867       1.80250359       0.00109198
C       -0.22098060       0.17014380       1.65994191
C        1.07304349      -0.05483308      -0.32383774
C        1.87043288      -1.20097921      -0.87138565
O        1.62397371       1.09686684      -0.75962149
H       -2.85727499       0.05527389      -0.23140150
H       -1.55281868      -0.49159222      -1.29142984
H       -1.89466741      -1.38629317       0.18932623
H       -1.03602601       2.38808187       0.74816981
H        0.06413986       0.97556112       2.33024446
H       -0.54883537      -0.70796210       2.20389661
H        2.94503580      -0.99519871      -0.85483165
H        1.65428651      -2.11788267      -0.32148249
H        1.59191266      -1.39308816      -1.91213144
H        0.91672776       1.76173279      -0.77548867
17
Frame=15 idx=011437 GeodesicLength=0.9314429747921027 rxn_smarts="[C:1]([C@:2]1([O:3][H:11])[C:4]([H:12])([H:13])[C@@:5]1([C:6]([H:14])([H:15])[H:16])[O:7][H:17])([H:8])([H:9])[H:10]>>[C:1]([C:2]([O:3][H:11])=[C:4]([H:12])[H:13])([H:8])([H:9])[H:10].[C:5]([C:6]([H:14])([H:15])[H:16])[O:7][H:17]"
C       -1.83578361      -0.40224318      -0.25020186
C       -0.86763154       0.48528025       0.46200757
O       -0.88033737       1.79691601      -0.00813055
C       -0.22829114       0.18494157       1.68208324
C        1.11136743      -0.05618498      -0.26657966
C        1.85292283      -1.19900212      -0.89599969
O        1.64333565       1.09673060      -0.72951447
H       -2.82741424       0.05238053      -0.28862045
H       -1.48848529      -0.54091197      -1.27782072
H       -1.90032054      -1.38411225       0.21704713
H       -1.06073961       2.38933433       0.72550321
H        0.02376815       1.00139556       2.35299910
H       -0.57420658      -0.68123846       2.23492590
H        2.92905614      -1.00498779      -0.94160984
H        1.66396802      -2.12684949      -0.35411385
H        1.50870489      -1.36712951      -1.92109261
H        0.93008681       1.75568089      -0.74088244
17
Frame=16 idx=011437 GeodesicLength=0.9935558626193096 rxn_smarts="[C:1]([C@:2]1([O:3][H:11])[C:4]([H:12])([H:13])[C@@:5]1([C:6]([H:14])([H:15])[H:16])[O:7][H:17])([H:8])([H:9])[H:10]>>[C:1]([C:2]([O:3][H:11])=[C:4]([H:12])[H:13])([H:8])([H:9])[H:10].[C:5]([C:6]([H:14])([H:15])[H:16])[O:7][H:17]"
C       -1.81347315      -0.41711626      -0.24999744
C       -0.85944349       0.48246209       0.46527739
O       -0.86797546       1.78868581      -0.02186527
C       -0.23310031       0.20096103       1.70029342
C        1.14626757      -0.06132323      -0.21530568
C        1.83327505      -1.19472362      -0.92118692
O        1.66589592       1.09547557      -0.68852249
H       -2.79723453       0.04676443      -0.34158408
H       -1.43026039      -0.59390408      -1.25898611
H       -1.90839112      -1.38123280       0.24763309
H       -1.08493069       2.38853899       0.69546009
H       -0.01114459       1.02913846       2.36762778
H       -0.59537645      -0.65212326       2.26330023
H        2.90816617      -1.01236653      -1.01627717
H        1.66440755      -2.13639473      -0.39704611
H        1.43553674      -1.33245815      -1.93088008
H        0.94778117       1.74961629      -0.69794065
