17
Frame=0 idx=010107 GeodesicLength=0.0 rxn_smarts="[C:1]([C@@:2]1([H:11])[C:3]([H:12])([H:13])[C@:4]1([C:5]([C:6](=[O:7])[H:17])([H:15])[H:16])[H:14])([H:8])([H:9])[H:10]>>[C:1](/[C:2](=[C:4](/[C:3]([C:5]([C:6](=[O:7])[H:17])([H:15])[H:16])([H:12])[H:13])[H:14])[H:11])([H:8])([H:9])[H:10]"
C       -2.10114830      -0.58792092      -0.64264803
C       -1.32133243       0.57996801      -0.16711900
C        0.90261397       1.55696908       0.50564663
C        0.10664916       0.67691237      -0.32197511
C        0.59090550      -0.73253802       0.35754450
C        2.09112030      -0.73335776       0.22806250
O        2.65531070      -0.92752847      -0.81664391
H       -2.08465740      -1.43746765       0.06035679
H       -1.72917907      -0.96360533      -1.59927734
H       -3.14960526      -0.31259228      -0.76756621
H       -1.80201383       1.25853072       0.53193256
H        1.72824620       2.12265914       0.09685011
H        0.57986222       1.76743618       1.51794056
H        0.47173318       0.56743386      -1.34886530
H        0.13734386      -1.56116890      -0.19441180
H        0.27611364      -0.75585804       1.40024568
H        2.64803761      -0.51787196       1.15992732
17
Frame=1 idx=010107 GeodesicLength=0.12010061997357906 rxn_smarts="[C:1]([C@@:2]1([H:11])[C:3]([H:12])([H:13])[C@:4]1([C:5]([C:6](=[O:7])[H:17])([H:15])[H:16])[H:14])([H:8])([H:9])[H:10]>>[C:1](/[C:2](=[C:4](/[C:3]([C:5]([C:6](=[O:7])[H:17])([H:15])[H:16])([H:12])[H:13])[H:14])[H:11])([H:8])([H:9])[H:10]"
C       -2.11488067      -0.57674247      -0.62863979
C       -1.31598928       0.58988775      -0.17902884
C        0.86616827       1.53616536       0.51861157
C        0.10717834       0.66269229      -0.34938738
C        0.62085521      -0.73502597       0.35964608
C        2.11911245      -0.73607784       0.21742617
O        2.68297803      -0.88542750      -0.83450343
H       -2.13592058      -1.39667555       0.10817711
H       -1.73475371      -1.00273066      -1.56083395
H       -3.15297338      -0.28150533      -0.79213807
H       -1.80529387       1.31280462       0.46713389
H        1.68193507       2.13001226       0.12955374
H        0.53641686       1.72544800       1.53277181
H        0.48007633       0.56696508      -1.37276887
H        0.16625226      -1.57360927      -0.17676518
H        0.31731348      -0.77397242       1.40560771
H        2.68152520      -0.56220836       1.15513745
17
Frame=2 idx=010107 GeodesicLength=0.24016457356780324 rxn_smarts="[C:1]([C@@:2]1([H:11])[C:3]([H:12])([H:13])[C@:4]1([C:5]([C:6](=[O:7])[H:17])([H:15])[H:16])[H:14])([H:8])([H:9])[H:10]>>[C:1](/[C:2](=[C:4](/[C:3]([C:5]([C:6](=[O:7])[H:17])([H:15])[H:16])([H:12])[H:13])[H:14])[H:11])([H:8])([H:9])[H:10]"
C       -2.12915922      -0.56471853      -0.61405324
C       -1.31119855       0.59988946      -0.19058538
C        0.82922595       1.51389504       0.53111579
C        0.10710019       0.64800210      -0.37530723
C        0.65142610      -0.73740271       0.36203490
C        2.14767505      -0.73792716       0.20679435
O        2.71094745      -0.83953646      -0.85084852
H       -2.18943749      -1.35092093       0.15620948
H       -1.74095166      -1.04201368      -1.51778933
H       -3.15497421      -0.25170037      -0.81927632
H       -1.80726769       1.36536909       0.39853907
H        1.63396914       2.13534950       0.16179675
H        0.49249778       1.68266628       1.54657095
H        0.48733887       0.56740741      -1.39536035
H        0.19698269      -1.58563134      -0.15975849
H        0.35990973      -0.79293139       1.41109678
H        2.71591588      -0.60979632       1.14882078
17
Frame=3 idx=010107 GeodesicLength=0.3601714005815275 rxn_smarts="[C:1]([C@@:2]1([H:11])[C:3]([H:12])([H:13])[C@:4]1([C:5]([C:6](=[O:7])[H:17])([H:15])[H:16])[H:14])([H:8])([H:9])[H:10]>>[C:1](/[C:2](=[C:4](/[C:3]([C:5]([C:6](=[O:7])[H:17])([H:15])[H:16])([H:12])[H:13])[H:14])[H:11])([H:8])([H:9])[H:10]"
C       -2.14405157      -0.55176220      -0.59905194
C       -1.30702179       0.61008240      -0.20206590
C        0.79185341       1.49022389       0.54303309
C        0.10636655       0.63281526      -0.39989066
C        0.68258487      -0.73954282       0.36481478
C        2.17676531      -0.73880955       0.19628381
O        2.73913502      -0.78968246      -0.86521727
H       -2.24526403      -1.29986537       0.20380304
H       -1.74799758      -1.08116459      -1.46993279
H       -3.15550333      -0.22353962      -0.84902980
H       -1.80751633       1.41522989       0.32717987
H        1.58447665       2.13865686       0.19342626
H        0.44808151       1.63913715       1.55922605
H        0.49358338       0.56860703      -1.41669200
H        0.22948103      -1.59720999      -0.14319881
H        0.40386523      -0.81226026       1.41676864
H        2.75116168      -0.66091562       1.14054364
17
Frame=4 idx=010107 GeodesicLength=0.4801173303137496 rxn_smarts="[C:1]([C@@:2]1([H:11])[C:3]([H:12])([H:13])[C@:4]1([C:5]([C:6](=[O:7])[H:17])([H:15])[H:16])[H:14])([H:8])([H:9])[H:10]>>[C:1](/[C:2](=[C:4](/[C:3]([C:5]([C:6](=[O:7])[H:17])([H:15])[H:16])([H:12])[H:13])[H:14])[H:11])([H:8])([H:9])[H:10]"
C       -2.15961728      -0.53780316      -0.58384026
C       -1.30349400       0.62052643      -0.21379921
C        0.75410612       1.46521950       0.55421935
C        0.10494708       0.61706898      -0.42329457
C        0.71431029      -0.74131719       0.36810861
C        2.20635021      -0.73864366       0.18601379
O        2.76745169      -0.73571018      -0.87710894
H       -2.30344554      -1.24319077       0.25021350
H       -1.75610889      -1.11986598      -1.41705469
H       -3.15443365      -0.19741531      -0.88148280
H       -1.80579010       1.46156127       0.25433158
H        1.53356767       2.13993392       0.22425654
H        0.40318460       1.59488362       1.57062057
H        0.49890350       0.57036843      -1.43681064
H        0.26368700      -1.60831495      -0.12682762
H        0.44916790      -0.83146090       1.42272184
H        2.78721340      -0.71584006       1.12973295
17
Frame=5 idx=010107 GeodesicLength=0.5999912123898038 rxn_smarts="[C:1]([C@@:2]1([H:11])[C:3]([H:12])([H:13])[C@:4]1([C:5]([C:6](=[O:7])[H:17])([H:15])[H:16])[H:14])([H:8])([H:9])[H:10]>>[C:1](/[C:2](=[C:4](/[C:3]([C:5]([C:6](=[O:7])[H:17])([H:15])[H:16])([H:12])[H:13])[H:14])[H:11])([H:8])([H:9])[H:10]"
C       -2.17591781      -0.52279604      -0.56863626
C       -1.30061070       0.63119913      -0.22609485
C        0.71604298       1.43893513       0.56452916
C        0.10283222       0.60065107      -0.44566192
C        0.74660055      -0.74260765       0.37206031
C        2.23641459      -0.73736750       0.17610994
O        2.79583416      -0.67743357      -0.88595845
H       -2.36398585      -1.18069034       0.29457397
H       -1.76554925      -1.15768930      -1.35899678
H       -3.15165851      -0.17377243      -0.91660505
H       -1.80203146       1.50384719       0.18126638
H        1.48136974       2.13916382       0.25408709
H        0.35784972       1.54991050       1.58063798
H        0.50341648       0.57244168      -1.45575293
H        0.29954496      -1.61891869      -0.11033379
H        0.49584722      -0.85004531       1.42910331
H        2.82400097      -0.77482770       1.11567188
17
Frame=6 idx=010107 GeodesicLength=0.7198089460883695 rxn_smarts="[C:1]([C@@:2]1([H:11])[C:3]([H:12])([H:13])[C@:4]1([C:5]([C:6](=[O:7])[H:17])([H:15])[H:16])[H:14])([H:8])([H:9])[H:10]>>[C:1](/[C:2](=[C:4](/[C:3]([C:5]([C:6](=[O:7])[H:17])([H:15])[H:16])([H:12])[H:13])[H:14])[H:11])([H:8])([H:9])[H:10]"
C       -2.19299497      -0.50671306      -0.55366755
C       -1.29834903       0.64200888      -0.23917993
C        0.67769253       1.41138875       0.57390090
C        0.10002238       0.58340699      -0.46707339
C        0.77948683      -0.74331816       0.37685703
C        2.26695666      -0.73496455       0.16662734
O        2.82412532      -0.61479438      -0.89126236
H       -2.42692784      -1.11215682       0.33597047
H       -1.77652401      -1.19422943      -1.29552130
H       -3.14697885      -0.15306037      -0.95449445
H       -1.79631964       1.54191197       0.10908375
H        1.42794413       2.13634068       0.28281341
H        0.31207775       1.50416982       1.58924137
H        0.50723284       0.57456846      -1.47349714
H        0.33698328      -1.62901405      -0.09329048
H        0.54405534      -0.86754520       1.43614481
H        2.86151727      -0.83799951       1.09734751
17
Frame=7 idx=010107 GeodesicLength=0.8395725274372435 rxn_smarts="[C:1]([C@@:2]1([H:11])[C:3]([H:12])([H:13])[C@:4]1([C:5]([C:6](=[O:7])[H:17])([H:15])[H:16])[H:14])([H:8])([H:9])[H:10]>>[C:1](/[C:2](=[C:4](/[C:3]([C:5]([C:6](=[O:7])[H:17])([H:15])[H:16])([H:12])[H:13])[H:14])[H:11])([H:8])([H:9])[H:10]"
C       -2.21090602      -0.48954281      -0.53914205
C       -1.29665866       0.65279026      -0.25317802
C        0.63909823       1.38255313       0.58231271
C        0.09653084       0.56513347      -0.48756918
C        0.81302022      -0.74337266       0.38271057
C        2.29799078      -0.73144718       0.15759976
O        2.85219112      -0.54766740      -0.89244909
H       -2.49229678      -1.03749583       0.37339536
H       -1.78931464      -1.22894367      -1.22641738
H       -3.14021785      -0.13577656      -0.99509366
H       -1.78881022       1.57585180       0.03856002
H        1.37339179       2.13140818       0.31037131
H        0.26586892       1.45756853       1.59642102
H        0.51046285       0.57645279      -1.48999271
H        0.37592462      -1.63859962      -0.07521719
H        0.59401440      -0.88352194       1.44412759
H        2.89971042      -0.90539047       1.07356092
17
Frame=8 idx=010107 GeodesicLength=0.9593097695194748 rxn_smarts="[C:1]([C@@:2]1([H:11])[C:3]([H:12])([H:13])[C@:4]1([C:5]([C:6](=[O:7])[H:17])([H:15])[H:16])[H:14])([H:8])([H:9])[H:10]>>[C:1](/[C:2](=[C:4](/[C:3]([C:5]([C:6](=[O:7])[H:17])([H:15])[H:16])([H:12])[H:13])[H:14])[H:11])([H:8])([H:9])[H:10]"
C       -2.22973698      -0.47128572      -0.52526456
C       -1.29548692       0.66333465      -0.26809824
C        0.60031605       1.35236272       0.58981884
C        0.09237736       0.54559606      -0.50713204
C        0.84727828      -0.74271578       0.38988490
C        2.32955395      -0.72686929       0.14900182
O        2.87987545      -0.47598482      -0.88893678
H       -2.56015107      -0.95670304       0.40575970
H       -1.80426820      -1.26118903      -1.15149867
H       -3.13120256      -0.12243684      -1.03830174
H       -1.77967339       1.60594018      -0.02987298
H        1.31783973       2.12429168       0.33677677
H        0.21921708       1.40995908       1.60224155
H        0.51320828       0.57779514      -1.50515168
H        0.41626128      -1.64769193      -0.05552044
H        0.64606132      -0.89755408       1.45342281
H        2.93853034      -0.97684899       1.04287076
17
Frame=9 idx=010107 GeodesicLength=1.078847929661243 rxn_smarts="[C:1]([C@@:2]1([H:11])[C:3]([H:12])([H:13])[C@:4]1([C:5]([C:6](=[O:7])[H:17])([H:15])[H:16])[H:14])([H:8])([H:9])[H:10]>>[C:1](/[C:2](=[C:4](/[C:3]([C:5]([C:6](=[O:7])[H:17])([H:15])[H:16])([H:12])[H:13])[H:14])[H:11])([H:8])([H:9])[H:10]"
C       -2.24943252      -0.45188562      -0.51231630
C       -1.29459973       0.67333335      -0.28370544
C        0.56142896       1.32063596       0.59636753
C        0.08757841       0.52435865      -0.52568952
C        0.88226456      -0.74134403       0.39862694
C        2.36148348      -0.72157586       0.14073200
O        2.90689672      -0.39983969      -0.87984845
H       -2.62998285      -0.87040653       0.43161146
H       -1.82197255      -1.28985461      -1.07140090
H       -3.11986206      -0.11312914      -1.08320713
H       -1.76882522       1.63237040      -0.09561560
H        1.26141580       2.11467336       0.36186406
H        0.17227161       1.36124715       1.60662353
H        0.51553233       0.57791241      -1.51879758
H        0.45781472      -1.65631230      -0.03352336
H        0.70049415      -0.90909740       1.46431939
H        2.97749420      -1.05108612       1.00395938
17
Frame=10 idx=010107 GeodesicLength=1.1983110479867929 rxn_smarts="[C:1]([C@@:2]1([H:11])[C:3]([H:12])([H:13])[C@:4]1([C:5]([C:6](=[O:7])[H:17])([H:15])[H:16])[H:14])([H:8])([H:9])[H:10]>>[C:1](/[C:2](=[C:4](/[C:3]([C:5]([C:6](=[O:7])[H:17])([H:15])[H:16])([H:12])[H:13])[H:14])[H:11])([H:8])([H:9])[H:10]"
C       -2.27011360      -0.43135938      -0.50056493
C       -1.29401760       0.68258921      -0.29986746
C        0.52249551       1.28727123       0.60227599
C        0.08216452       0.50121515      -0.54306325
C        0.91809657      -0.73919382       0.40935019
C        2.39380447      -0.71566601       0.13244422
O        2.93284614      -0.31989566      -0.86501917
H       -2.70194029      -0.77865778       0.44985293
H       -1.84271124      -1.31426011      -0.98604634
H       -3.10596336      -0.10839685      -1.12999599
H       -1.75641148       1.65552835      -0.15874594
H        1.20428629       2.10251631       0.38596308
H        0.12495126       1.31112981       1.60990472
H        0.51752787       0.57666952      -1.53071942
H        0.50030686      -1.66448564      -0.00823604
H        0.75797710      -0.91766533       1.47742543
H        3.01670100      -1.12733898       0.95504198
17
Frame=11 idx=010107 GeodesicLength=1.3176588011935186 rxn_smarts="[C:1]([C@@:2]1([H:11])[C:3]([H:12])([H:13])[C@:4]1([C:5]([C:6](=[O:7])[H:17])([H:15])[H:16])[H:14])([H:8])([H:9])[H:10]>>[C:1](/[C:2](=[C:4](/[C:3]([C:5]([C:6](=[O:7])[H:17])([H:15])[H:16])([H:12])[H:13])[H:14])[H:11])([H:8])([H:9])[H:10]"
C       -2.29174645      -0.40968203      -0.49032068
C       -1.29357308       0.69085519      -0.31631231
C        0.48357873       1.25207350       0.60776217
C        0.07616658       0.47581747      -0.55906003
C        0.95482688      -0.73620961       0.42237990
C        2.42632584      -0.70944207       0.12367292
O        2.95728570      -0.23706571      -0.84415828
H       -2.77558807      -0.68202927       0.45915873
H       -1.86699164      -1.33339091      -0.89607879
H       -3.08937000      -0.10841588      -1.17804930
H       -1.74230311       1.67564871      -0.21911562
H        1.14660381       2.08758271       0.40929039
H        0.07729692       1.25931131       1.61228287
H        0.51926461       0.57363909      -1.54065736
H        0.54344947      -1.67220461       0.02133225
H        0.81911031      -0.92259879       1.49315234
H        3.05566349      -1.20388912       0.89472078
17
Frame=12 idx=010107 GeodesicLength=1.4368979220177849 rxn_smarts="[C:1]([C@@:2]1([H:11])[C:3]([H:12])([H:13])[C@:4]1([C:5]([C:6](=[O:7])[H:17])([H:15])[H:16])[H:14])([H:8])([H:9])[H:10]>>[C:1](/[C:2](=[C:4](/[C:3]([C:5]([C:6](=[O:7])[H:17])([H:15])[H:16])([H:12])[H:13])[H:14])[H:11])([H:8])([H:9])[H:10]"
C       -2.31428353      -0.38684710      -0.48192221
C       -1.29309861       0.69792219      -0.33274934
C        0.44471573       1.21486200       0.61312360
C        0.06962650       0.44788696      -0.57345519
C        0.99254047      -0.73226893       0.43801520
C        2.45883369      -0.70314350       0.11383206
O        2.97983634      -0.15294688      -0.81744484
H       -2.85030855      -0.58132064       0.45831129
H       -1.89534667      -1.34627284      -0.80243411
H       -3.07007103      -0.11320979      -1.22665905
H       -1.72634536       1.69292699      -0.27659498
H        1.08849459       2.06968482       0.43220678
H        0.02932103       1.20540694       1.61402802
H        0.52082228       0.56851474      -1.54832718
H        0.58699851      -1.67938773       0.05624075
H        0.88455794      -0.92311633       1.51183524
H        3.09370669      -1.27869090       0.82199397
17
Frame=13 idx=010107 GeodesicLength=1.5559665825082334 rxn_smarts="[C:1]([C@@:2]1([H:11])[C:3]([H:12])([H:13])[C@:4]1([C:5]([C:6](=[O:7])[H:17])([H:15])[H:16])[H:14])([H:8])([H:9])[H:10]>>[C:1](/[C:2](=[C:4](/[C:3]([C:5]([C:6](=[O:7])[H:17])([H:15])[H:16])([H:12])[H:13])[H:14])[H:11])([H:8])([H:9])[H:10]"
C       -2.33764386      -0.36283382      -0.47581802
C       -1.29238515       0.70355965      -0.34872765
C        0.40599516       1.17541474       0.61866762
C        0.06255364       0.41712783      -0.58599272
C        1.03131414      -0.72723272       0.45643942
C        2.49094453      -0.69718854       0.10205497
O        3.00011056      -0.07020867      -0.78603963
H       -2.92490163      -0.47813549       0.44634966
H       -1.92845689      -1.35187216      -0.70731772
H       -3.04848312      -0.12202981      -1.27471598
H       -1.70828245       1.70746414      -0.33070325
H        1.03010764       2.04859288       0.45509151
H       -0.01878932       1.14895448       1.61543240
H        0.52214547       0.56097425      -1.55343596
H        0.63069218      -1.68591729       0.09761371
H        0.95501960      -0.91825110       1.53359977
H        3.13005950      -1.34841836       0.73750188
17
Frame=14 idx=010107 GeodesicLength=1.6750084205168123 rxn_smarts="[C:1]([C@@:2]1([H:11])[C:3]([H:12])([H:13])[C@:4]1([C:5]([C:6](=[O:7])[H:17])([H:15])[H:16])[H:14])([H:8])([H:9])[H:10]>>[C:1](/[C:2](=[C:4](/[C:3]([C:5]([C:6](=[O:7])[H:17])([H:15])[H:16])([H:12])[H:13])[H:14])[H:11])([H:8])([H:9])[H:10]"
C       -2.36162142      -0.33766422      -0.47204090
C       -1.29137203       0.70780399      -0.36420526
C        0.36715581       1.13349223       0.62507599
C        0.05502096       0.38374519      -0.59649561
C        1.07132810      -0.72074269       0.47750688
C        2.52254338      -0.69104417       0.08809523
O        3.01804107       0.00819696      -0.75238923
H       -2.99921563      -0.37191765       0.42251739
H       -1.96620277      -1.34977385      -0.60990503
H       -3.02391210      -0.13590054      -1.32228865
H       -1.68806221       1.71956244      -0.38167675
H        0.97115282       2.02427373       0.47923537
H       -0.06750751       1.08879084       1.61705838
H        0.52333279       0.55161153      -1.55570926
H        0.67490972      -1.69135431       0.14555458
H        1.03065715      -0.90740001       1.55802734
H        3.16375186      -1.41167947       0.64163953
17
Frame=15 idx=010107 GeodesicLength=1.7941689281462623 rxn_smarts="[C:1]([C@@:2]1([H:11])[C:3]([H:12])([H:13])[C@:4]1([C:5]([C:6](=[O:7])[H:17])([H:15])[H:16])[H:14])([H:8])([H:9])[H:10]>>[C:1](/[C:2](=[C:4](/[C:3]([C:5]([C:6](=[O:7])[H:17])([H:15])[H:16])([H:12])[H:13])[H:14])[H:11])([H:8])([H:9])[H:10]"
C       -2.38610005      -0.31139254      -0.47091039
C       -1.28994152       0.71054740      -0.37870159
C        0.32823321       1.08893543       0.63261025
C        0.04698734       0.34776365      -0.60485049
C        1.11273560      -0.71236818       0.50102063
C        2.55343148      -0.68468956       0.07179868
O        3.03397332       0.07949232      -0.71935508
H       -3.07181942      -0.26442886       0.38635688
H       -2.00910909      -1.33923279      -0.51232039
H       -2.99695920      -0.15405606      -1.36820486
H       -1.66560735       1.72931994      -0.42871313
H        0.91159768       1.99664788       0.50516543
H       -0.11659540       1.02418338       1.61911301
H        0.52414508       0.54045937      -1.55504381
H        0.72003173      -1.69520465       0.20044599
H        1.11154272      -0.88946996       1.58457809
H        3.19345386      -1.46650675       0.53701078
17
Frame=16 idx=010107 GeodesicLength=1.913710262574774 rxn_smarts="[C:1]([C@@:2]1([H:11])[C:3]([H:12])([H:13])[C@:4]1([C:5]([C:6](=[O:7])[H:17])([H:15])[H:16])[H:14])([H:8])([H:9])[H:10]>>[C:1](/[C:2](=[C:4](/[C:3]([C:5]([C:6](=[O:7])[H:17])([H:15])[H:16])([H:12])[H:13])[H:14])[H:11])([H:8])([H:9])[H:10]"
C       -2.41073336      -0.28398131      -0.47221547
C       -1.28796487       0.71185492      -0.39195309
C        0.28908170       1.04134500       0.64161787
C        0.03842713       0.30941257      -0.61111554
C        1.15556648      -0.70171611       0.52624194
C        2.58358026      -0.67751236       0.05384467
O        3.04818083       0.14176997      -0.69030762
H       -3.14199935      -0.15538209       0.33734507
H       -2.05707968      -1.31955039      -0.41401882
H       -2.96709614      -0.17730889      -1.41178100
H       -1.64078294       1.73697507      -0.47138375
H        0.85103968       1.96545919       0.53389970
H       -0.16610239       0.95372777       1.62173888
H        0.52437184       0.52787690      -1.55143526
H        0.76699448      -1.69683912       0.26108240
H        1.19661002      -0.86413577       1.61195102
H        3.21790630      -1.51199535       0.42648900
