12
Frame=0 idx=004930 GeodesicLength=0.0 rxn_smarts="[O:1]=[C:2]1[C:3]([H:7])([H:8])[C:4]([H:9])([H:10])[O:5][C:6]1([H:11])[H:12]>>[O:1]([C:2]1=[C:3]([H:7])[C:4]([H:9])([H:10])[O:5][C:6]1([H:11])[H:12])[H:8]"
O        0.34859511       2.10489157       0.55060402
C        0.30963076       0.91233628       0.09835933
C       -0.96542065       0.39861428      -0.15591759
C       -0.79213799      -1.10313093      -0.14376134
O        0.63048287      -1.31899864      -0.27968547
C        1.35275649      -0.15574959       0.05787205
H       -1.55795493       0.88428356      -0.92508208
H       -0.87479684       1.64244144       0.65628322
H       -1.13349836      -1.57105522       0.78586579
H       -1.27962173      -1.60449239      -0.98092162
H        2.11532099       0.06228637      -0.69620761
H        1.84664428      -0.25142668       1.03259126
12
Frame=1 idx=004930 GeodesicLength=0.04035421842946024 rxn_smarts="[O:1]=[C:2]1[C:3]([H:7])([H:8])[C:4]([H:9])([H:10])[O:5][C:6]1([H:11])[H:12]>>[O:1]([C:2]1=[C:3]([H:7])[C:4]([H:9])([H:10])[O:5][C:6]1([H:11])[H:12])[H:8]"
O        0.35033875       2.10108493       0.55784125
C        0.31372969       0.91575089       0.08652881
C       -0.96442507       0.40002594      -0.15773303
C       -0.79034399      -1.10149833      -0.14374380
O        0.63031160      -1.31870380      -0.28399795
C        1.35323811      -0.15673534       0.05618282
H       -1.55975114       0.87987176      -0.92848752
H       -0.88433426       1.64485478       0.66323246
H       -1.12977900      -1.56608142       0.78842139
H       -1.28150266      -1.60516756      -0.97752490
H        2.12009312       0.05935661      -0.69401183
H        1.84242484      -0.25275847       1.03329230
12
Frame=2 idx=004930 GeodesicLength=0.08070656805231025 rxn_smarts="[O:1]=[C:2]1[C:3]([H:7])([H:8])[C:4]([H:9])([H:10])[O:5][C:6]1([H:11])[H:12]>>[O:1]([C:2]1=[C:3]([H:7])[C:4]([H:9])([H:10])[O:5][C:6]1([H:11])[H:12])[H:8]"
O        0.35201706       2.09696224       0.56522009
C        0.31786943       0.91913437       0.07489655
C       -0.96334475       0.40150101      -0.15957292
C       -0.78854954      -1.09981656      -0.14368196
O        0.63012582      -1.31841272      -0.28822838
C        1.35372070      -0.15770175       0.05445288
H       -1.56130297       0.87542842      -0.93204831
H       -0.89417139       1.64735373       0.67009601
H       -1.12608201      -1.56100771       0.79101445
H       -1.28336900      -1.60579447      -0.97405519
H        2.12473268       0.05645406      -0.69194246
H        1.83835398      -0.25410061       1.03384923
12
Frame=3 idx=004930 GeodesicLength=0.12105362903455116 rxn_smarts="[O:1]=[C:2]1[C:3]([H:7])([H:8])[C:4]([H:9])([H:10])[O:5][C:6]1([H:11])[H:12]>>[O:1]([C:2]1=[C:3]([H:7])[C:4]([H:9])([H:10])[O:5][C:6]1([H:11])[H:12])[H:8]"
O        0.35361777       2.09253299       0.57270771
C        0.32205844       0.92248484       0.06346625
C       -0.96218006       0.40303967      -0.16142314
C       -0.78675363      -1.09808554      -0.14357834
O        0.62992642      -1.31812941      -0.29237086
C        1.35421072      -0.15865543       0.05268615
H       -1.56262059       0.87095647      -0.93574015
H       -0.90431586       1.64994847       0.67687441
H       -1.12241339      -1.55584449       0.79363456
H       -1.28521466      -1.60636277      -0.97052456
H        2.12924522       0.05357175      -0.69000046
H        1.83443963      -0.25545656       1.03426843
12
Frame=4 idx=004930 GeodesicLength=0.1613933764290149 rxn_smarts="[O:1]=[C:2]1[C:3]([H:7])([H:8])[C:4]([H:9])([H:10])[O:5][C:6]1([H:11])[H:12]>>[O:1]([C:2]1=[C:3]([H:7])[C:4]([H:9])([H:10])[O:5][C:6]1([H:11])[H:12])[H:8]"
O        0.35513033       2.08781006       0.58026566
C        0.32630468       0.92580031       0.05223653
C       -0.96093155       0.40464162      -0.16326966
C       -0.78495523      -1.09630529      -0.14343647
O        0.62971459      -1.31785747      -0.29642031
C        1.35471428      -0.15960264       0.05088723
H       -1.56371742       0.86645982      -0.93953525
H       -0.91477213       1.65264471       0.68357357
H       -1.11877917      -1.55060256       0.79627027
H       -1.28703346      -1.60686221      -0.96694627
H        2.13363876       0.05070171      -0.68818390
H        1.83068633      -0.25682806       1.03455860
12
Frame=5 idx=004930 GeodesicLength=0.2017235110348721 rxn_smarts="[O:1]=[C:2]1[C:3]([H:7])([H:8])[C:4]([H:9])([H:10])[O:5][C:6]1([H:11])[H:12]>>[O:1]([C:2]1=[C:3]([H:7])[C:4]([H:9])([H:10])[O:5][C:6]1([H:11])[H:12])[H:8]"
O        0.35654532       2.08279828       0.58788240
C        0.33061917       0.92907966       0.04119575
C       -0.95959897       0.40630721      -0.16509815
C       -0.78315270      -1.09447570      -0.14325791
O        0.62949185      -1.31760053      -0.30037143
C        1.35523655      -0.16054885       0.04905811
H       -1.56460711       0.86194029      -0.94340608
H       -0.92554687       1.65545374       0.69018169
H       -1.11518321      -1.54529136       0.79891367
H       -1.28881967      -1.60728358      -0.96333052
H        2.13791948       0.04783547      -0.68649148
H        1.82709616      -0.25821461       1.03472394
12
Frame=6 idx=004930 GeodesicLength=0.24204602448056595 rxn_smarts="[O:1]=[C:2]1[C:3]([H:7])([H:8])[C:4]([H:9])([H:10])[O:5][C:6]1([H:11])[H:12]>>[O:1]([C:2]1=[C:3]([H:7])[C:4]([H:9])([H:10])[O:5][C:6]1([H:11])[H:12])[H:8]"
O        0.35784746       2.07749936       0.59554757
C        0.33500665       0.93232701       0.03034277
C       -0.95818002       0.40803908      -0.16691750
C       -0.78134523      -1.09259400      -0.14304286
O        0.62925782      -1.31735816      -0.30423162
C        1.35578285      -0.16149773       0.04719696
H       -1.56528660       0.85740588      -0.94735707
H       -0.93665112       1.65836338       0.69671721
H       -1.11162146      -1.53989897       0.80157021
H       -1.29057904      -1.60763072      -0.95966982
H        2.14209850       0.04496981      -0.68492511
H        1.82367020      -0.25962494       1.03476926
12
Frame=7 idx=004930 GeodesicLength=0.2823660777081848 rxn_smarts="[O:1]=[C:2]1[C:3]([H:7])([H:8])[C:4]([H:9])([H:10])[O:5][C:6]1([H:11])[H:12]>>[O:1]([C:2]1=[C:3]([H:7])[C:4]([H:9])([H:10])[O:5][C:6]1([H:11])[H:12])[H:8]"
O        0.35902071       2.07190388       0.60328437
C        0.33947523       0.93554470       0.01967315
C       -0.95667171       0.40984102      -0.16873870
C       -0.77953173      -1.09065656      -0.14278657
O        0.62901128      -1.31712743      -0.30801765
C        1.35635698      -0.16245249       0.04529862
H       -1.56574696       0.85285982      -0.95140245
H       -0.94810298       1.66137060       0.70317464
H       -1.10807920      -1.53441025       0.80425485
H       -1.29232376      -1.60790655      -0.95594698
H        2.14618488       0.04210546      -0.68348536
H        1.82040725      -0.26107220       1.03469211
12
Frame=8 idx=004930 GeodesicLength=0.3226850547134678 rxn_smarts="[O:1]=[C:2]1[C:3]([H:7])([H:8])[C:4]([H:9])([H:10])[O:5][C:6]1([H:11])[H:12]>>[O:1]([C:2]1=[C:3]([H:7])[C:4]([H:9])([H:10])[O:5][C:6]1([H:11])[H:12])[H:8]"
O        0.36005190       2.06601083       0.61108939
C        0.34403223       0.93873631       0.00917717
C       -0.95507257       0.41171590      -0.17056668
C       -0.77771052      -1.08866048      -0.14248828
O        0.62875186      -1.31690451      -0.31174981
C        1.35696222      -0.16341624       0.04336077
H       -1.56598725       0.84830655      -0.95554368
H       -0.95991113       1.66446626       0.70955997
H       -1.10454112      -1.52881728       0.80697543
H       -1.29406773      -1.60811189      -0.95214856
H        2.15019441       0.03924099      -0.68216302
H        1.81729771      -0.26256644       1.03449729
12
Frame=9 idx=004930 GeodesicLength=0.36300679944473735 rxn_smarts="[O:1]=[C:2]1[C:3]([H:7])([H:8])[C:4]([H:9])([H:10])[O:5][C:6]1([H:11])[H:12]>>[O:1]([C:2]1=[C:3]([H:7])[C:4]([H:9])([H:10])[O:5][C:6]1([H:11])[H:12])[H:8]"
O        0.36092941       2.05981984       0.61895361
C        0.34868447       0.94190498      -0.00115377
C       -0.95338104       0.41366630      -0.17240610
C       -0.77588046      -1.08660298      -0.14214838
O        0.62847918      -1.31668718      -0.31543698
C        1.35760224      -0.16439173       0.04138237
H       -1.56601072       0.84375154      -0.95977818
H       -0.97208317       1.66763753       0.71588390
H       -1.10099992      -1.52311049       0.80973641
H       -1.29581667      -1.60824614      -0.94826855
H        2.15413906       0.03637167      -0.68095328
H        1.81433762      -0.26411333       1.03418895
12
Frame=10 idx=004930 GeodesicLength=0.4033352989153358 rxn_smarts="[O:1]=[C:2]1[C:3]([H:7])([H:8])[C:4]([H:9])([H:10])[O:5][C:6]1([H:11])[H:12]>>[O:1]([C:2]1=[C:3]([H:7])[C:4]([H:9])([H:10])[O:5][C:6]1([H:11])[H:12])[H:8]"
O        0.36164159       2.05333046       0.62687142
C        0.35343882       0.94505494      -0.01132582
C       -0.95159548       0.41569554      -0.17426178
C       -0.77404028      -1.08448091      -0.14176694
O        0.62819262      -1.31647288      -0.31909125
C        1.35827999      -0.16538088       0.03936143
H       -1.56581641       0.83919995      -0.96410740
H       -0.98462690       1.67087255       0.72215575
H       -1.09744534      -1.51728079       0.81254344
H       -1.29757821      -1.60831123      -0.94429739
H        2.15802955       0.03349326      -0.67985183
H        1.81152005      -0.26572001       1.03377039
12
Frame=11 idx=004930 GeodesicLength=0.4436685129557633 rxn_smarts="[O:1]=[C:2]1[C:3]([H:7])([H:8])[C:4]([H:9])([H:10])[O:5][C:6]1([H:11])[H:12]>>[O:1]([C:2]1=[C:3]([H:7])[C:4]([H:9])([H:10])[O:5][C:6]1([H:11])[H:12])[H:8]"
O        0.36218773       2.04656689       0.63478341
C        0.35829903       0.94818227      -0.02134544
C       -0.94971928       0.41780064      -0.17611337
C       -0.77218956      -1.08229614      -0.14134885
O        0.62789314      -1.31626370      -0.32270729
C        1.35899750      -0.16638905       0.03730637
H       -1.56542235       0.83465295      -0.96849516
H       -0.99753405       1.67416853       0.72838986
H       -1.09387808      -1.51134962       0.81538056
H       -1.29934542      -1.60828714      -0.94025703
H        2.16187268       0.03059519      -0.67884901
H        1.80883867      -0.26738082       1.03325595
12
Frame=12 idx=004930 GeodesicLength=0.48401110107364825 rxn_smarts="[O:1]=[C:2]1[C:3]([H:7])([H:8])[C:4]([H:9])([H:10])[O:5][C:6]1([H:11])[H:12]>>[O:1]([C:2]1=[C:3]([H:7])[C:4]([H:9])([H:10])[O:5][C:6]1([H:11])[H:12])[H:8]"
O        0.36256221       2.03954071       0.64266371
C        0.36326999       0.95128957      -0.03122051
C       -0.94775233       0.41998396      -0.17796141
C       -0.77032799      -1.08004814      -0.14089625
O        0.62757994      -1.31605914      -0.32629185
C        1.35975646      -0.16741780       0.03521902
H       -1.56483371       0.83011657      -0.97293570
H       -1.01080404       1.67750869       0.73460749
H       -1.09029523      -1.50531594       0.81824795
H       -1.30112160      -1.60817372      -0.93614818
H        2.16567826       0.02767185      -0.67793721
H        1.80628804      -0.26909660       1.03265295
12
Frame=13 idx=004930 GeodesicLength=0.5243642389317255 rxn_smarts="[O:1]=[C:2]1[C:3]([H:7])([H:8])[C:4]([H:9])([H:10])[O:5][C:6]1([H:11])[H:12]>>[O:1]([C:2]1=[C:3]([H:7])[C:4]([H:9])([H:10])[O:5][C:6]1([H:11])[H:12])[H:8]"
O        0.36275775       2.03225622       0.65049967
C        0.36835685       0.95438020      -0.04095646
C       -0.94569372       0.42224710      -0.17981219
C       -0.76845360      -1.07773231      -0.14040966
O        0.62725322      -1.31585423      -0.32985600
C        1.36055875      -0.16846932       0.03309901
H       -1.56405243       0.82559451      -0.97742770
H       -1.02444130       1.68087134       0.74081997
H       -1.08668733      -1.49916861       0.82114780
H       -1.30291342      -1.60796936      -0.93196032
H        2.16945581       0.02471907      -0.67710902
H        1.80385942      -0.27087461       1.03196490
12
Frame=14 idx=004930 GeodesicLength=0.5647312083708158 rxn_smarts="[O:1]=[C:2]1[C:3]([H:7])([H:8])[C:4]([H:9])([H:10])[O:5][C:6]1([H:11])[H:12]>>[O:1]([C:2]1=[C:3]([H:7])[C:4]([H:9])([H:10])[O:5][C:6]1([H:11])[H:12])[H:8]"
O        0.36277130       2.02472955       0.65826293
C        0.37356302       0.95745341      -0.05055900
C       -0.94354356       0.42459224      -0.18166826
C       -0.76656649      -1.07534880      -0.13989158
O        0.62691137      -1.31564721      -0.33341458
C        1.36140489      -0.16954547       0.03094839
H       -1.56308354       0.82109585      -0.98196600
H       -1.03844371       1.68423832       0.74704706
H       -1.08304442      -1.49290615       0.82408330
H       -1.30472724      -1.60767722      -0.92769076
H        2.17321692       0.02173555      -0.67635181
H        1.80154144      -0.27272006       1.03120031
12
Frame=15 idx=004930 GeodesicLength=0.6051108172765721 rxn_smarts="[O:1]=[C:2]1[C:3]([H:7])([H:8])[C:4]([H:9])([H:10])[O:5][C:6]1([H:11])[H:12]>>[O:1]([C:2]1=[C:3]([H:7])[C:4]([H:9])([H:10])[O:5][C:6]1([H:11])[H:12])[H:8]"
O        0.36260862       2.01699612       0.66588343
C        0.37889082       0.96050807      -0.06003878
C       -0.94130513       0.42701721      -0.18351896
C       -0.76466663      -1.07289869      -0.13934992
O        0.62655590      -1.31544084      -0.33695528
C        1.36229559      -0.17064922       0.02877644
H       -1.56194828       0.81662793      -0.98651963
H       -1.05279449       1.68758182       0.75332767
H       -1.07937858      -1.48654205       0.82703580
H       -1.30655164      -1.60728761      -0.92336095
H        2.17696737       0.01870947      -0.67565426
H        1.79932645      -0.27462222       1.03037443
12
Frame=16 idx=004930 GeodesicLength=0.6454995308991955 rxn_smarts="[O:1]=[C:2]1[C:3]([H:7])([H:8])[C:4]([H:9])([H:10])[O:5][C:6]1([H:11])[H:12]>>[O:1]([C:2]1=[C:3]([H:7])[C:4]([H:9])([H:10])[O:5][C:6]1([H:11])[H:12])[H:8]"
O        0.36227996       2.00909622       0.67328924
C        0.38434136       0.96354057      -0.06940933
C       -0.93898191       0.42951943      -0.18535303
C       -0.76275450      -1.07038447      -0.13879340
O        0.62618840      -1.31523882      -0.34046477
C        1.36323061      -0.17178259       0.02659325
H       -1.56066922       0.81219947      -0.99105592
H       -1.06747316       1.69087219       0.75970268
H       -1.07570383      -1.48009241       0.82998608
H       -1.30837478      -1.60679249      -0.91899504
H        2.18071245       0.01563018      -0.67500321
H        1.79720460      -0.27656728       1.02950344
