14
Frame=0 idx=000659 GeodesicLength=0.0 rxn_smarts="[O:1]([C@@:2]1([H:8])[C:3]([H:9])([H:10])[C@@:4]2([H:11])[C:5]([H:12])([H:13])[C@@:6]12[H:14])[H:7]>>[O:1]([C:5]([C@:4]1([H:11])[C:3]([H:9])([H:10])[C:2]([H:8])=[C:6]1[H:14])([H:12])[H:13])[H:7]"
O       -0.19672819       1.47235128      -0.44835405
C       -0.79688287       0.52301470       0.66846229
C       -1.12844342      -0.70625832      -0.18296953
C        0.38640982      -1.00553625      -0.03366853
C        1.06025780      -0.00962591      -0.88836380
C        0.32146118      -0.17836802       1.24833303
H        0.39385347       2.05884221       0.03970667
H       -1.53553307       1.12592139       1.19211520
H       -1.51270709      -0.54206207      -1.19241106
H       -1.74970060      -1.41381338       0.35865547
H        0.77509599      -2.02607646      -0.07018020
H        0.77137671       0.22072359      -1.90792525
H        2.08058298       0.25253260      -0.62949177
H        1.13095735       0.22835467       1.84609153
14
Frame=1 idx=000659 GeodesicLength=0.08649748257287024 rxn_smarts="[O:1]([C@@:2]1([H:8])[C:3]([H:9])([H:10])[C@@:4]2([H:11])[C:5]([H:12])([H:13])[C@@:6]12[H:14])[H:7]>>[O:1]([C:5]([C@:4]1([H:11])[C:3]([H:9])([H:10])[C:2]([H:8])=[C:6]1[H:14])([H:12])[H:13])[H:7]"
O       -0.20320082       1.48365877      -0.45127548
C       -0.80445808       0.51821819       0.67774983
C       -1.13379841      -0.70825490      -0.17951832
C        0.38137183      -1.00658672      -0.03909472
C        1.06351784       0.00108758      -0.87520290
C        0.32775740      -0.17435614       1.23807764
H        0.40585168       2.08586707      -0.00996879
H       -1.54257177       1.10568527       1.21851634
H       -1.51659956      -0.53693391      -1.18829109
H       -1.75557865      -1.42214537       0.35349958
H        0.77308836      -2.02523623      -0.07449593
H        0.78420276       0.21772967      -1.90082225
H        2.09076562       0.24177862      -0.62246533
H        1.12965180       0.21948811       1.85329143
14
Frame=2 idx=000659 GeodesicLength=0.17290293250181377 rxn_smarts="[O:1]([C@@:2]1([H:8])[C:3]([H:9])([H:10])[C@@:4]2([H:11])[C:5]([H:12])([H:13])[C@@:6]12[H:14])[H:7]>>[O:1]([C:5]([C@:4]1([H:11])[C:3]([H:9])([H:10])[C:2]([H:8])=[C:6]1[H:14])([H:12])[H:13])[H:7]"
O       -0.20910348       1.49544289      -0.45317177
C       -0.81213226       0.51312722       0.68770045
C       -1.13903948      -0.71011209      -0.17601573
C        0.37646736      -1.00723498      -0.04439667
C        1.06677592       0.01202999      -0.86174813
C        0.33377784      -0.17032439       1.22815777
H        0.41789959       2.11285016      -0.06397641
H       -1.54949962       1.08433227       1.24576835
H       -1.52041441      -0.53110194      -1.18395565
H       -1.76135520      -1.43058099       0.34783279
H        0.77116303      -2.02401306      -0.07873692
H        0.79709349       0.21519298      -1.89312317
H        2.10061461       0.23087942      -0.61545941
H        1.12775259       0.20951251       1.86112450
14
Frame=3 idx=000659 GeodesicLength=0.25915168849606746 rxn_smarts="[O:1]([C@@:2]1([H:8])[C:3]([H:9])([H:10])[C@@:4]2([H:11])[C:5]([H:12])([H:13])[C@@:6]12[H:14])[H:7]>>[O:1]([C:5]([C@:4]1([H:11])[C:3]([H:9])([H:10])[C:2]([H:8])=[C:6]1[H:14])([H:12])[H:13])[H:7]"
O       -0.21427230       1.50780768      -0.45385824
C       -0.81987487       0.50772509       0.69838572
C       -1.14415489      -0.71176849      -0.17246875
C        0.37169711      -1.00746652      -0.04955880
C        1.07007016       0.02321542      -0.84794599
C        0.33953085      -0.16630962       1.21863797
H        0.42967682       2.13954170      -0.12286943
H       -1.55626938       1.06177471       1.27394767
H       -1.52412159      -0.52442396      -1.17938979
H       -1.76704186      -1.43905328       0.34158961
H        0.76929508      -2.02240253      -0.08291730
H        0.81007603       0.21314523      -1.88478162
H        2.11012156       0.21992271      -0.60837857
H        1.12526729       0.19829186       1.86960751
14
Frame=4 idx=000659 GeodesicLength=0.3451624672065337 rxn_smarts="[O:1]([C@@:2]1([H:8])[C:3]([H:9])([H:10])[C@@:4]2([H:11])[C:5]([H:12])([H:13])[C@@:6]12[H:14])[H:7]>>[O:1]([C:5]([C@:4]1([H:11])[C:3]([H:9])([H:10])[C:2]([H:8])=[C:6]1[H:14])([H:12])[H:13])[H:7]"
O       -0.21847408       1.52083564      -0.45315373
C       -0.82761960       0.50200042       0.70988804
C       -1.14912618      -0.71313800      -0.16888490
C        0.36706327      -1.00727370      -0.05457233
C        1.07347249       0.03464845      -0.83372245
C        0.34504577      -0.16237164       1.20958778
H        0.44058071       2.16570076      -0.18726645
H       -1.56277829       1.03794262       1.30314096
H       -1.52768681      -0.51670651      -1.17456921
H       -1.77267384      -1.44744257       0.33470009
H        0.76741862      -2.02042237      -0.08709210
H        0.82324133       0.21157041      -1.87574575
H        2.11930210       0.20902888      -0.60106875
H        1.12223452       0.18562761       1.87875881
14
Frame=5 idx=000659 GeodesicLength=0.43092660078138506 rxn_smarts="[O:1]([C@@:2]1([H:8])[C:3]([H:9])([H:10])[C@@:4]2([H:11])[C:5]([H:12])([H:13])[C@@:6]12[H:14])[H:7]>>[O:1]([C:5]([C@:4]1([H:11])[C:3]([H:9])([H:10])[C:2]([H:8])=[C:6]1[H:14])([H:12])[H:13])[H:7]"
O       -0.22151950       1.53473575      -0.45070668
C       -0.83533149       0.49593974       0.72233217
C       -1.15393845      -0.71410245      -0.16527669
C        0.36256449      -1.00660745      -0.05941829
C        1.07702170       0.04639292      -0.81897692
C        0.35032962      -0.15856998       1.20110893
H        0.45019180       2.19070126      -0.25811521
H       -1.56898307       1.01270620       1.33347806
H       -1.53104433      -0.50771690      -1.16947991
H       -1.77825452      -1.45566320       0.32702579
H        0.76552689      -2.01802597      -0.09129563
H        0.83662268       0.21059441      -1.86591485
H        2.12817823       0.19827257      -0.59340204
H        1.11863595       0.17134309       1.88864128
14
Frame=6 idx=000659 GeodesicLength=0.51625885181416 rxn_smarts="[O:1]([C@@:2]1([H:8])[C:3]([H:9])([H:10])[C@@:4]2([H:11])[C:5]([H:12])([H:13])[C@@:6]12[H:14])[H:7]>>[O:1]([C:5]([C@:4]1([H:11])[C:3]([H:9])([H:10])[C:2]([H:8])=[C:6]1[H:14])([H:12])[H:13])[H:7]"
O       -0.22300917       1.54964409      -0.44631046
C       -0.84288550       0.48957270       0.73579658
C       -1.15856080      -0.71450462      -0.16166657
C        0.35821073      -1.00544231      -0.06410519
C        1.08084456       0.05845532      -0.80361236
C        0.35543646      -0.15498863       1.19328502
H        0.45734535       2.21396815      -0.33604267
H       -1.57470303       0.98605308       1.36502389
H       -1.53413837      -0.49716028      -1.16409662
H       -1.78384325      -1.46348543       0.31847491
H        0.76352411      -2.01523031      -0.09562013
H        0.85040776       0.21015716      -1.85523027
H        2.13682820       0.18778789      -0.58516347
H        1.11454297       0.15517319       1.89926733
14
Frame=7 idx=000659 GeodesicLength=0.6009944551099577 rxn_smarts="[O:1]([C@@:2]1([H:8])[C:3]([H:9])([H:10])[C@@:4]2([H:11])[C:5]([H:12])([H:13])[C@@:6]12[H:14])[H:7]>>[O:1]([C:5]([C@:4]1([H:11])[C:3]([H:9])([H:10])[C:2]([H:8])=[C:6]1[H:14])([H:12])[H:13])[H:7]"
O       -0.22248062       1.56577256      -0.43972905
C       -0.85013863       0.48296815       0.75035516
C       -1.16296461      -0.71414350      -0.15808644
C        0.35402199      -1.00373437      -0.06864862
C        1.08509865       0.07086978      -0.78751293
C        0.36043704      -0.15171578       1.18620750
H        0.46060790       2.23463243      -0.42166508
H       -1.57975451       0.95801838       1.39781400
H       -1.53690385      -0.48469249      -1.15839990
H       -1.78951336      -1.47064415       0.30892878
H        0.76132700      -2.01204771      -0.10017104
H        0.86483121       0.21022839      -1.84361230
H        2.14539758       0.17765607      -0.57613970
H        1.11003420       0.13683225       1.91065960
14
Frame=8 idx=000659 GeodesicLength=0.6849541075558753 rxn_smarts="[O:1]([C@@:2]1([H:8])[C:3]([H:9])([H:10])[C@@:4]2([H:11])[C:5]([H:12])([H:13])[C@@:6]12[H:14])[H:7]>>[O:1]([C:5]([C@:4]1([H:11])[C:3]([H:9])([H:10])[C:2]([H:8])=[C:6]1[H:14])([H:12])[H:13])[H:7]"
O       -0.21955633       1.58370331      -0.43043257
C       -0.85703220       0.47622361       0.76606819
C       -1.16711038      -0.71275997      -0.15459046
C        0.35000147      -1.00132263      -0.07304351
C        1.08980774       0.08374149      -0.77061989
C        0.36531496      -0.14874892       1.17998459
H        0.45920809       2.25043648      -0.51563985
H       -1.58409645       0.92856139       1.43184866
H       -1.53919605      -0.46993927      -1.15240216
H       -1.79518511      -1.47694392       0.29817862
H        0.75902848      -2.00827047      -0.10497428
H        0.87987638       0.21099896      -1.83098423
H        2.15388695       0.16811770      -0.56622125
H        1.10505245       0.11620223       1.92282814
14
Frame=9 idx=000659 GeodesicLength=0.7679245691362975 rxn_smarts="[O:1]([C@@:2]1([H:8])[C:3]([H:9])([H:10])[C@@:4]2([H:11])[C:5]([H:12])([H:13])[C@@:6]12[H:14])[H:7]>>[O:1]([C:5]([C@:4]1([H:11])[C:3]([H:9])([H:10])[C:2]([H:8])=[C:6]1[H:14])([H:12])[H:13])[H:7]"
O       -0.21295920       1.60308808      -0.41837947
C       -0.86302808       0.46947420       0.78307267
C       -1.17083944      -0.70987792      -0.15126205
C        0.34620275      -0.99821742      -0.07739791
C        1.09553244       0.09697618      -0.75260584
C        0.37034192      -0.14644900       1.17474620
H        0.44844356       2.26125188      -0.61873078
H       -1.58704157       0.89794204       1.46719402
H       -1.54076626      -0.45213471      -1.14609312
H       -1.80118657      -1.48148315       0.28601696
H        0.75603368      -2.00414451      -0.11045653
H        0.89661023       0.21203667      -1.81716227
H        2.16279147       0.15888755      -0.55473000
H        1.09986506       0.09265011       1.93578813
14
Frame=10 idx=000659 GeodesicLength=0.8497374979919111 rxn_smarts="[O:1]([C@@:2]1([H:8])[C:3]([H:9])([H:10])[C@@:4]2([H:11])[C:5]([H:12])([H:13])[C@@:6]12[H:14])[H:7]>>[O:1]([C:5]([C@:4]1([H:11])[C:3]([H:9])([H:10])[C:2]([H:8])=[C:6]1[H:14])([H:12])[H:13])[H:7]"
O       -0.20235663       1.62515818      -0.40330041
C       -0.86817697       0.46313202       0.80107436
C       -1.17415353      -0.70516089      -0.14822843
C        0.34263691      -0.99408948      -0.08171631
C        1.10222691       0.11071607      -0.73365407
C        0.37543653      -0.14444545       1.17045192
H        0.42784963       2.26226956      -0.72956044
H       -1.58871675       0.86632052       1.50351169
H       -1.54148555      -0.43101419      -1.13959278
H       -1.80730578      -1.48407199       0.27229310
H        0.75274863      -1.99920615      -0.11647460
H        0.91478354       0.21363980      -1.80225991
H        2.17208229       0.15039704      -0.54184937
H        1.09443075       0.06635496       1.94930524
14
Frame=11 idx=000659 GeodesicLength=0.929717548486876 rxn_smarts="[O:1]([C@@:2]1([H:8])[C:3]([H:9])([H:10])[C@@:4]2([H:11])[C:5]([H:12])([H:13])[C@@:6]12[H:14])[H:7]>>[O:1]([C:5]([C@:4]1([H:11])[C:3]([H:9])([H:10])[C:2]([H:8])=[C:6]1[H:14])([H:12])[H:13])[H:7]"
O       -0.18632780       1.64917571      -0.38660507
C       -0.87187675       0.45767026       0.81952248
C       -1.17685368      -0.69825510      -0.14568735
C        0.33940743      -0.98896498      -0.08620400
C        1.11045378       0.12457833      -0.71390274
C        0.38088323      -0.14274913       1.16687723
H        0.39235612       2.25306635      -0.84370249
H       -1.58842114       0.83475803       1.53986219
H       -1.54113217      -0.40650845      -1.13309858
H       -1.81375328      -1.48371863       0.25711716
H        0.74858518      -1.99373385      -0.12307007
H        0.93542149       0.21498578      -1.78651171
H        2.18228314       0.14188136      -0.52745492
H        1.08897446       0.03781434       1.96285788
14
Frame=12 idx=000659 GeodesicLength=1.0085699227652407 rxn_smarts="[O:1]([C@@:2]1([H:8])[C:3]([H:9])([H:10])[C@@:4]2([H:11])[C:5]([H:12])([H:13])[C@@:6]12[H:14])[H:7]>>[O:1]([C:5]([C@:4]1([H:11])[C:3]([H:9])([H:10])[C:2]([H:8])=[C:6]1[H:14])([H:12])[H:13])[H:7]"
O       -0.16484817       1.67537696      -0.37007009
C       -0.87421786       0.45369617       0.83761316
C       -1.17901218      -0.68920699      -0.14366769
C        0.33660907      -0.98276024      -0.09095243
C        1.12038840       0.13840440      -0.69396316
C        0.38671039      -0.14072827       1.16358124
H        0.34155534       2.23159303      -0.95518749
H       -1.58638937       0.80419722       1.57518778
H       -1.53981833      -0.37925296      -1.12678005
H       -1.82051787      -1.48039147       0.24094342
H        0.74381032      -1.98769307      -0.12989830
H        0.95860679       0.21600350      -1.77048322
H        2.19367241       0.13307009      -0.51221682
H        1.08345106       0.00769162       1.97589366
14
Frame=13 idx=000659 GeodesicLength=1.0867188803137806 rxn_smarts="[O:1]([C@@:2]1([H:8])[C:3]([H:9])([H:10])[C@@:4]2([H:11])[C:5]([H:12])([H:13])[C@@:6]12[H:14])[H:7]>>[O:1]([C:5]([C@:4]1([H:11])[C:3]([H:9])([H:10])[C:2]([H:8])=[C:6]1[H:14])([H:12])[H:13])[H:7]"
O       -0.14004652       1.70331462      -0.35698351
C       -0.87557973       0.45169974       0.85410653
C       -1.18069520      -0.67877762      -0.14204556
C        0.33411930      -0.97523328      -0.09602368
C        1.13120072       0.15196736      -0.67494468
C        0.39278842      -0.13683173       1.15961202
H        0.28161194       2.19724536      -1.05447852
H       -1.58290257       0.77502655       1.60823021
H       -1.53788536      -0.35150728      -1.12078694
H       -1.82695584      -1.47476842       0.22479508
H        0.73892257      -1.98046311      -0.13646476
H        0.98284762       0.21643111      -1.75509381
H        2.20533576       0.12417731      -0.49751842
H        1.07723889      -0.02228064       1.98759603
14
Frame=14 idx=000659 GeodesicLength=1.1654854044016993 rxn_smarts="[O:1]([C@@:2]1([H:8])[C:3]([H:9])([H:10])[C@@:4]2([H:11])[C:5]([H:12])([H:13])[C@@:6]12[H:14])[H:7]>>[O:1]([C:5]([C@:4]1([H:11])[C:3]([H:9])([H:10])[C:2]([H:8])=[C:6]1[H:14])([H:12])[H:13])[H:7]"
O       -0.11178190       1.73199316      -0.34854416
C       -0.87623246       0.45149910       0.86878386
C       -1.18200580      -0.66755195      -0.14077271
C        0.33208021      -0.96689182      -0.10136634
C        1.14308320       0.16487645      -0.65722135
C        0.39910779      -0.13119524       1.15487815
H        0.21296902       2.15459720      -1.13914263
H       -1.57842030       0.74805983       1.63834279
H       -1.53554307      -0.32406176      -1.11527104
H       -1.83325076      -1.46744797       0.20906207
H        0.73399875      -1.97275759      -0.14198472
H        1.00814254       0.21637051      -1.74072358
H        2.21759744       0.11431405      -0.48378161
H        1.07025534      -0.05180397       1.99774125
14
Frame=15 idx=000659 GeodesicLength=1.2450342704776323 rxn_smarts="[O:1]([C@@:2]1([H:8])[C:3]([H:9])([H:10])[C@@:4]2([H:11])[C:5]([H:12])([H:13])[C@@:6]12[H:14])[H:7]>>[O:1]([C:5]([C@:4]1([H:11])[C:3]([H:9])([H:10])[C:2]([H:8])=[C:6]1[H:14])([H:12])[H:13])[H:7]"
O       -0.08397315       1.76072446      -0.34691322
C       -0.87697917       0.45260901       0.88131648
C       -1.18336070      -0.65680385      -0.13938151
C        0.33012941      -0.95769446      -0.10683638
C        1.15469143       0.17728763      -0.64134876
C        0.40538585      -0.12286913       1.14874871
H        0.14748339       2.10648375      -1.20533484
H       -1.57349846       0.72212641       1.66552230
H       -1.53381711      -0.29916019      -1.10977665
H       -1.83892998      -1.46011801       0.19474734
H        0.72943845      -1.96402652      -0.14654195
H        1.03221117       0.21581925      -1.72768078
H        2.22913713       0.10468809      -0.47203197
H        1.06208173      -0.07906646       2.00551123
14
Frame=16 idx=000659 GeodesicLength=1.3251886365461927 rxn_smarts="[O:1]([C@@:2]1([H:8])[C:3]([H:9])([H:10])[C@@:4]2([H:11])[C:5]([H:12])([H:13])[C@@:6]12[H:14])[H:7]>>[O:1]([C:5]([C@:4]1([H:11])[C:3]([H:9])([H:10])[C:2]([H:8])=[C:6]1[H:14])([H:12])[H:13])[H:7]"
O       -0.05608612       1.78891330      -0.35122963
C       -0.87811224       0.45446726       0.89225676
C       -1.18475971      -0.64688631      -0.13788508
C        0.32837201      -0.94826001      -0.11222337
C        1.16605444       0.18891533      -0.62728742
C        0.41149305      -0.11251244       1.14167904
H        0.08517724       2.05805813      -1.25618097
H       -1.56865558       0.69708469       1.69021460
H       -1.53253663      -0.27673856      -1.10448848
H       -1.84417566      -1.45325068       0.18169322
H        0.72538436      -1.95506476      -0.14940648
H        1.05492264       0.21479781      -1.71608035
H        2.24006714       0.09467553      -0.46224806
H        1.05285507      -0.10419932       2.01118621
