8
Frame=0 idx=004719 GeodesicLength=0.0 rxn_smarts="[O:1]([c:2]1[n:3][o:4][c:5]([H:8])[n:6]1)[H:7]>>[O-:1][c:2]1[n:3][o:4][c:5]([H:8])[n+:6]1[H:7]"
O        2.04964599      -0.22827838       0.21535544
C        0.85354848      -0.42456241      -0.16099042
N        0.13926401      -1.22758156      -0.90924862
O       -1.17709838      -0.68916471      -0.74900047
C       -1.12700983       0.34319001       0.04724663
N        0.07751950       0.56490502       0.44598516
H        1.22441998       0.78958632       0.83425033
H       -2.04028973       0.87190570       0.27640195
8
Frame=1 idx=004719 GeodesicLength=0.054219979640670074 rxn_smarts="[O:1]([c:2]1[n:3][o:4][c:5]([H:8])[n:6]1)[H:7]>>[O-:1][c:2]1[n:3][o:4][c:5]([H:8])[n+:6]1[H:7]"
O        2.05017187      -0.22173646       0.20229007
C        0.86056562      -0.38853837      -0.20773447
N        0.13378787      -1.24420159      -0.88312968
O       -1.18051881      -0.70075622      -0.73660398
C       -1.12834821       0.34571437       0.04068933
N        0.07476996       0.56639960       0.44481188
H        1.23058369       0.76445709       0.87705019
H       -2.04101199       0.87866158       0.26262667
8
Frame=2 idx=004719 GeodesicLength=0.1089341621194655 rxn_smarts="[O:1]([c:2]1[n:3][o:4][c:5]([H:8])[n:6]1)[H:7]>>[O-:1][c:2]1[n:3][o:4][c:5]([H:8])[n+:6]1[H:7]"
O        2.05085750      -0.21127166       0.18431092
C        0.86441389      -0.36104446      -0.24223513
N        0.13123271      -1.25462744      -0.86115235
O       -1.18321483      -0.71320367      -0.72198429
C       -1.13034083       0.34599277       0.03773152
N        0.07346662       0.57463972       0.43611119
H        1.23536148       0.73330478       0.92024153
H       -2.04177655       0.88620994       0.24697662
8
Frame=3 idx=004719 GeodesicLength=0.1637796621303026 rxn_smarts="[O:1]([c:2]1[n:3][o:4][c:5]([H:8])[n:6]1)[H:7]>>[O-:1][c:2]1[n:3][o:4][c:5]([H:8])[n+:6]1[H:7]"
O        2.05139837      -0.19876861       0.16529783
C        0.86640654      -0.33866675      -0.26962753
N        0.13004991      -1.26147601      -0.84237851
O       -1.18537059      -0.72504399      -0.70718237
C       -1.13255655       0.34526657       0.03669481
N        0.07181858       0.58174618       0.42962702
H        1.24043342       0.70227452       0.95824269
H       -2.04217968       0.89466811       0.22932606
8
Frame=4 idx=004719 GeodesicLength=0.21885871563450562 rxn_smarts="[O:1]([c:2]1[n:3][o:4][c:5]([H:8])[n:6]1)[H:7]>>[O-:1][c:2]1[n:3][o:4][c:5]([H:8])[n+:6]1[H:7]"
O        2.05156263      -0.18576281       0.14694293
C        0.86725954      -0.31892822      -0.29315817
N        0.12973068      -1.26597168      -0.82592808
O       -1.18719997      -0.73646643      -0.69217572
C       -1.13498213       0.34400591       0.03686248
N        0.06981096       0.58783566       0.42502279
H        1.24623149       0.67194491       0.99189809
H       -2.04241320       0.90334266       0.21053568
8
Frame=5 idx=004719 GeodesicLength=0.2740669423510111 rxn_smarts="[O:1]([c:2]1[n:3][o:4][c:5]([H:8])[n:6]1)[H:7]>>[O-:1][c:2]1[n:3][o:4][c:5]([H:8])[n+:6]1[H:7]"
O        2.05129480      -0.17226867       0.12907187
C        0.86718927      -0.30059049      -0.31428498
N        0.13002625      -1.26863144      -0.81132662
O       -1.18882066      -0.74783979      -0.67647213
C       -1.13768414       0.34207764       0.03842877
N        0.06742872       0.59300160       0.42216535
H        1.25283558       0.64180163       1.02243688
H       -2.04226983       0.91244952       0.18998087
8
Frame=6 idx=004719 GeodesicLength=0.32937534176500244 rxn_smarts="[O:1]([c:2]1[n:3][o:4][c:5]([H:8])[n:6]1)[H:7]>>[O-:1][c:2]1[n:3][o:4][c:5]([H:8])[n+:6]1[H:7]"
O        2.05053414      -0.15863293       0.11197285
C        0.86636171      -0.28325521      -0.33354381
N        0.13072217      -1.26998209      -0.79800165
O       -1.19023005      -0.75892141      -0.66050652
C       -1.14062409       0.33982624       0.04085338
N        0.06472574       0.59761037       0.42055975
H        1.26036413       0.61194033       1.05027342
H       -2.04185375       0.92141470       0.16839259
8
Frame=7 idx=004719 GeodesicLength=0.384766531959103 rxn_smarts="[O:1]([c:2]1[n:3][o:4][c:5]([H:8])[n:6]1)[H:7]>>[O-:1][c:2]1[n:3][o:4][c:5]([H:8])[n+:6]1[H:7]"
O        2.04930893      -0.14478075       0.09550386
C        0.86485639      -0.26656595      -0.35138850
N        0.13171075      -1.27021060      -0.78574056
O       -1.19146265      -0.76988761      -0.64394470
C       -1.14374100       0.33748737       0.04387244
N        0.06175010       0.60189694       0.41985388
H        1.26870423       0.58193798       1.07607741
H       -2.04112675       0.93012262       0.14576618
8
Frame=8 idx=004719 GeodesicLength=0.4403108714249428 rxn_smarts="[O:1]([c:2]1[n:3][o:4][c:5]([H:8])[n:6]1)[H:7]>>[O-:1][c:2]1[n:3][o:4][c:5]([H:8])[n+:6]1[H:7]"
O        2.04764826      -0.13059404       0.07954604
C        0.86274159      -0.25027985      -0.36811510
N        0.13291465      -1.26951458      -0.77430370
O       -1.19254318      -0.78079501      -0.62669637
C       -1.14705469       0.33515067       0.04737083
N        0.05852081       0.60602022       0.41989393
H        1.27784746       0.55147372       1.10024105
H       -2.04007490       0.93853887       0.12206331
8
Frame=9 idx=004719 GeodesicLength=0.4959249442480212 rxn_smarts="[O:1]([c:2]1[n:3][o:4][c:5]([H:8])[n:6]1)[H:7]>>[O-:1][c:2]1[n:3][o:4][c:5]([H:8])[n+:6]1[H:7]"
O        2.04549932      -0.11612607       0.06419295
C        0.86007236      -0.23429739      -0.38386967
N        0.13426669      -1.26804693      -0.76342639
O       -1.19342596      -0.79154422      -0.60887499
C       -1.15051443       0.33298256       0.05104072
N        0.05506493       0.61014571       0.42043883
H        1.28775682       0.52045087       1.12287620
H       -2.03871973       0.94643545       0.09762235
8
Frame=10 idx=004719 GeodesicLength=0.5516717917595921 rxn_smarts="[O:1]([c:2]1[n:3][o:4][c:5]([H:8])[n:6]1)[H:7]>>[O-:1][c:2]1[n:3][o:4][c:5]([H:8])[n+:6]1[H:7]"
O        2.04290603      -0.10142677       0.04945069
C        0.85689763      -0.21853538      -0.39878066
N        0.13571588      -1.26585752      -0.75306814
O       -1.19410915      -0.80213884      -0.59037895
C       -1.15409750       0.33108279       0.05481256
N        0.05140951       0.61440106       0.42132197
H        1.29839846       0.48877352       1.14417190
H       -2.03712086       0.95370114       0.07247063
8
Frame=11 idx=004719 GeodesicLength=0.6075056764501924 rxn_smarts="[O:1]([c:2]1[n:3][o:4][c:5]([H:8])[n:6]1)[H:7]>>[O-:1][c:2]1[n:3][o:4][c:5]([H:8])[n+:6]1[H:7]"
O        2.03991967      -0.08701037       0.03576882
C        0.85339245      -0.20324903      -0.41278364
N        0.13718454      -1.26328056      -0.74284144
O       -1.19454390      -0.81209274      -0.57218956
C       -1.15774040       0.32960540       0.05824735
N        0.04762932       0.61906585       0.42203942
H        1.30978446       0.45708917       1.16396053
H       -2.03562613       0.95987227       0.04779851
8
Frame=12 idx=004719 GeodesicLength=0.6634221429107197 rxn_smarts="[O:1]([c:2]1[n:3][o:4][c:5]([H:8])[n:6]1)[H:7]>>[O-:1][c:2]1[n:3][o:4][c:5]([H:8])[n+:6]1[H:7]"
O        2.03655636      -0.07277232       0.02302681
C        0.84958206      -0.18833712      -0.42599421
N        0.13867084      -1.26032228      -0.73271554
O       -1.19474776      -0.82150273      -0.55414856
C       -1.16145508       0.32850407       0.06138851
N        0.04369974       0.62412503       0.42261382
H        1.32190874       0.42522460       1.18241457
H       -2.03421490       0.96508075       0.02341460
8
Frame=13 idx=004719 GeodesicLength=0.7194216395900627 rxn_smarts="[O:1]([c:2]1[n:3][o:4][c:5]([H:8])[n:6]1)[H:7]>>[O-:1][c:2]1[n:3][o:4][c:5]([H:8])[n+:6]1[H:7]"
O        2.03283399      -0.05856627       0.01107580
C        0.84546292      -0.17366972      -0.43851631
N        0.14016901      -1.25693950      -0.72272782
O       -1.19474025      -0.83050035      -0.53597663
C       -1.16527062       0.32772193       0.06437251
N        0.03959332       0.62955431       0.42312291
H        1.33477287       0.39293366       1.19969128
H       -2.03282123       0.96946594      -0.00104175
8
Frame=14 idx=004719 GeodesicLength=0.7755246475895675 rxn_smarts="[O:1]([c:2]1[n:3][o:4][c:5]([H:8])[n:6]1)[H:7]>>[O-:1][c:2]1[n:3][o:4][c:5]([H:8])[n+:6]1[H:7]"
O        2.02877566      -0.04435624      -0.00009665
C        0.84107292      -0.15921221      -0.45040650
N        0.14167136      -1.25317707      -0.71280696
O       -1.19453055      -0.83909746      -0.51766255
C       -1.16919751       0.32727373       0.06713851
N        0.03529815       0.63538789       0.42353387
H        1.34839552       0.36013190       1.21585776
H       -2.03148555       0.97304946      -0.02555748
8
Frame=15 idx=004719 GeodesicLength=0.8317041311727185 rxn_smarts="[O:1]([c:2]1[n:3][o:4][c:5]([H:8])[n:6]1)[H:7]>>[O-:1][c:2]1[n:3][o:4][c:5]([H:8])[n+:6]1[H:7]"
O        2.02439922      -0.03021191      -0.01043264
C        0.83646146      -0.14499250      -0.46168007
N        0.14316853      -1.24909359      -0.70286969
O       -1.19411681      -0.84723084      -0.49934874
C       -1.17322739       0.32716293       0.06961458
N        0.03080756       0.64167562       0.42374249
H        1.36279036       0.32688926       1.23093415
H       -2.03028293       0.97580103      -0.04996008
8
Frame=16 idx=004719 GeodesicLength=0.8879408691410717 rxn_smarts="[O:1]([c:2]1[n:3][o:4][c:5]([H:8])[n:6]1)[H:7]>>[O-:1][c:2]1[n:3][o:4][c:5]([H:8])[n+:6]1[H:7]"
O        2.01973704      -0.01617300      -0.01990187
C        0.83167369      -0.13102087      -0.47235728
N        0.14465295      -1.24472225      -0.69287249
O       -1.19350950      -0.85487037      -0.48110119
C       -1.17736366       0.32738380       0.07178216
N        0.02611539       0.64846636       0.42367056
H        1.37797726       0.29322280       1.24495919
H       -2.02928317       0.97771354      -0.07417908
