14
Frame=0 idx=010229 GeodesicLength=0.0 rxn_smarts="[C:1]([C:2]([N:3](/[C:4](=[N:5]/[H:14])[C:6]#[N:7])[H:13])([H:11])[H:12])([H:8])([H:9])[H:10]>>[C:1]([C@@:2]1([H:11])[N:3]([H:13])[C:4]([N-:5][H:14])=[C+:6][N:7]1[H:12])([H:8])([H:9])[H:10]"
C       -1.82607086       0.80750598      -0.28320942
C       -0.76526887      -0.22667812      -0.06348218
N        0.37218587      -0.14439149      -0.80910931
C        1.60654462      -0.54923695      -0.26002455
N        2.58573416      -0.89376915      -0.96581708
C        1.57301213      -0.48425732       1.28273511
N        0.47577848      -0.26474513       1.77989764
H       -2.31726886       0.68706587      -1.25564810
H       -1.41046080       1.81766358      -0.24196026
H       -2.60610207       0.72880348       0.47528569
H       -1.10449734      -1.23654867       0.15159702
H       -0.43952478       0.11877537       1.92899025
H        0.47035918       0.67855588      -1.38610903
H        3.38557913      -1.03874339      -0.35314580
14
Frame=1 idx=010229 GeodesicLength=0.13184190350602193 rxn_smarts="[C:1]([C:2]([N:3](/[C:4](=[N:5]/[H:14])[C:6]#[N:7])[H:13])([H:11])[H:12])([H:8])([H:9])[H:10]>>[C:1]([C@@:2]1([H:11])[N:3]([H:13])[C:4]([N-:5][H:14])=[C+:6][N:7]1[H:12])([H:8])([H:9])[H:10]"
C       -1.83346529       0.80117094      -0.28123939
C       -0.75664466      -0.21495373      -0.04664765
N        0.38155999      -0.11451457      -0.79730647
C        1.61350148      -0.52916385      -0.25789479
N        2.56457717      -0.94421243      -0.96521997
C        1.60488111      -0.42327745       1.27883216
N        0.50844043      -0.24015477       1.79156571
H       -2.30207941       0.68123665      -1.26459712
H       -1.43903757       1.81881968      -0.22313163
H       -2.62908035       0.70024028       0.45823639
H       -1.09223757      -1.23400326       0.13122316
H       -0.46387392       0.08756177       1.90669179
H        0.47477403       0.71207295      -1.36911300
H        3.36868456      -1.10082222      -0.36139918
14
Frame=2 idx=010229 GeodesicLength=0.2636057247632867 rxn_smarts="[C:1]([C:2]([N:3](/[C:4](=[N:5]/[H:14])[C:6]#[N:7])[H:13])([H:11])[H:12])([H:8])([H:9])[H:10]>>[C:1]([C@@:2]1([H:11])[N:3]([H:13])[C:4]([N-:5][H:14])=[C+:6][N:7]1[H:12])([H:8])([H:9])[H:10]"
C       -1.84025744       0.79426065      -0.27898520
C       -0.74818999      -0.20435068      -0.03117227
N        0.39062199      -0.08506047      -0.78671148
C        1.62057752      -0.50812294      -0.25690939
N        2.54163380      -0.99121936      -0.96188594
C        1.63485914      -0.36629590       1.27289919
N        0.54193643      -0.21080226       1.80165055
H       -2.28698215       0.67660789      -1.27252279
H       -1.46700730       1.81859106      -0.20349798
H       -2.64986588       0.67049139       0.44163577
H       -1.07909475      -1.23146441       0.10979035
H       -0.48393380       0.05556557       1.88389155
H        0.47824749       0.74527828      -1.35317328
H        3.34745493      -1.16347880      -0.36500907
14
Frame=3 idx=010229 GeodesicLength=0.3953411922219206 rxn_smarts="[C:1]([C:2]([N:3](/[C:4](=[N:5]/[H:14])[C:6]#[N:7])[H:13])([H:11])[H:12])([H:8])([H:9])[H:10]>>[C:1]([C@@:2]1([H:11])[N:3]([H:13])[C:4]([N-:5][H:14])=[C+:6][N:7]1[H:12])([H:8])([H:9])[H:10]"
C       -1.84631429       0.78705457      -0.27646537
C       -0.74007975      -0.19502611      -0.01693487
N        0.39924151      -0.05667318      -0.77717001
C        1.62735071      -0.48772263      -0.25695416
N        2.51681357      -1.03599748      -0.95604799
C        1.66314035      -0.31358143       1.26528505
N        0.57573174      -0.17697093       1.81018572
H       -2.27186626       0.67354858      -1.27950359
H       -1.49382927       1.81710628      -0.18306867
H       -2.66849856       0.64026979       0.42540538
H       -1.06583566      -1.22894691       0.08739435
H       -0.50016946       0.02269514       1.86066670
H        0.48111572       0.77761740      -1.33790944
H        3.32319965      -1.22337309      -0.36488310
14
Frame=4 idx=010229 GeodesicLength=0.5271040041763139 rxn_smarts="[C:1]([C:2]([N:3](/[C:4](=[N:5]/[H:14])[C:6]#[N:7])[H:13])([H:11])[H:12])([H:8])([H:9])[H:10]>>[C:1]([C@@:2]1([H:11])[N:3]([H:13])[C:4]([N-:5][H:14])=[C+:6][N:7]1[H:12])([H:8])([H:9])[H:10]"
C       -1.85159830       0.77964553      -0.27357217
C       -0.73234888      -0.18710915      -0.00392791
N        0.40735441      -0.02959278      -0.76868207
C        1.63368146      -0.46830192      -0.25793769
N        2.49067729      -1.07814336      -0.94793523
C        1.69006386      -0.26370083       1.25613540
N        0.60942752      -0.13971945       1.81708859
H       -2.25685472       0.67214455      -1.28539864
H       -1.51926965       1.81441029      -0.16173652
H       -2.68497700       0.60991599       0.40969373
H       -1.05285706      -1.22652957       0.06371952
H       -0.51282261      -0.01101176       1.83694020
H        0.48329323       0.80878734      -1.32337494
H        3.29623045      -1.28079489      -0.36101226
14
Frame=5 idx=010229 GeodesicLength=0.658721457503142 rxn_smarts="[C:1]([C:2]([N:3](/[C:4](=[N:5]/[H:14])[C:6]#[N:7])[H:13])([H:11])[H:12])([H:8])([H:9])[H:10]>>[C:1]([C@@:2]1([H:11])[N:3]([H:13])[C:4]([N-:5][H:14])=[C+:6][N:7]1[H:12])([H:8])([H:9])[H:10]"
C       -1.85611978       0.77217109      -0.27026918
C       -0.72502339      -0.18064924       0.00791146
N        0.41497794      -0.00401820      -0.76120385
C        1.63950908      -0.45009962      -0.25971676
N        2.46306481      -1.11857285      -0.93745429
C        1.71560609      -0.21664466       1.24556986
N        0.64278908      -0.09886512       1.82224627
H       -2.24186377       0.67269971      -1.29026343
H       -1.54314377       1.81058047      -0.13931568
H       -2.69954160       0.57961209       0.39441408
H       -1.04039316      -1.22422291       0.03885972
H       -0.52220372      -0.04598246       1.81277637
H        0.48500482       0.83854684      -1.30956608
H        3.26733737      -1.33455514      -0.35398849
14
Frame=6 idx=010229 GeodesicLength=0.7904968384164013 rxn_smarts="[C:1]([C:2]([N:3](/[C:4](=[N:5]/[H:14])[C:6]#[N:7])[H:13])([H:11])[H:12])([H:8])([H:9])[H:10]>>[C:1]([C@@:2]1([H:11])[N:3]([H:13])[C:4]([N-:5][H:14])=[C+:6][N:7]1[H:12])([H:8])([H:9])[H:10]"
C       -1.85986722       0.76483842      -0.26646529
C       -0.71822440      -0.17574352       0.01867330
N        0.42196690       0.01963563      -0.75474253
C        1.64465339      -0.43353072      -0.26217048
N        2.43475119      -1.15691875      -0.92476193
C        1.73995055      -0.17139774       1.23365509
N        0.67551992      -0.05647383       1.82579480
H       -2.22714165       0.67520165      -1.29391673
H       -1.56514491       1.80579160      -0.11596122
H       -2.71221675       0.55008303       0.37980842
H       -1.02902670      -1.22199158       0.01267156
H       -0.52876875      -0.08156925       1.78812480
H        0.48604624       0.86626279      -1.29680367
H        3.23750220      -1.38418773      -0.34390612
14
Frame=7 idx=010229 GeodesicLength=0.9223523430114491 rxn_smarts="[C:1]([C:2]([N:3](/[C:4](=[N:5]/[H:14])[C:6]#[N:7])[H:13])([H:11])[H:12])([H:8])([H:9])[H:10]>>[C:1]([C@@:2]1([H:11])[N:3]([H:13])[C:4]([N-:5][H:14])=[C+:6][N:7]1[H:12])([H:8])([H:9])[H:10]"
C       -1.86292214       0.75767406      -0.26215422
C       -0.71190890      -0.17232944       0.02845757
N        0.42836344       0.04143971      -0.74922194
C        1.64914614      -0.41854544      -0.26521052
N        2.40599630      -1.19329073      -0.91000473
C        1.76324469      -0.12782219       1.22043215
N        0.70760373      -0.01286672       1.82774741
H       -2.21271553       0.67956802      -1.29637900
H       -1.58536279       1.80011965      -0.09166913
H       -2.72325183       0.52138945       0.36580383
H       -1.01878030      -1.21975545      -0.01472576
H       -0.53302650      -0.11765884       1.76302784
H        0.48649088       0.89200876      -1.28503133
H        3.20712279      -1.42993083      -0.33107219
14
Frame=8 idx=010229 GeodesicLength=1.054250062253487 rxn_smarts="[C:1]([C:2]([N:3](/[C:4](=[N:5]/[H:14])[C:6]#[N:7])[H:13])([H:11])[H:12])([H:8])([H:9])[H:10]>>[C:1]([C@@:2]1([H:11])[N:3]([H:13])[C:4]([N-:5][H:14])=[C+:6][N:7]1[H:12])([H:8])([H:9])[H:10]"
C       -1.86537158       0.75070262      -0.25735231
C       -0.70604303      -0.17032640       0.03737002
N        0.43421186       0.06146276      -0.74456030
C        1.65300938      -0.40514873      -0.26874529
N        2.37709248      -1.22774281      -0.89339413
C        1.78559102      -0.08595157       1.20598649
N        0.73908572       0.03178799       1.82813079
H       -2.19862444       0.68566177      -1.29768603
H       -1.60391264       1.79363945      -0.06650063
H       -2.73287797       0.49362979       0.35233593
H       -1.00966719      -1.21741469      -0.04317227
H       -0.53552762      -0.15416943       1.73755058
H        0.48642273       0.91587503      -1.27414013
H        3.17661129      -1.47200577      -0.31582272
14
Frame=9 idx=010229 GeodesicLength=1.1862063242144978 rxn_smarts="[C:1]([C:2]([N:3](/[C:4](=[N:5]/[H:14])[C:6]#[N:7])[H:13])([H:11])[H:12])([H:8])([H:9])[H:10]>>[C:1]([C@@:2]1([H:11])[N:3]([H:13])[C:4]([N-:5][H:14])=[C+:6][N:7]1[H:12])([H:8])([H:9])[H:10]"
C       -1.86726298       0.74388608      -0.25207106
C       -0.70054682      -0.16964214       0.04547549
N        0.43958652       0.07987631      -0.74067563
C        1.65628550      -0.39320872      -0.27270338
N        2.34812817      -1.26038381      -0.87509173
C        1.80705940      -0.04581162       1.19037533
N        0.77006362       0.07781866       1.82687958
H       -2.18480754       0.69337466      -1.29786246
H       -1.62092707       1.78634540      -0.04041033
H       -2.74126936       0.46670292       0.33928209
H       -1.00157636      -1.21487795      -0.07254601
H       -0.53671540      -0.19129690       1.71169508
H        0.48594634       0.93808773      -1.26394854
H        3.14603598      -1.51087063      -0.29839843
14
Frame=10 idx=010229 GeodesicLength=1.3181841676649433 rxn_smarts="[C:1]([C:2]([N:3](/[C:4](=[N:5]/[H:14])[C:6]#[N:7])[H:13])([H:11])[H:12])([H:8])([H:9])[H:10]>>[C:1]([C@@:2]1([H:11])[N:3]([H:13])[C:4]([N-:5][H:14])=[C+:6][N:7]1[H:12])([H:8])([H:9])[H:10]"
C       -1.86865286       0.73731406      -0.24632308
C       -0.69545485      -0.17022379       0.05287447
N        0.44449158       0.09660536      -0.73748929
C        1.65893002      -0.38289725      -0.27694041
N        2.31931906      -1.29144960      -0.85518872
C        1.82768555      -0.00754802       1.17375238
N        0.80052382       0.12523301       1.82399768
H       -2.17130014       0.70263442      -1.29692258
H       -1.63640008       1.77835075      -0.01349725
H       -2.74860291       0.44088070       0.32663029
H       -0.99464751      -1.21205831      -0.10268188
H       -0.53718427      -0.22917542       1.68550158
H        0.48514398       0.95855719      -1.25439970
H        3.11614862      -1.54622309      -0.27931348
14
Frame=11 idx=010229 GeodesicLength=1.4501901059367182 rxn_smarts="[C:1]([C:2]([N:3](/[C:4](=[N:5]/[H:14])[C:6]#[N:7])[H:13])([H:11])[H:12])([H:8])([H:9])[H:10]>>[C:1]([C@@:2]1([H:11])[N:3]([H:13])[C:4]([N-:5][H:14])=[C+:6][N:7]1[H:12])([H:8])([H:9])[H:10]"
C       -1.86956997       0.73097319      -0.24008131
C       -0.69071006      -0.17201411       0.05959384
N        0.44898445       0.11176510      -0.73496803
C        1.66098867      -0.37407461      -0.28138527
N        2.29075259      -1.32103538      -0.83374293
C        1.84752229       0.02895160       1.15617592
N        0.83054114       0.17444624       1.81933398
H       -2.15805944       0.71341627      -1.29483867
H       -1.65039801       1.76964531       0.01434269
H       -2.75500133       0.41611049       0.31433284
H       -0.98880862      -1.20888472      -0.13355678
H       -0.53730078      -0.26821885       1.65889554
H        0.48407325       0.97741732      -1.24542636
H        3.08698581      -1.57849783      -0.25867545
14
Frame=12 idx=010229 GeodesicLength=1.5822332006114024 rxn_smarts="[C:1]([C:2]([N:3](/[C:4](=[N:5]/[H:14])[C:6]#[N:7])[H:13])([H:11])[H:12])([H:8])([H:9])[H:10]>>[C:1]([C@@:2]1([H:11])[N:3]([H:13])[C:4]([N-:5][H:14])=[C+:6][N:7]1[H:12])([H:8])([H:9])[H:10]"
C       -1.87003524       0.72487667      -0.23330285
C       -0.68628352      -0.17498035       0.06565220
N        0.45310702       0.12540765      -0.73309096
C        1.66249288      -0.36666671      -0.28595070
N        2.26251514      -1.34927305      -0.81075061
C        1.86660159       0.06377513       1.13772420
N        0.86015353       0.22588277       1.81268947
H       -2.14506132       0.72573005      -1.29155369
H       -1.66293250       1.76022856       0.04321559
H       -2.76057024       0.39241847       0.30238503
H       -0.98405319      -1.20528770      -0.16518270
H       -0.53741014      -0.30889821       1.63175149
H        0.48278396       0.99472880      -1.23699375
H        3.05869203      -1.60794210      -0.23659273
14
Frame=13 idx=010229 GeodesicLength=1.7143162574509925 rxn_smarts="[C:1]([C:2]([N:3](/[C:4](=[N:5]/[H:14])[C:6]#[N:7])[H:13])([H:11])[H:12])([H:8])([H:9])[H:10]>>[C:1]([C@@:2]1([H:11])[N:3]([H:13])[C:4]([N-:5][H:14])=[C+:6][N:7]1[H:12])([H:8])([H:9])[H:10]"
C       -1.87005090       0.71904612      -0.22592604
C       -0.68215427      -0.17910806       0.07105954
N        0.45689208       0.13755265      -0.73184764
C        1.66345938      -0.36062242      -0.29054018
N        2.23466985      -1.37629632      -0.78614759
C        1.88491838       0.09700563       1.11847925
N        0.88937691       0.28000471       1.80380231
H       -2.13227349       0.73961477      -1.28698025
H       -1.67397029       1.75008995       0.07324812
H       -2.76538715       0.36985923       0.29081310
H       -0.98039870      -1.20118962      -0.19760567
H       -0.53783260      -0.35174750       1.60388092
H        0.48131921       1.01051094      -1.22908838
H        3.03143159      -1.63472008      -0.21314747
14
Frame=14 idx=010229 GeodesicLength=1.8464626410225915 rxn_smarts="[C:1]([C:2]([N:3](/[C:4](=[N:5]/[H:14])[C:6]#[N:7])[H:13])([H:11])[H:12])([H:8])([H:9])[H:10]>>[C:1]([C@@:2]1([H:11])[N:3]([H:13])[C:4]([N-:5][H:14])=[C+:6][N:7]1[H:12])([H:8])([H:9])[H:10]"
C       -1.86961003       0.71350312      -0.21786044
C       -0.67830429      -0.18440580       0.07580918
N        0.46037314       0.14820244      -0.73124710
C        1.66391440      -0.35588996      -0.29505553
N        2.20727869      -1.40222733      -0.75981937
C        1.90245515       0.12874266       1.09852289
N        0.91821696       0.33737213       1.79231319
H       -2.11965742       0.75515576      -1.28098903
H       -1.68345001       1.73919567       0.10462911
H       -2.76952063       0.34848431       0.27966605
H       -0.97787815      -1.19650533      -0.23092315
H       -0.53885818      -0.39739215       1.57500279
H        0.47971554       1.02477151      -1.22171342
H        3.00532483      -1.65900703      -0.18833516
14
Frame=15 idx=010229 GeodesicLength=1.9787022687516358 rxn_smarts="[C:1]([C:2]([N:3](/[C:4](=[N:5]/[H:14])[C:6]#[N:7])[H:13])([H:11])[H:12])([H:8])([H:9])[H:10]>>[C:1]([C@@:2]1([H:11])[N:3]([H:13])[C:4]([N-:5][H:14])=[C+:6][N:7]1[H:12])([H:8])([H:9])[H:10]"
C       -1.86868485       0.70827373      -0.20898866
C       -0.67472073      -0.19090296       0.07988855
N        0.46357731       0.15732582      -0.73130736
C        1.66387203      -0.35243782      -0.29938079
N        2.18039353      -1.42717660      -0.73159147
C        1.91914701       0.15906899       1.07795712
N        0.94667479       0.39861331       1.77775717
H       -2.10715959       0.77246794      -1.27340733
H       -1.69126092       1.72749108       0.13758318
H       -2.77301599       0.32837166       0.26902518
H       -0.97654914      -1.19112557      -0.26526832
H       -0.54079017      -0.44653226       1.54473622
H        0.47800537       1.03747989      -1.21488388
H        2.98051134      -1.68091720      -0.16211961
14
Frame=16 idx=010229 GeodesicLength=2.1110899895081197 rxn_smarts="[C:1]([C:2]([N:3](/[C:4](=[N:5]/[H:14])[C:6]#[N:7])[H:13])([H:11])[H:12])([H:8])([H:9])[H:10]>>[C:1]([C@@:2]1([H:11])[N:3]([H:13])[C:4]([N-:5][H:14])=[C+:6][N:7]1[H:12])([H:8])([H:9])[H:10]"
C       -1.86722858       0.70338299      -0.19915046
C       -0.67139093      -0.19865837       0.08327318
N        0.46653252       0.16486359      -0.73206510
C        1.66335263      -0.35023652      -0.30338636
N        2.15407410      -1.45123440      -0.70122695
C        1.93488904       0.18807268       1.05690390
N        0.97476013       0.46447978       1.75950595
H       -2.09470761       0.79171922      -1.26399742
H       -1.69724544       1.71488546       0.17241431
H       -2.77590503       0.30960404       0.25900341
H       -0.97649039      -1.18491304      -0.30082854
H       -0.54395287      -0.49998462       1.51255454
H        0.47621575       1.04858130      -1.20863050
H        2.95709667      -1.70056213      -0.13436994
