11
Frame=0 idx=009454 GeodesicLength=0.0 rxn_smarts="[O:1]([c+:2]1[n-:3][c:4]([O:5][H:9])[c:6]([H:10])[n:7]1[H:11])[H:8]>>[O:1]=[C:2]1[N:3]=[C:4]([O:5][H:9])[C:6]([H:8])([H:10])[N:7]1[H:11]"
O       -1.90992083       0.73291382       0.14284510
C       -0.99620186       0.43629471      -0.70038070
N        0.15764963       1.17251929      -0.70714430
C        0.90319045       0.34718487      -0.01628713
O        2.12839874       0.63048002       0.39261328
C        0.20086722      -0.85783846       0.35083076
N       -0.76705794      -0.92424493      -0.74675505
H       -1.14782934       0.08084802       0.97528616
H        2.31154385       1.54977353       0.16447175
H        0.73531685      -1.75230175       0.64661904
H       -1.61595676      -1.41562911      -0.50209893
11
Frame=1 idx=009454 GeodesicLength=0.06275142160957062 rxn_smarts="[O:1]([c+:2]1[n-:3][c:4]([O:5][H:9])[c:6]([H:10])[n:7]1[H:11])[H:8]>>[O:1]=[C:2]1[N:3]=[C:4]([O:5][H:9])[C:6]([H:8])([H:10])[N:7]1[H:11]"
O       -1.91754567       0.74027725       0.13619203
C       -1.00065357       0.43812104      -0.70215147
N        0.15803770       1.16804858      -0.70860916
C        0.90833797       0.34174178      -0.02224477
O        2.13099926       0.63036078       0.39236963
C        0.20171795      -0.85740460       0.35534663
N       -0.76630856      -0.92165390      -0.74031692
H       -1.14904689       0.08972666       0.99397961
H        2.30941169       1.55132954       0.16757099
H        0.73693259      -1.75536730       0.63937127
H       -1.61188248      -1.42517983      -0.51150783
11
Frame=2 idx=009454 GeodesicLength=0.12547858182367574 rxn_smarts="[O:1]([c+:2]1[n-:3][c:4]([O:5][H:9])[c:6]([H:10])[n:7]1[H:11])[H:8]>>[O:1]=[C:2]1[N:3]=[C:4]([O:5][H:9])[C:6]([H:8])([H:10])[N:7]1[H:11]"
O       -1.92531827       0.74756073       0.12943758
C       -1.00516071       0.43997605      -0.70390290
N        0.15828490       1.16368003      -0.70975409
C        0.91341882       0.33631778      -0.02809934
O        2.13365818       0.63010581       0.39185328
C        0.20258836      -0.85691792       0.35989772
N       -0.76559294      -0.91897015      -0.73379849
H       -1.15014249       0.09875519       1.01305904
H        2.30733270       1.55271427       0.17042726
H        0.73828750      -1.75830419       0.63242202
H       -1.60735604      -1.43491757      -0.52154209
11
Frame=3 idx=009454 GeodesicLength=0.18819094401932043 rxn_smarts="[O:1]([c+:2]1[n-:3][c:4]([O:5][H:9])[c:6]([H:10])[n:7]1[H:11])[H:8]>>[O:1]=[C:2]1[N:3]=[C:4]([O:5][H:9])[C:6]([H:8])([H:10])[N:7]1[H:11]"
O       -1.93325224       0.75476684       0.12257024
C       -1.00972955       0.44185883      -0.70563227
N        0.15838521       1.15941555      -0.71056933
C        0.91842382       0.33091530      -0.03384344
O        2.13637445       0.62971240       0.39107491
C        0.20346984      -0.85637751       0.36449250
N       -0.76492304      -0.91619401      -0.72718643
H       -1.15111228       0.10793836       1.03254721
H        2.30532284       1.55392039       0.17301073
H        0.73938484      -1.76111656       0.62577361
H       -1.60234389      -1.44483959      -0.53223772
11
Frame=4 idx=009454 GeodesicLength=0.25089785949189447 rxn_smarts="[O:1]([c+:2]1[n-:3][c:4]([O:5][H:9])[c:6]([H:10])[n:7]1[H:11])[H:8]>>[O:1]=[C:2]1[N:3]=[C:4]([O:5][H:9])[C:6]([H:8])([H:10])[N:7]1[H:11]"
O       -1.94136235       0.76189795       0.11557867
C       -1.01436780       0.44376777      -0.70733826
N        0.15833074       1.15525701      -0.71104808
C        0.92334330       0.32553699      -0.03947448
O        2.13913835       0.62918594       0.39004136
C        0.20435474      -0.85578047       0.36913873
N       -0.76431282      -0.91332644      -0.72046522
H       -1.15194967       0.11728217       1.05246842
H        2.30340428       1.55492816       0.17530089
H        0.74022981      -1.76380570       0.61942742
H       -1.59680858      -1.45494339      -0.54362944
11
Frame=5 idx=009454 GeodesicLength=0.31359501719349236 rxn_smarts="[O:1]([c+:2]1[n-:3][c:4]([O:5][H:9])[c:6]([H:10])[n:7]1[H:11])[H:8]>>[O:1]=[C:2]1[N:3]=[C:4]([O:5][H:9])[C:6]([H:8])([H:10])[N:7]1[H:11]"
O       -1.94965648       0.76896117       0.10845507
C       -1.01908126       0.44570010      -0.70902053
N        0.15811872       1.15119892      -0.71119242
C        0.92817124       0.32017815      -0.04499638
O        2.14195706       0.62851519       0.38874760
C        0.20523431      -0.85512724       0.37384595
N       -0.76378025      -0.91037112      -0.71361673
H       -1.15264455       0.12679869       1.07284512
H        2.30157178       1.55574574       0.17729688
H        0.74082368      -1.76637841       0.61338429
H       -1.59071425      -1.46522119      -0.55574884
11
Frame=6 idx=009454 GeodesicLength=0.37630304424285976 rxn_smarts="[O:1]([c+:2]1[n-:3][c:4]([O:5][H:9])[c:6]([H:10])[n:7]1[H:11])[H:8]>>[O:1]=[C:2]1[N:3]=[C:4]([O:5][H:9])[C:6]([H:8])([H:10])[N:7]1[H:11]"
O       -1.95814896       0.77596347       0.10118523
C       -1.02387908       0.44765285      -0.71067590
N        0.15774044       1.14723926      -0.71099892
C        0.93289831       0.31483642      -0.05041309
O        2.14482386       0.62770009       0.38719095
C        0.20610068      -0.85441637       0.37862208
N       -0.76334658      -0.90733088      -0.70661801
H       -1.15317941       0.13649859       1.09370930
H        2.29983636       1.55636023       0.17898945
H        0.74116647      -1.76883605       0.60764978
H       -1.58401208      -1.47566762      -0.56864087
11
Frame=7 idx=009454 GeodesicLength=0.4390261747770069 rxn_smarts="[O:1]([c+:2]1[n-:3][c:4]([O:5][H:9])[c:6]([H:10])[n:7]1[H:11])[H:8]>>[O:1]=[C:2]1[N:3]=[C:4]([O:5][H:9])[C:6]([H:8])([H:10])[N:7]1[H:11]"
O       -1.96684604       0.78291686       0.09375501
C       -1.02876780       0.44962093      -0.71230550
N        0.15719284       1.14336765      -0.71047706
C        0.93752013       0.30950222      -0.05574005
O        2.14773861       0.62673128       0.38535088
C        0.20694723      -0.85364850       0.38347379
N       -0.76303608      -0.90421127      -0.69944489
H       -1.15352949       0.14639961       1.11508848
H        2.29818191       1.55677793       0.18040719
H        0.74125952      -1.77118546       0.60222283
H       -1.57666083      -1.48627124      -0.58233067
11
Frame=8 idx=009454 GeodesicLength=0.5017679746153921 rxn_smarts="[O:1]([c+:2]1[n-:3][c:4]([O:5][H:9])[c:6]([H:10])[n:7]1[H:11])[H:8]>>[O:1]=[C:2]1[N:3]=[C:4]([O:5][H:9])[C:6]([H:8])([H:10])[N:7]1[H:11]"
O       -1.97575643       0.78983390       0.08615610
C       -1.03375743       0.45159816      -0.71390743
N        0.15646889       1.13957369      -0.70963655
C        0.94202903       0.30416557      -0.06099238
O        2.15070348       0.62559724       0.38320077
C        0.20776531      -0.85282321       0.38841166
N       -0.76287698      -0.90101917      -0.69206672
H       -1.15366730       0.15652555       1.13701561
H        2.29659386       1.55700059       0.18157522
H        0.74109951      -1.77343074       0.59711114
H       -1.56860193      -1.49702157      -0.59686742
11
Frame=9 idx=009454 GeodesicLength=0.5645420567107607 rxn_smarts="[O:1]([c+:2]1[n-:3][c:4]([O:5][H:9])[c:6]([H:10])[n:7]1[H:11])[H:8]>>[O:1]=[C:2]1[N:3]=[C:4]([O:5][H:9])[C:6]([H:8])([H:10])[N:7]1[H:11]"
O       -1.98489868       0.79672793       0.07837650
C       -1.03886215       0.45357664      -0.71547058
N        0.15555806       1.13584305      -0.70848431
C        0.94641308       0.29881436      -0.06617897
O        2.15373033       0.62426950       0.38069854
C        0.20854051      -0.85193887       0.39346285
N       -0.76290245      -0.89776588      -0.68444405
H       -1.15355919       0.16691017       1.15953304
H        2.29504150       1.55703193       0.18251027
H        0.74068215      -1.77557891       0.59232942
H       -1.55974316      -1.50788993      -0.61233269
11
Frame=10 idx=009454 GeodesicLength=0.6273405322281256 rxn_smarts="[O:1]([c+:2]1[n-:3][c:4]([O:5][H:9])[c:6]([H:10])[n:7]1[H:11])[H:8]>>[O:1]=[C:2]1[N:3]=[C:4]([O:5][H:9])[C:6]([H:8])([H:10])[N:7]1[H:11]"
O       -1.99428389       0.80360496       0.07040445
C       -1.04409115       0.45555496      -0.71699454
N        0.15445152       1.13217265      -0.70701297
C        0.95066116       0.29344180      -0.07130710
O        2.15680258       0.62275550       0.37785753
C        0.20926499      -0.85099548       0.39862960
N       -0.76314214      -0.89445062      -0.67654798
H       -1.15318472       0.17756335       1.18267221
H        2.29354167       1.55685491       0.18318802
H        0.73999852      -1.77763166       0.58788285
H       -1.55001853      -1.51887036      -0.62877207
11
Frame=11 idx=009454 GeodesicLength=0.6901553049272824 rxn_smarts="[O:1]([c+:2]1[n-:3][c:4]([O:5][H:9])[c:6]([H:10])[n:7]1[H:11])[H:8]>>[O:1]=[C:2]1[N:3]=[C:4]([O:5][H:9])[C:6]([H:8])([H:10])[N:7]1[H:11]"
O       -2.00393159       0.81047243       0.06222867
C       -1.04945884       0.45752782      -0.71847036
N        0.15313606       1.12855504      -0.70521889
C        0.95475816       0.28803985      -0.07638061
O        2.15991031       0.62104302       0.37466053
C        0.20992595      -0.84999112       0.40392979
N       -0.76363031      -0.89107918      -0.66834035
H       -1.15251662       0.18851054       1.20647146
H        2.29209494       1.55645360       0.18359561
H        0.73904005      -1.77959205       0.58378490
H       -1.53932810      -1.52993995      -0.64626075
11
Frame=12 idx=009454 GeodesicLength=0.7529813125874176 rxn_smarts="[O:1]([c+:2]1[n-:3][c:4]([O:5][H:9])[c:6]([H:10])[n:7]1[H:11])[H:8]>>[O:1]=[C:2]1[N:3]=[C:4]([O:5][H:9])[C:6]([H:8])([H:10])[N:7]1[H:11]"
O       -2.01385935       0.81734154       0.05384378
C       -1.05498280       0.45948870      -0.71988684
N        0.15159696       1.12497775      -0.70310074
C        0.95868622       0.28259463      -0.08140849
O        2.16304641       0.61911825       0.37108886
C        0.21050854      -0.84892375       0.40938376
N       -0.76441080      -0.88765937      -0.65977135
H       -1.15152234       0.19978162       1.23097766
H        2.29069538       1.55581403       0.18371514
H        0.73779023      -1.78146310       0.58005846
H       -1.52754844      -1.54107031      -0.66490023
11
Frame=13 idx=009454 GeodesicLength=0.8157950524138418 rxn_smarts="[O:1]([c+:2]1[n-:3][c:4]([O:5][H:9])[c:6]([H:10])[n:7]1[H:11])[H:8]>>[O:1]=[C:2]1[N:3]=[C:4]([O:5][H:9])[C:6]([H:8])([H:10])[N:7]1[H:11]"
O       -2.02408331       0.82422414       0.04524094
C       -1.06068013       0.46142683      -0.72123604
N        0.14982047       1.12142226      -0.70067056
C        0.96242935       0.27708676      -0.08641007
O        2.16620690       0.61695414       0.36709720
C        0.21099992      -0.84779270       0.41500927
N       -0.76552961      -0.88420304      -0.65079446
H       -1.15015461       0.21142104       1.25622932
H        2.28930841       1.55493078       0.18357829
H        0.73623620      -1.78325099       0.57671845
H       -1.51455359      -1.55221924      -0.68476233
11
Frame=14 idx=009454 GeodesicLength=0.8785980176182706 rxn_smarts="[O:1]([c+:2]1[n-:3][c:4]([O:5][H:9])[c:6]([H:10])[n:7]1[H:11])[H:8]>>[O:1]=[C:2]1[N:3]=[C:4]([O:5][H:9])[C:6]([H:8])([H:10])[N:7]1[H:11]"
O       -2.03463519       0.83113172       0.03641769
C       -1.06657963       0.46333277      -0.72249683
N        0.14777989       1.11787116      -0.69792265
C        0.96595809       0.27149543      -0.09139347
O        2.16937844       0.61452202       0.36264531
C        0.21137658      -0.84659209       0.42084107
N       -0.76705033      -0.88072094      -0.64133815
H       -1.14836702       0.22347521       1.28228854
H        2.28792623       1.55377368       0.18315418
H        0.73435028      -1.78495599       0.57380815
H       -1.50013734      -1.56333297      -0.70600384
11
Frame=15 idx=009454 GeodesicLength=0.941372743641764 rxn_smarts="[O:1]([c+:2]1[n-:3][c:4]([O:5][H:9])[c:6]([H:10])[n:7]1[H:11])[H:8]>>[O:1]=[C:2]1[N:3]=[C:4]([O:5][H:9])[C:6]([H:8])([H:10])[N:7]1[H:11]"
O       -2.04555200       0.83807332       0.02737351
C       -1.07271455       0.46519571      -0.72363931
N        0.14544191       1.11430604      -0.69484279
C        0.96923666       0.26579930      -0.09635846
O        2.17254403       0.61178591       0.35769043
C        0.21160954      -0.84531648       0.42692424
N       -0.76904101      -0.87722362      -0.63132041
H       -1.14611965       0.23599231       1.30921614
H        2.28654526       1.55230142       0.18238421
H        0.73210112      -1.78657730       0.57137907
H       -1.48405131      -1.57433662      -0.72880663
11
Frame=16 idx=009454 GeodesicLength=1.0041096972103172 rxn_smarts="[O:1]([c+:2]1[n-:3][c:4]([O:5][H:9])[c:6]([H:10])[n:7]1[H:11])[H:8]>>[O:1]=[C:2]1[N:3]=[C:4]([O:5][H:9])[C:6]([H:8])([H:10])[N:7]1[H:11]"
O       -2.05689548       0.84504760       0.01811873
C       -1.07913083       0.46700606      -0.72461670
N        0.14275775       1.11071801      -0.69138052
C        0.97221217       0.25998301      -0.10127352
O        2.17568179       0.60871703       0.35221895
C        0.21164820      -0.84396060       0.43332863
N       -0.77158391      -0.87371969      -0.62063899
H       -1.14340307       0.24901068       1.33709303
H        2.28522486       1.55044176       0.18108430
H        0.72943546      -1.78811393       0.56951364
H       -1.46594695      -1.58512993      -0.75344756
