13
Frame=0 idx=000449 GeodesicLength=0.0 rxn_smarts="[O:1]([C@@:2]1([H:8])[C:3]([H:9])([H:10])[C@@:4]2([H:11])[N:5]([H:12])[C@@:6]12[H:13])[H:7]>>[O:1]([C@@:2]([C:3]([C:4][H:11])([H:9])[H:10])(/[C:6](=[N:5]/[H:12])[H:13])[H:8])[H:7]"
O        1.61212909       0.15003398       0.71977121
C        0.67464821       0.13770443      -0.29647520
C        0.25150632      -1.37658651      -0.62998356
C       -1.20227477      -1.25526622      -0.71542512
N       -0.48996926       1.60517626       1.17455588
C       -0.48030472       1.05840243       0.03823271
H        1.23162903       0.69514147       1.42890120
H        1.11310906       0.51513390      -1.22729938
H        0.66514815      -1.96494668       0.19219511
H        0.72570517      -1.64923941      -1.57239232
H       -1.58644613      -1.35723380       0.31902741
H       -1.28239595       2.22495300       1.30759910
H       -1.23248415       1.21672718      -0.73870704
13
Frame=1 idx=000449 GeodesicLength=0.0938422038350824 rxn_smarts="[O:1]([C@@:2]1([H:8])[C:3]([H:9])([H:10])[C@@:4]2([H:11])[N:5]([H:12])[C@@:6]12[H:13])[H:7]>>[O:1]([C@@:2]([C:3]([C:4][H:11])([H:9])[H:10])(/[C:6](=[N:5]/[H:12])[H:13])[H:8])[H:7]"
O        1.63766167       0.17068747       0.70580537
C        0.69818549       0.14676285      -0.30886519
C        0.24735776      -1.36198293      -0.60915932
C       -1.20436507      -1.21002097      -0.68516041
N       -0.53555942       1.52474564       1.18941887
C       -0.46171412       1.06623952       0.01113098
H        1.24815212       0.70330826       1.41908929
H        1.13464764       0.50727523      -1.24678617
H        0.65905060      -1.95354384       0.21144573
H        0.68690545      -1.65866042      -1.56237779
H       -1.60120144      -1.35249019       0.33806174
H       -1.31783776       2.15853742       1.31626542
H       -1.19128291       1.25914195      -0.77886851
13
Frame=2 idx=000449 GeodesicLength=0.18744843141034317 rxn_smarts="[O:1]([C@@:2]1([H:8])[C:3]([H:9])([H:10])[C@@:4]2([H:11])[N:5]([H:12])[C@@:6]12[H:13])[H:7]>>[O:1]([C@@:2]([C:3]([C:4][H:11])([H:9])[H:10])(/[C:6](=[N:5]/[H:12])[H:13])[H:8])[H:7]"
O        1.66129411       0.19120977       0.69312081
C        0.71979356       0.15528449      -0.31995448
C        0.24417973      -1.34731764      -0.58893785
C       -1.20504112      -1.16705688      -0.65713381
N       -0.57353788       1.45266861       1.19577519
C       -0.44572017       1.07169024      -0.01125041
H        1.26248189       0.71027213       1.41088973
H        1.15330853       0.50039332      -1.26452889
H        0.65350081      -1.94235023       0.23013220
H        0.64971489      -1.66604661      -1.55142907
H       -1.61764714      -1.35268747       0.35123928
H       -1.34800770       2.09593343       1.32293224
H       -1.15431952       1.29800683      -0.81085494
13
Frame=3 idx=000449 GeodesicLength=0.28072577748972466 rxn_smarts="[O:1]([C@@:2]1([H:8])[C:3]([H:9])([H:10])[C@@:4]2([H:11])[N:5]([H:12])[C@@:6]12[H:13])[H:7]>>[O:1]([C@@:2]([C:3]([C:4][H:11])([H:9])[H:10])(/[C:6](=[N:5]/[H:12])[H:13])[H:8])[H:7]"
O        1.68359367       0.21167080       0.68105489
C        0.73973484       0.16336115      -0.33004899
C        0.24180839      -1.33271021      -0.56905712
C       -1.20460068      -1.12622253      -0.63083533
N       -0.60508392       1.38793943       1.19671967
C       -0.43183655       1.07538963      -0.03024456
H        1.27567464       0.71611175       1.40379687
H        1.16954515       0.49414836      -1.28097487
H        0.64825744      -1.93123454       0.24872924
H        0.61396599      -1.67200878      -1.53935127
H       -1.63568551      -1.35732117       0.35866435
H       -1.37429201       2.03673339       1.32788941
H       -1.12108143       1.33414272      -0.83634229
13
Frame=4 idx=000449 GeodesicLength=0.3734008888486907 rxn_smarts="[O:1]([C@@:2]1([H:8])[C:3]([H:9])([H:10])[C@@:4]2([H:11])[N:5]([H:12])[C@@:6]12[H:13])[H:7]>>[O:1]([C@@:2]([C:3]([C:4][H:11])([H:9])[H:10])(/[C:6](=[N:5]/[H:12])[H:13])[H:8])[H:7]"
O        1.70493465       0.23197072       0.66923438
C        0.75823032       0.17092464      -0.33926629
C        0.24007642      -1.31831281      -0.54934107
C       -1.20323721      -1.08758117      -0.60592673
N       -0.63127086       1.32969176       1.19437117
C       -0.41962717       1.07750326      -0.04643471
H        1.28880993       0.72174702       1.39702445
H        1.18348258       0.48830532      -1.29635494
H        0.64323118      -1.92026855       0.26737482
H        0.57968401      -1.67695851      -1.52597085
H       -1.65571303      -1.36524727       0.36015663
H       -1.39783137       1.98035345       1.33155494
H       -1.09076945       1.36787213      -0.85642181
13
Frame=5 idx=000449 GeodesicLength=0.46581047155851074 rxn_smarts="[O:1]([C@@:2]1([H:8])[C:3]([H:9])([H:10])[C@@:4]2([H:11])[N:5]([H:12])[C@@:6]12[H:13])[H:7]>>[O:1]([C@@:2]([C:3]([C:4][H:11])([H:9])[H:10])(/[C:6](=[N:5]/[H:12])[H:13])[H:8])[H:7]"
O        1.72543493       0.25232638       0.65744477
C        0.77538333       0.17814183      -0.34781112
C        0.23887499      -1.30406253      -0.52965145
C       -1.20122717      -1.05081259      -0.58183147
N       -0.65313768       1.27667557       1.18997168
C       -0.40886574       1.07862840      -0.06068807
H        1.30185856       0.72679685       1.39069973
H        1.19559807       0.48262916      -1.31088223
H        0.63833955      -1.90920576       0.28635051
H        0.54640243      -1.68110562      -1.51134029
H       -1.67692011      -1.37714333       0.35583218
H       -1.41845220       1.92730443       1.33398939
H       -1.06328895       1.39982722      -0.87208364
13
Frame=6 idx=000449 GeodesicLength=0.5579528385670239 rxn_smarts="[O:1]([C@@:2]1([H:8])[C:3]([H:9])([H:10])[C@@:4]2([H:11])[N:5]([H:12])[C@@:6]12[H:13])[H:7]>>[O:1]([C@@:2]([C:3]([C:4][H:11])([H:9])[H:10])(/[C:6](=[N:5]/[H:12])[H:13])[H:8])[H:7]"
O        1.74559178       0.27277876       0.64515171
C        0.79137637       0.18494700      -0.35589003
C        0.23814420      -1.29010719      -0.50959744
C       -1.19863058      -1.01582838      -0.55873912
N       -0.67113859       1.22808375       1.18469959
C       -0.39926528       1.07883934      -0.07311732
H        1.31593162       0.73246523       1.38392091
H        1.20572400       0.47686570      -1.32501487
H        0.63325606      -1.89786742       0.30645179
H        0.51453042      -1.68514694      -1.49488285
H       -1.70026240      -1.39157008       0.34463455
H       -1.43715727       1.87617900       1.33612125
H       -1.03810035       1.43036123      -0.88373818
13
Frame=7 idx=000449 GeodesicLength=0.6500023523089585 rxn_smarts="[O:1]([C@@:2]1([H:8])[C:3]([H:9])([H:10])[C@@:4]2([H:11])[N:5]([H:12])[C@@:6]12[H:13])[H:7]>>[O:1]([C@@:2]([C:3]([C:4][H:11])([H:9])[H:10])(/[C:6](=[N:5]/[H:12])[H:13])[H:8])[H:7]"
O        1.76541119       0.29339712       0.63229347
C        0.80626694       0.19140753      -0.36356694
C        0.23775384      -1.27636972      -0.48909515
C       -1.19568051      -0.98243957      -0.53597792
N       -0.68579247       1.18349605       1.17906759
C       -0.39067524       1.07842518      -0.08411098
H        1.33089176       0.73847198       1.37681478
H        1.21409022       0.47086164      -1.33880216
H        0.62804380      -1.88614525       0.32768648
H        0.48360005      -1.68907844      -1.47667717
H       -1.72502405      -1.40912670       0.32637026
H       -1.45386775       1.82736273       1.33793433
H       -1.01501779       1.45973744      -0.89193659
13
Frame=8 idx=000449 GeodesicLength=0.741870956720026 rxn_smarts="[O:1]([C@@:2]1([H:8])[C:3]([H:9])([H:10])[C@@:4]2([H:11])[N:5]([H:12])[C@@:6]12[H:13])[H:7]>>[O:1]([C@@:2]([C:3]([C:4][H:11])([H:9])[H:10])(/[C:6](=[N:5]/[H:12])[H:13])[H:8])[H:7]"
O        1.78503716       0.31412057       0.61863453
C        0.82012797       0.19745003      -0.37093801
C        0.23772209      -1.26296063      -0.46797572
C       -1.19238043      -0.95080841      -0.51354972
N       -0.69744004       1.14220768       1.17363881
C       -0.38299134       1.07732283      -0.09375299
H        1.34715397       0.74544752       1.36890886
H        1.22062007       0.46450843      -1.35238417
H        0.62266652      -1.87399399       0.35034675
H        0.45384738      -1.69320710      -1.45650095
H       -1.75143925      -1.42789210       0.30059265
H       -1.46903900       1.77994765       1.33988262
H       -0.99388509       1.48785753      -0.89690266
13
Frame=9 idx=000449 GeodesicLength=0.8337048152936574 rxn_smarts="[O:1]([C@@:2]1([H:8])[C:3]([H:9])([H:10])[C@@:4]2([H:11])[N:5]([H:12])[C@@:6]12[H:13])[H:7]>>[O:1]([C@@:2]([C:3]([C:4][H:11])([H:9])[H:10])(/[C:6](=[N:5]/[H:12])[H:13])[H:8])[H:7]"
O        1.80419523       0.33500046       0.60440546
C        0.83291829       0.20313951      -0.37792298
C        0.23786626      -1.24974044      -0.44633274
C       -1.18902546      -0.92077506      -0.49021358
N       -0.70655828       1.10442700       1.16846403
C       -0.37616068       1.07580815      -0.10241569
H        1.36402042       0.75242840       1.36081091
H        1.22558744       0.45766399      -1.36556882
H        0.61748643      -1.86150202       0.37386904
H        0.42430256      -1.69711765      -1.43477854
H       -1.77786962      -1.44948595       0.26730254
H       -1.48218107       1.73537073       1.34162158
H       -0.97458151       1.51478287      -0.89924121
13
Frame=10 idx=000449 GeodesicLength=0.9255816967710052 rxn_smarts="[O:1]([C@@:2]1([H:8])[C:3]([H:9])([H:10])[C@@:4]2([H:11])[N:5]([H:12])[C@@:6]12[H:13])[H:7]>>[O:1]([C@@:2]([C:3]([C:4][H:11])([H:9])[H:10])(/[C:6](=[N:5]/[H:12])[H:13])[H:8])[H:7]"
O        1.82305349       0.35597963       0.58938392
C        0.84467156       0.20839166      -0.38460450
C        0.23821967      -1.23684475      -0.42392959
C       -1.18570494      -0.89242589      -0.46569960
N       -0.71343756       1.06972486       1.16399821
C       -0.37023517       1.07381031      -0.11011216
H        1.38185772       0.75994397       1.35214841
H        1.22886950       0.45019541      -1.37856365
H        0.61258515      -1.84872410       0.39863080
H        0.39512373      -1.70107742      -1.41127119
H       -1.80443328      -1.47289045       0.22547677
H       -1.49350873       1.69333384       1.34367775
H       -0.95706114       1.54058293      -0.89913517
13
Frame=11 idx=000449 GeodesicLength=1.0175349992524954 rxn_smarts="[O:1]([C@@:2]1([H:8])[C:3]([H:9])([H:10])[C@@:4]2([H:11])[N:5]([H:12])[C@@:6]12[H:13])[H:7]>>[O:1]([C@@:2]([C:3]([C:4][H:11])([H:9])[H:10])(/[C:6](=[N:5]/[H:12])[H:13])[H:8])[H:7]"
O        1.84182427       0.37738490       0.57281683
C        0.85529462       0.21311104      -0.39117538
C        0.23886899      -1.22444959      -0.40019333
C       -1.18212496      -0.86602098      -0.44057157
N       -0.71796482       1.03697606       1.16075935
C       -0.36519213       1.07105023      -0.11658638
H        1.40136498       0.76918777       1.34193240
H        1.22978916       0.44182015      -1.39167582
H        0.60751610      -1.83506377       0.42583826
H        0.36711835      -1.70595021      -1.38492768
H       -1.83205898      -1.49529469       0.17288809
H       -1.50305347       1.65221463       1.34703956
H       -0.94138212       1.56503446      -0.89614433
13
Frame=12 idx=000449 GeodesicLength=1.1094903810485168 rxn_smarts="[O:1]([C@@:2]1([H:8])[C:3]([H:9])([H:10])[C@@:4]2([H:11])[N:5]([H:12])[C@@:6]12[H:13])[H:7]>>[O:1]([C@@:2]([C:3]([C:4][H:11])([H:9])[H:10])(/[C:6](=[N:5]/[H:12])[H:13])[H:8])[H:7]"
O        1.86027246       0.39893558       0.55505861
C        0.86479155       0.21723287      -0.39755911
C        0.23979077      -1.21258989      -0.37533717
C       -1.17867644      -0.84169239      -0.41349972
N       -0.72070343       1.00654806       1.15871623
C       -0.36120655       1.06761268      -0.12218226
H        1.42186740       0.77916159       1.33079053
H        1.22872853       0.43247714      -1.40477655
H        0.60304294      -1.82111545       0.45469668
H        0.33956525      -1.71122952      -1.35643258
H       -1.85888486      -1.51661686       0.11009306
H       -1.51086842       1.61325626       1.35141452
H       -0.92771921       1.58801992      -0.89098225
13
Frame=13 idx=000449 GeodesicLength=1.2012140169648928 rxn_smarts="[O:1]([C@@:2]1([H:8])[C:3]([H:9])([H:10])[C@@:4]2([H:11])[N:5]([H:12])[C@@:6]12[H:13])[H:7]>>[O:1]([C@@:2]([C:3]([C:4][H:11])([H:9])[H:10])(/[C:6](=[N:5]/[H:12])[H:13])[H:8])[H:7]"
O        1.87781037       0.42050196       0.53650961
C        0.87290571       0.22067487      -0.40348911
C        0.24070970      -1.20119153      -0.34957833
C       -1.17567115      -0.81962957      -0.38301094
N       -0.72193089       0.97898737       1.15773719
C       -0.35840463       1.06337774      -0.12711970
H        1.44259766       0.78901012       1.31926560
H        1.22564286       0.42197357      -1.41736566
H        0.59959969      -1.80726192       0.48415610
H        0.31134240      -1.71624138      -1.32632521
H       -1.88208072      -1.53701165       0.03706398
H       -1.51650669       1.57788333       1.35640574
H       -0.91601433       1.60892711      -0.88424926
13
Frame=14 idx=000449 GeodesicLength=1.2927071561117327 rxn_smarts="[O:1]([C@@:2]1([H:8])[C:3]([H:9])([H:10])[C@@:4]2([H:11])[N:5]([H:12])[C@@:6]12[H:13])[H:7]>>[O:1]([C@@:2]([C:3]([C:4][H:11])([H:9])[H:10])(/[C:6](=[N:5]/[H:12])[H:13])[H:8])[H:7]"
O        1.89479264       0.44233375       0.51630710
C        0.87967954       0.22324135      -0.40934637
C        0.24208166      -1.19068727      -0.32241059
C       -1.17268244      -0.80038993      -0.35013353
N       -0.72176664       0.95273520       1.15827639
C       -0.35698229       1.05789267      -0.13120467
H        1.46422349       0.79985446       1.30631415
H        1.22008048       0.41006199      -1.43004555
H        0.59718682      -1.79320410       0.51557740
H        0.28408512      -1.72224539      -1.29360680
H       -1.90310109      -1.55065830      -0.04719097
H       -1.52085158       1.54347984       1.36302480
H       -0.90674570       1.62758572      -0.87556138
13
Frame=15 idx=000449 GeodesicLength=1.383707962007602 rxn_smarts="[O:1]([C@@:2]1([H:8])[C:3]([H:9])([H:10])[C@@:4]2([H:11])[N:5]([H:12])[C@@:6]12[H:13])[H:7]>>[O:1]([C@@:2]([C:3]([C:4][H:11])([H:9])[H:10])(/[C:6](=[N:5]/[H:12])[H:13])[H:8])[H:7]"
O        1.91073628       0.46416686       0.49477774
C        0.88501567       0.22480036      -0.41507903
C        0.24390114      -1.18119025      -0.29424292
C       -1.16984555      -0.78433616      -0.31484617
N       -0.72080930       0.92742210       1.16007751
C       -0.35715520       1.05086335      -0.13468344
H        1.48600990       0.81119738       1.29221039
H        1.21222856       0.39670270      -1.44256904
H        0.59617046      -1.77940068       0.54811459
H        0.25770372      -1.72906805      -1.25885813
H       -1.91983905      -1.55489591      -0.14037493
H       -1.52422049       1.51006607       1.37089217
H       -0.89989614       1.64367223      -0.86541874
13
Frame=16 idx=000449 GeodesicLength=1.474202897154496 rxn_smarts="[O:1]([C@@:2]1([H:8])[C:3]([H:9])([H:10])[C@@:4]2([H:11])[N:5]([H:12])[C@@:6]12[H:13])[H:7]>>[O:1]([C@@:2]([C:3]([C:4][H:11])([H:9])[H:10])(/[C:6](=[N:5]/[H:12])[H:13])[H:8])[H:7]"
O        1.92527723       0.48583619       0.47218613
C        0.88897842       0.22526243      -0.42076558
C        0.24634498      -1.17283220      -0.26563178
C       -1.16701281      -0.77172187      -0.27829596
N       -0.71972017       0.90217191       1.16272550
C       -0.35901191       1.04199139      -0.13784140
H        1.50730813       0.82273509       1.27711645
H        1.20244327       0.38198950      -1.45484158
H        0.59665814      -1.76609486       0.58114846
H        0.23272757      -1.73684318      -1.22266412
H       -1.93132586      -1.54624860      -0.23847707
H       -1.52740538       1.47660921       1.37951223
H       -0.89526163       1.65714498      -0.85417128
