15
Frame=0 idx=009591 GeodesicLength=0.0 rxn_smarts="[O:1]([C@@:2]1([H:9])[C:3]([H:10])([H:11])[C@@:4]2([O:5][H:12])[C:6]([H:13])([H:14])[C@@:7]12[H:15])[H:8]>>[O:1]([C@@:2]1([H:9])[C:3]([H:10])([H:11])[C@:4]([O:5][H:12])([H:15])[C:6]([H:13])([H:14])[C:7]1)[H:8]"
O        2.06787203       0.25208902      -0.77288955
C        1.23792399       0.23930348       0.37342927
C        0.01041588       1.14848756       0.17395145
C       -0.98307872       0.00602626       0.28960268
O       -2.34235488       0.22750778       0.42958197
C       -0.45227225      -1.09329285      -0.60365782
C        0.55079427      -1.15697774       0.51969306
H        2.81736754      -0.32447068      -0.60802990
H        1.81992990       0.49946036       1.26069224
H       -0.10162486       1.88728889       0.96606469
H       -0.00476465       1.65287364      -0.79377161
H       -2.80079783      -0.16555934      -0.31453401
H       -1.09457118      -1.96881498      -0.67405566
H       -0.09270003      -0.74957375      -1.57077545
H       -0.63213922      -0.45434766       1.32469859
15
Frame=1 idx=009591 GeodesicLength=0.0764386133417379 rxn_smarts="[O:1]([C@@:2]1([H:9])[C:3]([H:10])([H:11])[C@@:4]2([O:5][H:12])[C:6]([H:13])([H:14])[C@@:7]12[H:15])[H:8]>>[O:1]([C@@:2]1([H:9])[C:3]([H:10])([H:11])[C@:4]([O:5][H:12])([H:15])[C:6]([H:13])([H:14])[C:7]1)[H:8]"
O        2.05174913       0.26349559      -0.78756600
C        1.24049783       0.24720553       0.37248414
C        0.00630874       1.14862964       0.19085323
C       -0.98059802      -0.00094357       0.29439438
O       -2.34218100       0.22735180       0.40122130
C       -0.44861922      -1.10582368      -0.59043637
C        0.56072069      -1.14741915       0.52459072
H        2.79406542      -0.32788835      -0.64320061
H        1.83536631       0.50925783       1.25062343
H       -0.10412167       1.87398626       0.99581752
H       -0.01486111       1.67216306      -0.76643035
H       -2.77626517      -0.10794657      -0.38494540
H       -1.07624052      -1.99434160      -0.63200423
H       -0.10550770      -0.78318223      -1.57028489
H       -0.64031371      -0.47454458       1.34488314
15
Frame=2 idx=009591 GeodesicLength=0.15291753208009895 rxn_smarts="[O:1]([C@@:2]1([H:9])[C:3]([H:10])([H:11])[C@@:4]2([O:5][H:12])[C:6]([H:13])([H:14])[C@@:7]12[H:15])[H:8]>>[O:1]([C@@:2]1([H:9])[C:3]([H:10])([H:11])[C@:4]([O:5][H:12])([H:15])[C:6]([H:13])([H:14])[C:7]1)[H:8]"
O        2.03492605       0.27458688      -0.80214099
C        1.24264088       0.25512213       0.37132846
C        0.00224238       1.14896089       0.20764044
C       -0.97835047      -0.00736897       0.29826561
O       -2.34147313       0.22757450       0.37077051
C       -0.44516930      -1.11817995      -0.57753998
C        0.56972084      -1.13758976       0.52931434
H        2.76958770      -0.33093190      -0.67783326
H        1.85019341       0.51902437       1.24015011
H       -0.10660356       1.86023248       1.02553778
H       -0.02441436       1.69199724      -0.73846698
H       -2.74791651      -0.05191578      -0.45148191
H       -1.05804110      -2.01839658      -0.59024430
H       -0.11796162      -0.81810258      -1.56949907
H       -0.64938120      -0.49501296       1.36419925
15
Frame=3 idx=009591 GeodesicLength=0.2295075069027096 rxn_smarts="[O:1]([C@@:2]1([H:9])[C:3]([H:10])([H:11])[C@@:4]2([O:5][H:12])[C:6]([H:13])([H:14])[C@@:7]12[H:15])[H:8]>>[O:1]([C@@:2]1([H:9])[C:3]([H:10])([H:11])[C@:4]([O:5][H:12])([H:15])[C:6]([H:13])([H:14])[C:7]1)[H:8]"
O        2.01742417       0.28542375      -0.81667023
C        1.24443029       0.26308968       0.36996462
C       -0.00179141       1.14950671       0.22438680
C       -0.97633219      -0.01325973       0.30128460
O       -2.34017228       0.22823596       0.33835390
C       -0.44191242      -1.13040642      -0.56491876
C        0.57790141      -1.12749893       0.53389287
H        2.74396190      -0.33366433      -0.71207978
H        1.86456164       0.52882747       1.22925819
H       -0.10905865       1.84605240       1.05531542
H       -0.03348797       1.71239081      -0.70977830
H       -2.71618929       0.00254215      -0.51464516
H       -1.03996307      -2.04109552      -0.54873339
H       -0.13009838      -0.85440164      -1.56834200
H       -0.65927374      -0.51574235       1.38271120
15
Frame=4 idx=009591 GeodesicLength=0.3062696667932656 rxn_smarts="[O:1]([C@@:2]1([H:9])[C:3]([H:10])([H:11])[C@@:4]2([O:5][H:12])[C:6]([H:13])([H:14])[C@@:7]12[H:15])[H:8]>>[O:1]([C@@:2]1([H:9])[C:3]([H:10])([H:11])[C@:4]([O:5][H:12])([H:15])[C:6]([H:13])([H:14])[C:7]1)[H:8]"
O        1.99921772       0.29603654      -0.83121528
C        1.24590863       0.27112389       0.36837937
C       -0.00581239       1.15027240       0.24113512
C       -0.97452472      -0.01863750       0.30350728
O       -2.33818691       0.22937035       0.30407476
C       -0.43884068      -1.14254089      -0.55253392
C        0.58536072      -1.11717230       0.53833524
H        2.71722860      -0.33606448      -0.74598999
H        1.87855930       0.53869325       1.21792730
H       -0.11148205       1.83144195       1.08519438
H       -0.04215821       1.73333749      -0.68029928
H       -2.68140876       0.05552531      -0.57484297
H       -1.02199813      -2.06251804      -0.50740792
H       -0.14196776      -0.89211703      -1.56673972
H       -0.66989535      -0.53675095       1.40047564
15
Frame=5 idx=009591 GeodesicLength=0.3830923236852387 rxn_smarts="[O:1]([C@@:2]1([H:9])[C:3]([H:10])([H:11])[C@@:4]2([O:5][H:12])[C:6]([H:13])([H:14])[C@@:7]12[H:15])[H:8]>>[O:1]([C@@:2]1([H:9])[C:3]([H:10])([H:11])[C@:4]([O:5][H:12])([H:15])[C:6]([H:13])([H:14])[C:7]1)[H:8]"
O        1.98029195       0.30651459      -0.84579531
C        1.24705947       0.27923960       0.36654439
C       -0.00977795       1.15119672       0.25791473
C       -0.97289908      -0.02349733       0.30497120
O       -2.33533959       0.23104422       0.26797122
C       -0.43593943      -1.15448646      -0.54030314
C        0.59204764      -1.10652841       0.54265395
H        2.68924888      -0.33814620      -0.77970688
H        1.89214806       0.54860977       1.20606288
H       -0.11383315       1.81624527       1.11516505
H       -0.05032294       1.75475101      -0.64993036
H       -2.64370450       0.10674933      -0.63232887
H       -1.00417376      -2.08253549      -0.46619089
H       -0.15351534      -0.93114888      -1.56452236
H       -0.68129028      -0.55800775       1.41749437
15
Frame=6 idx=009591 GeodesicLength=0.46008015994036777 rxn_smarts="[O:1]([C@@:2]1([H:9])[C:3]([H:10])([H:11])[C@@:4]2([O:5][H:12])[C:6]([H:13])([H:14])[C@@:7]12[H:15])[H:8]>>[O:1]([C@@:2]1([H:9])[C:3]([H:10])([H:11])[C@:4]([O:5][H:12])([H:15])[C:6]([H:13])([H:14])[C:7]1)[H:8]"
O        1.96059410       0.31683669      -0.86045166
C        1.24791390       0.28743630       0.36444596
C       -0.01373870       1.15231318       0.27473019
C       -0.97143004      -0.02788513       0.30572170
O       -2.33154014       0.23324612       0.23017157
C       -0.43321410      -1.16634873      -0.52823861
C        0.59810288      -1.09568534       0.54679982
H        2.66018203      -0.33980695      -0.81309995
H        1.90538440       0.55860031       1.19368339
H       -0.11612531       1.80056341       1.14520360
H       -0.05813779       1.77662877      -0.61867312
H       -2.60336059       0.15654290      -0.68737977
H       -0.98649966      -2.10130848      -0.42507969
H       -0.16486394      -0.97155299      -1.56165154
H       -0.69326703      -0.57958005       1.43381813
15
Frame=7 idx=009591 GeodesicLength=0.5372962083036235 rxn_smarts="[O:1]([C@@:2]1([H:9])[C:3]([H:10])([H:11])[C@@:4]2([O:5][H:12])[C:6]([H:13])([H:14])[C@@:7]12[H:15])[H:8]>>[O:1]([C@@:2]1([H:9])[C:3]([H:10])([H:11])[C@:4]([O:5][H:12])([H:15])[C:6]([H:13])([H:14])[C:7]1)[H:8]"
O        1.94008996       0.32710361      -0.87523038
C        1.24850129       0.29575240       0.36207497
C       -0.01767054       1.15358154       0.29163795
C       -0.97011530      -0.03182546       0.30579067
O       -2.32669171       0.23596205       0.19062922
C       -0.43069143      -1.17810681      -0.51628253
C        0.60354098      -1.08458986       0.55080714
H        2.62993487      -0.34101776      -0.84629678
H        1.91835450       0.56871220       1.18074182
H       -0.11829709       1.78426236       1.17538269
H       -0.06558403       1.79892316      -0.58642124
H       -2.56042976       0.20483170      -0.74035717
H       -0.96906455      -2.11879661      -0.38396429
H       -0.17606617      -1.01332659      -1.55801116
H       -0.70581101      -0.60146592       1.44949909
15
Frame=8 idx=009591 GeodesicLength=0.6145795460762158 rxn_smarts="[O:1]([C@@:2]1([H:9])[C:3]([H:10])([H:11])[C@@:4]2([O:5][H:12])[C:6]([H:13])([H:14])[C@@:7]12[H:15])[H:8]>>[O:1]([C@@:2]1([H:9])[C:3]([H:10])([H:11])[C@:4]([O:5][H:12])([H:15])[C:6]([H:13])([H:14])[C:7]1)[H:8]"
O        1.91867854       0.33729974      -0.89007971
C        1.24875820       0.30413829       0.35938936
C       -0.02165062       1.15494317       0.30863777
C       -0.96891436      -0.03531332       0.30522103
O       -2.32059833       0.23929421       0.14938890
C       -0.42828941      -1.18971261      -0.50436697
C        0.60842766      -1.07325676       0.55460892
H        2.59841274      -0.34183871      -0.87931132
H        1.93094008       0.57886336       1.16712185
H       -0.12045757       1.76729124       1.20557855
H       -0.07277484       1.82149634      -0.55308989
H       -2.51493857       0.25168667      -0.79135197
H       -0.95173004      -2.13492761      -0.34287804
H       -0.18706573      -1.05633933      -1.55336343
H       -0.71879773      -0.62362468       1.46449495
15
Frame=9 idx=009591 GeodesicLength=0.6921259849254214 rxn_smarts="[O:1]([C@@:2]1([H:9])[C:3]([H:10])([H:11])[C@@:4]2([O:5][H:12])[C:6]([H:13])([H:14])[C@@:7]12[H:15])[H:8]>>[O:1]([C@@:2]1([H:9])[C:3]([H:10])([H:11])[C@:4]([O:5][H:12])([H:15])[C:6]([H:13])([H:14])[C:7]1)[H:8]"
O        1.89645591       0.34751544      -0.90504364
C        1.24874840       0.31265439       0.35642496
C       -0.02560828       1.15644066       0.32572594
C       -0.96784954      -0.03838693       0.30406278
O       -2.31320135       0.24321014       0.10655237
C       -0.42610998      -1.20120781      -0.49255226
C        0.61274864      -1.06174099       0.55820704
H        2.56573884      -0.34217471      -0.91211378
H        1.94321663       0.58914729       1.15295633
H       -0.12246586       1.74974515       1.23580694
H       -0.07964410       1.84432706      -0.51877422
H       -2.46710247       0.29691615      -0.84054575
H       -0.93472682      -2.14979985      -0.30189249
H       -0.19800843      -1.10053117      -1.54777767
H       -0.73219160      -0.64611484       1.47896346
15
Frame=10 idx=009591 GeodesicLength=0.7698900608567605 rxn_smarts="[O:1]([C@@:2]1([H:9])[C:3]([H:10])([H:11])[C@@:4]2([O:5][H:12])[C:6]([H:13])([H:14])[C@@:7]12[H:15])[H:8]>>[O:1]([C@@:2]1([H:9])[C:3]([H:10])([H:11])[C@:4]([O:5][H:12])([H:15])[C:6]([H:13])([H:14])[C:7]1)[H:8]"
O        1.87336395       0.35776066      -0.92009601
C        1.24843844       0.32128418       0.35315438
C       -0.02958986       1.15802409       0.34290085
C       -0.96690730      -0.04105702       0.30234980
O       -2.30435166       0.24774433       0.06216781
C       -0.42412950      -1.21255695      -0.48080838
C        0.61655046      -1.05004731       0.56154421
H        2.53187315      -0.34203084      -0.94469171
H        1.95512580       0.59953506       1.13818052
H       -0.12436695       1.73156857       1.26599398
H       -0.08627252       1.86728901      -0.48343146
H       -2.41691784       0.34056780      -0.88806276
H       -0.91802284      -2.16336372      -0.26100980
H       -0.20890809      -1.14579813      -1.54110109
H       -0.74588524      -0.66891973       1.49290966
15
Frame=11 idx=009591 GeodesicLength=0.8479085417104413 rxn_smarts="[O:1]([C@@:2]1([H:9])[C:3]([H:10])([H:11])[C@@:4]2([O:5][H:12])[C:6]([H:13])([H:14])[C@@:7]12[H:15])[H:8]>>[O:1]([C@@:2]1([H:9])[C:3]([H:10])([H:11])[C@:4]([O:5][H:12])([H:15])[C:6]([H:13])([H:14])[C:7]1)[H:8]"
O        1.84938870       0.36807475      -0.93521771
C        1.24782021       0.33003049       0.34957329
C       -0.03361141       1.15965865       0.36015182
C       -0.96609202      -0.04335241       0.30012660
O       -2.29392476       0.25288667       0.01628564
C       -0.42236523      -1.22374543      -0.46912568
C        0.61986170      -1.03819608       0.56458575
H        2.49681435      -0.34137953      -0.97702805
H        1.96664443       0.61003330       1.12279318
H       -0.12615434       1.71275263       1.29606969
H       -0.09271437       1.89025784      -0.44708551
H       -2.36439955       0.38266831      -0.93402212
H       -0.90165066      -2.17562226      -0.22026394
H       -0.21983482      -1.19201578      -1.53324064
H       -0.75978223      -0.69205116       1.50639770
15
Frame=12 idx=009591 GeodesicLength=0.9262364970121592 rxn_smarts="[O:1]([C@@:2]1([H:9])[C:3]([H:10])([H:11])[C@@:4]2([O:5][H:12])[C:6]([H:13])([H:14])[C@@:7]12[H:15])[H:8]>>[O:1]([C@@:2]1([H:9])[C:3]([H:10])([H:11])[C@:4]([O:5][H:12])([H:15])[C:6]([H:13])([H:14])[C:7]1)[H:8]"
O        1.82452094       0.37849295      -0.95038561
C        1.24688071       0.33889493       0.34568184
C       -0.03769240       1.16131995       0.37746624
C       -0.96541284      -0.04529500       0.29743711
O       -2.28179149       0.25864429      -0.03103518
C       -0.42083395      -1.23476116      -0.45750438
C        0.62270757      -1.02621589       0.56729577
H        2.46055205      -0.34021498      -1.00911047
H        1.97773954       0.62064757       1.10680585
H       -0.12782599       1.69331094       1.32596759
H       -0.09903010       1.91312057      -0.40977459
H       -2.30954658       0.42321684      -0.97851882
H       -0.88563374      -2.18659279      -0.17970683
H       -0.23085165      -1.23904761      -1.52412134
H       -0.77378208      -0.71552060       1.51950282
15
Frame=13 idx=009591 GeodesicLength=1.004925842486445 rxn_smarts="[O:1]([C@@:2]1([H:9])[C:3]([H:10])([H:11])[C@@:4]2([O:5][H:12])[C:6]([H:13])([H:14])[C@@:7]12[H:15])[H:8]>>[O:1]([C@@:2]1([H:9])[C:3]([H:10])([H:11])[C@:4]([O:5][H:12])([H:15])[C:6]([H:13])([H:14])[C:7]1)[H:8]"
O        1.79875577       0.38905009      -0.96556463
C        1.24559985       0.34788005       0.34148086
C       -0.04184804       1.16298386       0.39482585
C       -0.96488056      -0.04690267       0.29432057
O       -2.26780890       0.26503276      -0.07971896
C       -0.41955825      -1.24558496      -0.44595034
C        0.62509964      -1.01413049       0.56963181
H        2.42305977      -0.33853813      -1.04091991
H        1.98836424       0.63138434       1.09023176
H       -0.12937476       1.67326175       1.35561340
H       -0.10527103       1.93576134      -0.37154652
H       -2.25233705       0.46216230      -1.02161983
H       -0.87000041      -2.19628953      -0.13940488
H       -0.24201538      -1.28673335      -1.51367461
H       -0.78778489      -0.73933735       1.53229545
15
Frame=14 idx=009591 GeodesicLength=1.084049241471149 rxn_smarts="[O:1]([C@@:2]1([H:9])[C:3]([H:10])([H:11])[C@@:4]2([O:5][H:12])[C:6]([H:13])([H:14])[C@@:7]12[H:15])[H:8]>>[O:1]([C@@:2]1([H:9])[C:3]([H:10])([H:11])[C@:4]([O:5][H:12])([H:15])[C:6]([H:13])([H:14])[C:7]1)[H:8]"
O        1.77211110       0.39976723      -0.98072011
C        1.24396218       0.35698282       0.33697188
C       -0.04610533       1.16461440       0.41219440
C       -0.96452040      -0.04820477       0.29081811
O       -2.25186001       0.27201531      -0.12968319
C       -0.41855836      -1.25620013      -0.43447063
C        0.62705912      -1.00196614       0.57155425
H        2.38436245      -0.33634095      -1.07241517
H        1.99847244       0.64224800       1.07309485
H       -0.13081393       1.65263473       1.38490682
H       -0.11151305       1.95803190      -0.33250167
H       -2.19275197       0.49957664      -1.06333659
H       -0.85475429      -2.20474035      -0.09942319
H       -0.25340215      -1.33489837      -1.50185252
H       -0.80168779      -0.76352033       1.54486276
15
Frame=15 idx=009591 GeodesicLength=1.1636925789603447 rxn_smarts="[O:1]([C@@:2]1([H:9])[C:3]([H:10])([H:11])[C@@:4]2([O:5][H:12])[C:6]([H:13])([H:14])[C@@:7]12[H:15])[H:8]>>[O:1]([C@@:2]1([H:9])[C:3]([H:10])([H:11])[C@:4]([O:5][H:12])([H:15])[C:6]([H:13])([H:14])[C:7]1)[H:8]"
O        1.74460461       0.41066630      -0.99581103
C        1.24194690       0.36620258       0.33215892
C       -0.05048501       1.16618538       0.42953654
C       -0.96435689      -0.04922112       0.28696096
O       -2.23381188       0.27957581      -0.18083487
C       -0.41785839      -1.26658859      -0.42307803
C        0.62859349      -0.98974628       0.57302338
H        2.34445788      -0.33363105      -1.10356055
H        2.00801120       0.65324505       1.05542323
H       -0.13214941       1.63146887       1.41375680
H       -0.11782115       1.97980534      -0.29274090
H       -2.13075925       0.53546023      -1.10366250
H       -0.83990250      -2.21197770      -0.05983738
H       -0.26507827      -1.38335831      -1.48862109
H       -0.81539133      -0.78808653       1.55728651
15
Frame=16 idx=009591 GeodesicLength=1.2439625486457728 rxn_smarts="[O:1]([C@@:2]1([H:9])[C:3]([H:10])([H:11])[C@@:4]2([O:5][H:12])[C:6]([H:13])([H:14])[C@@:7]12[H:15])[H:8]>>[O:1]([C@@:2]1([H:9])[C:3]([H:10])([H:11])[C@:4]([O:5][H:12])([H:15])[C:6]([H:13])([H:14])[C:7]1)[H:8]"
O        1.71626634       0.42176334      -1.01079336
C        1.23953481       0.37553708       0.32704898
C       -0.05500817       1.16767216       0.44680962
C       -0.96441932      -0.04996947       0.28277297
O       -2.21353737       0.28768419      -0.23307094
C       -0.41748212      -1.27673211      -0.41178845
C        0.62970764      -0.97749311       0.57400335
H        2.30335161      -0.33042223      -1.13431590
H        2.01692827       0.66438083       1.03725355
H       -0.13339279       1.60981356       1.44206759
H       -0.12426440       2.00095602      -0.25238984
H       -2.06633234       0.56982952      -1.14255603
H       -0.82544164      -2.21804181      -0.02072659
H       -0.27711230      -1.43192177      -1.47396555
H       -0.82879821      -0.81305619       1.56965060
