14
Frame=0 idx=002973 GeodesicLength=0.0 rxn_smarts="[C:1]([C@@:2]1([H:10])[O:3][C@:4]1([C:5]([O:6][H:14])([H:12])[H:13])[H:11])([H:7])([H:8])[H:9]>>[C:1]([C@@:2]([O:3][H:11])([C:4][C:5]([O:6][H:14])([H:12])[H:13])[H:10])([H:7])([H:8])[H:9]"
C        1.75638357       0.28257931      -0.22417654
C        0.81445305      -0.70809698       0.40445091
O        0.23098336      -0.22444350       1.63278089
C       -0.64225123      -0.69860914       0.17700495
C       -1.26084747       0.44818212      -0.52781851
O       -2.65358399       0.53378235      -0.33619293
H        1.33605978       1.28630555      -0.25177137
H        1.98646497      -0.02899680      -1.24526426
H        2.69304733       0.31764090       0.33302766
H        1.27083114      -1.69090539       0.52772658
H       -0.69925287      -0.86282013       1.53150378
H       -1.01975672       0.29024355      -1.59475753
H       -0.83917335       1.41468414      -0.24119913
H       -2.97335756      -0.35954604      -0.18531452
14
Frame=1 idx=002973 GeodesicLength=0.03967856051922671 rxn_smarts="[C:1]([C@@:2]1([H:10])[O:3][C@:4]1([C:5]([O:6][H:14])([H:12])[H:13])[H:11])([H:7])([H:8])[H:9]>>[C:1]([C@@:2]([O:3][H:11])([C:4][C:5]([O:6][H:14])([H:12])[H:13])[H:10])([H:7])([H:8])[H:9]"
C        1.75879193       0.28755807      -0.21956516
C        0.81559803      -0.70670014       0.40128962
O        0.22445855      -0.22964217       1.62758028
C       -0.64088026      -0.69932607       0.17085773
C       -1.26099246       0.44322370      -0.53730324
O       -2.65257752       0.54025338      -0.34701153
H        1.33692984       1.29067247      -0.24677974
H        1.99525597      -0.02059588      -1.24021830
H        2.69174255       0.32330809       0.34386022
H        1.27241543      -1.68951219       0.52300046
H       -0.70632082      -0.88546644       1.52788842
H       -1.02495487       0.27488598      -1.60388609
H       -0.83319310       1.41075827      -0.26270462
H       -2.97627325      -0.33941707      -0.13700803
14
Frame=2 idx=002973 GeodesicLength=0.07934640418241007 rxn_smarts="[C:1]([C@@:2]1([H:10])[O:3][C@:4]1([C:5]([O:6][H:14])([H:12])[H:13])[H:11])([H:7])([H:8])[H:9]>>[C:1]([C@@:2]([O:3][H:11])([C:4][C:5]([O:6][H:14])([H:12])[H:13])[H:10])([H:7])([H:8])[H:9]"
C        1.76098102       0.29270086      -0.21483182
C        0.81673279      -0.70534923       0.39812259
O        0.21777940      -0.23508339       1.62230018
C       -0.63951731      -0.70039313       0.16462621
C       -1.26117896       0.43779585      -0.54704233
O       -2.65164871       0.54549945      -0.35840252
H        1.33737936       1.29512071      -0.24161174
H        2.00390716      -0.01190213      -1.23501796
H        2.69015112       0.32923910       0.35483012
H        1.27419743      -1.68807103       0.51824970
H       -0.71330457      -0.90866142       1.52384783
H       -1.03005500       0.25901961      -1.61310559
H       -0.82756684       1.40631200      -0.28446095
H       -2.97785691      -0.31622726      -0.08750372
14
Frame=3 idx=002973 GeodesicLength=0.11900066580781199 rxn_smarts="[C:1]([C@@:2]1([H:10])[O:3][C@:4]1([C:5]([O:6][H:14])([H:12])[H:13])[H:11])([H:7])([H:8])[H:9]>>[C:1]([C@@:2]([O:3][H:11])([C:4][C:5]([O:6][H:14])([H:12])[H:13])[H:10])([H:7])([H:8])[H:9]"
C        1.76292829       0.29799168      -0.21001457
C        0.81785724      -0.70405303       0.39498486
O        0.21100683      -0.24076036       1.61699225
C       -0.63817373      -0.70180801       0.15837393
C       -1.26143031       0.43191735      -0.55697391
O       -2.65086547       0.54931068      -0.37028786
H        1.33739708       1.29964273      -0.23630755
H        2.01233441      -0.00295185      -1.22971199
H        2.68828936       0.33540690       0.36585829
H        1.27616762      -1.68659881       0.51351951
H       -0.72017314      -0.93237774       1.51946212
H       -1.03503691       0.24275005      -1.62236767
H       -0.82237113       1.40137918      -0.30631420
H       -2.97793015      -0.28984876      -0.03721321
14
Frame=4 idx=002973 GeodesicLength=0.1585728365540196 rxn_smarts="[C:1]([C@@:2]1([H:10])[O:3][C@:4]1([C:5]([O:6][H:14])([H:12])[H:13])[H:11])([H:7])([H:8])[H:9]>>[C:1]([C@@:2]([O:3][H:11])([C:4][C:5]([O:6][H:14])([H:12])[H:13])[H:10])([H:7])([H:8])[H:9]"
C        1.76456698       0.30343022      -0.20517345
C        0.81895525      -0.70282791       0.39189368
O        0.20407285      -0.24664748       1.61173655
C       -0.63682377      -0.70360426       0.15217950
C       -1.26168708       0.42557676      -0.56701428
O       -2.65017239       0.55156074      -0.38245720
H        1.33689491       1.30426815      -0.23086864
H        2.02047019       0.00624321      -1.22441960
H        2.68607228       0.34180836       0.37681494
H        1.27834251      -1.68513233       0.50880185
H       -0.72693948      -0.95661385       1.51484582
H       -1.03973367       0.22605925      -1.63162507
H       -0.81765794       1.39600652      -0.32811905
H       -2.97636064      -0.26012738       0.01340496
14
Frame=5 idx=002973 GeodesicLength=0.1979466188183531 rxn_smarts="[C:1]([C@@:2]1([H:10])[O:3][C@:4]1([C:5]([O:6][H:14])([H:12])[H:13])[H:11])([H:7])([H:8])[H:9]>>[C:1]([C@@:2]([O:3][H:11])([C:4][C:5]([O:6][H:14])([H:12])[H:13])[H:10])([H:7])([H:8])[H:9]"
C        1.76592395       0.30890274      -0.20034548
C        0.82004400      -0.70159864       0.38892815
O        0.19743564      -0.25263889       1.60652468
C       -0.63554120      -0.70558656       0.14621166
C       -1.26207871       0.41890748      -0.57691000
O       -2.64971777       0.55210841      -0.39452977
H        1.33605807       1.30881282      -0.22540184
H        2.02800573       0.01550380      -1.21908039
H        2.68372537       0.34828568       0.38755579
H        1.28059211      -1.68353435       0.50422039
H       -0.73337861      -0.98105847       1.51009150
H       -1.04450642       0.20927671      -1.64055427
H       -0.81342030       1.39019850      -0.34951237
H       -2.97314186      -0.22757925       0.06280195
14
Frame=6 idx=002973 GeodesicLength=0.23700049924937713 rxn_smarts="[C:1]([C@@:2]1([H:10])[O:3][C@:4]1([C:5]([O:6][H:14])([H:12])[H:13])[H:11])([H:7])([H:8])[H:9]>>[C:1]([C@@:2]([O:3][H:11])([C:4][C:5]([O:6][H:14])([H:12])[H:13])[H:10])([H:7])([H:8])[H:9]"
C        1.76694242       0.31440198      -0.19564057
C        0.82112704      -0.70041515       0.38608660
O        0.19081120      -0.25868925       1.60147183
C       -0.63423270      -0.70779034       0.14057130
C       -1.26248717       0.41195606      -0.58654823
O       -2.64939657       0.55105985      -0.40618213
H        1.33471251       1.31336264      -0.21993204
H        2.03506768       0.02478764      -1.21390416
H        2.68107699       0.35481862       0.39788914
H        1.28302962      -1.68193980       0.49971995
H       -0.73963417      -1.00569983       1.50537361
H       -1.04897757       0.19236576      -1.64911235
H       -0.80976247       1.38411526      -0.37037660
H       -2.96827681      -0.19233344       0.11058364
14
Frame=7 idx=002973 GeodesicLength=0.27588969718033857 rxn_smarts="[C:1]([C@@:2]1([H:10])[O:3][C@:4]1([C:5]([O:6][H:14])([H:12])[H:13])[H:11])([H:7])([H:8])[H:9]>>[C:1]([C@@:2]([O:3][H:11])([C:4][C:5]([O:6][H:14])([H:12])[H:13])[H:10])([H:7])([H:8])[H:9]"
C        1.76777147       0.31990220      -0.19101470
C        0.82224087      -0.69922374       0.38338250
O        0.18440135      -0.26482930       1.59646470
C       -0.63299001      -0.71012223       0.13524407
C       -1.26302986       0.40475797      -0.59591370
O       -2.64939690       0.54843604      -0.41739553
H        1.33308176       1.31780492      -0.21449932
H        2.04168524       0.03410721      -1.20873855
H        2.67840781       0.36136790       0.40785969
H        1.28561822      -1.68022113       0.49536324
H       -0.74567795      -1.03047987       1.50057932
H       -1.05341762       0.17546820      -1.65720072
H       -0.80662822       1.37768821      -0.39070098
H       -2.96206616      -0.15465639       0.15656999
14
Frame=8 idx=002973 GeodesicLength=0.31473221634996074 rxn_smarts="[C:1]([C@@:2]1([H:10])[O:3][C@:4]1([C:5]([O:6][H:14])([H:12])[H:13])[H:11])([H:7])([H:8])[H:9]>>[C:1]([C@@:2]([O:3][H:11])([C:4][C:5]([O:6][H:14])([H:12])[H:13])[H:10])([H:7])([H:8])[H:9]"
C        1.76828697       0.32547016      -0.18646262
C        0.82333107      -0.69810558       0.38081680
O        0.17813534      -0.27109593       1.59170926
C       -0.63175650      -0.71269464       0.13018339
C       -1.26364980       0.39730747      -0.60508820
O       -2.64959265       0.54415511      -0.42793358
H        1.33102131       1.32231651      -0.20904750
H        2.04780995       0.04349557      -1.20373705
H        2.67549120       0.36801915       0.41758894
H        1.28829360      -1.67857445       0.49109585
H       -0.75152514      -1.05553222       1.49584997
H       -1.05791185       0.15846801      -1.66510197
H       -0.80395311       1.37104950      -0.41056557
H       -2.95398039      -0.11427866       0.20069227
14
Frame=9 idx=002973 GeodesicLength=0.35331242045063377 rxn_smarts="[C:1]([C@@:2]1([H:10])[O:3][C@:4]1([C:5]([O:6][H:14])([H:12])[H:13])[H:11])([H:7])([H:8])[H:9]>>[C:1]([C@@:2]([O:3][H:11])([C:4][C:5]([O:6][H:14])([H:12])[H:13])[H:10])([H:7])([H:8])[H:9]"
C        1.76845024       0.33106211      -0.18196206
C        0.82437353      -0.69698569       0.37836540
O        0.17213006      -0.27742149       1.58710340
C       -0.63051740      -0.71540518       0.12544769
C       -1.26426539       0.38961690      -0.61393353
O       -2.64975676       0.53851340      -0.43749868
H        1.32858024       1.32677699      -0.20348007
H        2.05324572       0.05295261      -1.19881623
H        2.67233102       0.37471168       0.42698391
H        1.29097368      -1.67684468       0.48682549
H       -0.75707933      -1.08069294       1.49109893
H       -1.06249042       0.14124941      -1.67256716
H       -0.80158740       1.36416059      -0.42995382
H       -2.94438780      -0.07169371       0.24238673
14
Frame=10 idx=002973 GeodesicLength=0.39197330293016636 rxn_smarts="[C:1]([C@@:2]1([H:10])[O:3][C@:4]1([C:5]([O:6][H:14])([H:12])[H:13])[H:11])([H:7])([H:8])[H:9]>>[C:1]([C@@:2]([O:3][H:11])([C:4][C:5]([O:6][H:14])([H:12])[H:13])[H:10])([H:7])([H:8])[H:9]"
C        1.76853163       0.33664927      -0.17761094
C        0.82550812      -0.69593213       0.37610850
O        0.16639498      -0.28383204       1.58283256
C       -0.62930583      -0.71818419       0.12117637
C       -1.26506413       0.38192746      -0.62235268
O       -2.65023150       0.53204905      -0.44561282
H        1.32592685       1.33127541      -0.19804406
H        2.05843964       0.06238881      -1.19411892
H        2.66924355       0.38137515       0.43601054
H        1.29386818      -1.67523444       0.48272068
H       -0.76246867      -1.10596324       1.48662635
H       -1.06747371       0.12405246      -1.67959666
H       -0.79957463       1.35724658      -0.44895219
H       -2.93379447      -0.02781815       0.28081328
14
Frame=11 idx=002973 GeodesicLength=0.43046183006072547 rxn_smarts="[C:1]([C@@:2]1([H:10])[O:3][C@:4]1([C:5]([O:6][H:14])([H:12])[H:13])[H:11])([H:7])([H:8])[H:9]>>[C:1]([C@@:2]([O:3][H:11])([C:4][C:5]([O:6][H:14])([H:12])[H:13])[H:10])([H:7])([H:8])[H:9]"
C        1.76838203       0.34224380      -0.17325214
C        0.82658789      -0.69480208       0.37391604
O        0.16101266      -0.29026667       1.57858355
C       -0.62813460      -0.72095079       0.11717807
C       -1.26594656       0.37407847      -0.63034552
O       -2.65069281       0.52478663      -0.45215621
H        1.32306369       1.33563449      -0.19256556
H        2.06316538       0.07183764      -1.18931871
H        2.66599778       0.38810196       0.44486515
H        1.29666246      -1.67342251       0.47857256
H       -0.76761590      -1.13122091       1.48198204
H       -1.07313913       0.10660548      -1.68603930
H       -0.79757853       1.34997034      -0.46766120
H       -2.92176437       0.01740413       0.31624123
14
Frame=12 idx=002973 GeodesicLength=0.46898837776709107 rxn_smarts="[C:1]([C@@:2]1([H:10])[O:3][C@:4]1([C:5]([O:6][H:14])([H:12])[H:13])[H:11])([H:7])([H:8])[H:9]>>[C:1]([C@@:2]([O:3][H:11])([C:4][C:5]([O:6][H:14])([H:12])[H:13])[H:10])([H:7])([H:8])[H:9]"
C        1.76806452       0.34786825      -0.16895883
C        0.82770413      -0.69372843       0.37186147
O        0.15586921      -0.29678952       1.57463272
C       -0.62694393      -0.72379469       0.11354541
C       -1.26691392       0.36620793      -0.63798585
O       -2.65118435       0.51707776      -0.45719807
H        1.31993321       1.34006235      -0.18706420
H        2.06756371       0.08134258      -1.18467688
H        2.66266105       0.39484239       0.45349045
H        1.29957728      -1.67172099       0.47445653
H       -0.77257833      -1.15663521       1.47748067
H       -1.07928552       0.08896253      -1.69211570
H       -0.79573273       1.34265535      -0.48622239
H       -2.90873433       0.06364970       0.34875468
14
Frame=13 idx=002973 GeodesicLength=0.5075642586835929 rxn_smarts="[C:1]([C@@:2]1([H:10])[O:3][C@:4]1([C:5]([O:6][H:14])([H:12])[H:13])[H:11])([H:7])([H:8])[H:9]>>[C:1]([C@@:2]([O:3][H:11])([C:4][C:5]([O:6][H:14])([H:12])[H:13])[H:10])([H:7])([H:8])[H:9]"
C        1.76763519       0.35353390      -0.16467248
C        0.82885624      -0.69265200       0.36989172
O        0.15094677      -0.30343035       1.57084259
C       -0.62575821      -0.72666729       0.11020799
C       -1.26799693       0.35826470      -0.64527056
O       -2.65171909       0.50910554      -0.46061879
H        1.31658616       1.34447300      -0.18152181
H        2.07176970       0.09095697      -1.18004671
H        2.65926131       0.40162950       0.46198355
H        1.30260171      -1.66998488       0.47031313
H       -0.77739992      -1.18220524       1.47294170
H       -1.08611880       0.07102072      -1.69773361
H       -0.79391181       1.33510928      -0.50478110
H       -2.89475232       0.11084616       0.37846438
14
Frame=14 idx=002973 GeodesicLength=0.5460191450400143 rxn_smarts="[C:1]([C@@:2]1([H:10])[O:3][C@:4]1([C:5]([O:6][H:14])([H:12])[H:13])[H:11])([H:7])([H:8])[H:9]>>[C:1]([C@@:2]([O:3][H:11])([C:4][C:5]([O:6][H:14])([H:12])[H:13])[H:10])([H:7])([H:8])[H:9]"
C        1.76712022       0.35909009      -0.16053346
C        0.82999862      -0.69150638       0.36807631
O        0.14650725      -0.30988278       1.56730292
C       -0.62461545      -0.72930078       0.10735582
C       -1.26915909       0.35057137      -0.65191553
O       -2.65218901       0.50138576      -0.46238247
H        1.31327657       1.34878528      -0.17608846
H        2.07553840       0.10035422      -1.17557764
H        2.65594331       0.40822646       0.47006545
H        1.30548611      -1.66820456       0.46624787
H       -0.78202845      -1.20745719       1.46859138
H       -1.09356907       0.05325894      -1.70261401
H       -0.79199834       1.32760032      -0.52285790
H       -2.88031107       0.15707924       0.40432972
14
Frame=15 idx=002973 GeodesicLength=0.5844716965952736 rxn_smarts="[C:1]([C@@:2]1([H:10])[O:3][C@:4]1([C:5]([O:6][H:14])([H:12])[H:13])[H:11])([H:7])([H:8])[H:9]>>[C:1]([C@@:2]([O:3][H:11])([C:4][C:5]([O:6][H:14])([H:12])[H:13])[H:10])([H:7])([H:8])[H:9]"
C        1.76653527       0.36458707      -0.15652377
C        0.83115896      -0.69034002       0.36640802
O        0.14243309      -0.31623779       1.56403965
C       -0.62349628      -0.73179504       0.10494526
C       -1.27037481       0.34306225      -0.65805441
O       -2.65260415       0.49384066      -0.46282702
H        1.30995177       1.35307689      -0.17068880
H        2.07893604       0.10966816      -1.17131101
H        2.65271112       0.41466677       0.47776840
H        1.30833179      -1.66645291       0.46223712
H       -0.78652217      -1.23258040       1.46442144
H       -1.10142357       0.03560390      -1.70690308
H       -0.79006154       1.32013381      -0.54058168
H       -2.86557553       0.20276666       0.42706990
14
Frame=16 idx=002973 GeodesicLength=0.6228883968869935 rxn_smarts="[C:1]([C@@:2]1([H:10])[O:3][C@:4]1([C:5]([O:6][H:14])([H:12])[H:13])[H:11])([H:7])([H:8])[H:9]>>[C:1]([C@@:2]([O:3][H:11])([C:4][C:5]([O:6][H:14])([H:12])[H:13])[H:10])([H:7])([H:8])[H:9]"
C        1.76589795       0.37002940      -0.15260300
C        0.83233474      -0.68912789       0.36485548
O        0.13870294      -0.32250230       1.56098260
C       -0.62240416      -0.73412897       0.10291526
C       -1.27165484       0.33572086      -0.66371776
O       -2.65294436       0.48665283      -0.46197831
H        1.30661521       1.35731248      -0.16532763
H        2.08205230       0.11889996      -1.16715677
H        2.64954631       0.42098997       0.48518623
H        1.31113661      -1.66467169       0.45825262
H       -0.79088847      -1.25759888       1.46031312
H       -1.10978791       0.01799324      -1.71058792
H       -0.78803739       1.31262675      -0.55806959
H       -2.85056894       0.24780423       0.44693566
