14
Frame=0 idx=007898 GeodesicLength=0.0 rxn_smarts="[C:1](/[C:2](=[N:3]\[O:4][H:11])[C@@:5]1([H:12])[C:6]([H:13])([H:14])[O:7]1)([H:8])([H:9])[H:10]>>[C:1]([C:2]([N-:3][O:4][H:11])=[C:5]([O+:7]=[C:6]([H:13])[H:14])[H:12])([H:8])([H:9])[H:10]"
C       -1.15526429      -1.11566126       0.06617879
C       -0.59104030       0.26893528      -0.03045117
N       -1.24444603       1.33002427       0.28836357
O       -2.52604218       1.02729119       0.70981534
C        0.73632459       0.49772331      -0.52169789
C        2.69193946      -0.20842475      -0.21808656
O        1.53307611      -0.54980606      -0.79082621
H       -2.07399588      -1.17912635      -0.51781734
H       -0.44516517      -1.85676840      -0.29248160
H       -1.41877538      -1.34192613       1.10062997
H       -2.89386354       1.88811988       0.91909043
H        1.11986341       1.48414827      -0.72372699
H        3.59221261      -0.39918818      -0.78445828
H        2.67517654       0.15465896       0.79546798
14
Frame=1 idx=007898 GeodesicLength=0.04245193366227201 rxn_smarts="[C:1](/[C:2](=[N:3]\[O:4][H:11])[C@@:5]1([H:12])[C:6]([H:13])([H:14])[O:7]1)([H:8])([H:9])[H:10]>>[C:1]([C:2]([N-:3][O:4][H:11])=[C:5]([O+:7]=[C:6]([H:13])[H:14])[H:12])([H:8])([H:9])[H:10]"
C       -1.17349001      -1.12149001       0.04481169
C       -0.58377000       0.25376915      -0.02970515
N       -1.21114454       1.31874452       0.32429141
O       -2.49706514       1.03274616       0.74525589
C        0.73980088       0.46812807      -0.54223443
C        2.68798304      -0.17491695      -0.19020953
O        1.54513718      -0.58731532      -0.74956066
H       -2.09720405      -1.15781658      -0.53367982
H       -0.48028758      -1.86937259      -0.33245272
H       -1.43344053      -1.36258891       1.07678685
H       -2.85494781       1.89856928       0.95107855
H        1.09628170       1.44421202      -0.82895538
H        3.59527189      -0.37150928      -0.74341473
H        2.66687497       0.22884044       0.80798803
14
Frame=2 idx=007898 GeodesicLength=0.0841953317069993 rxn_smarts="[C:1](/[C:2](=[N:3]\[O:4][H:11])[C@@:5]1([H:12])[C:6]([H:13])([H:14])[O:7]1)([H:8])([H:9])[H:10]>>[C:1]([C:2]([N-:3][O:4][H:11])=[C:5]([O+:7]=[C:6]([H:13])[H:14])[H:12])([H:8])([H:9])[H:10]"
C       -1.19004953      -1.12609455       0.02577655
C       -0.57662649       0.23966598      -0.02747571
N       -1.18023515       1.30744403       0.35600212
O       -2.47097194       1.03757791       0.77386931
C        0.74422978       0.44058290      -0.55694143
C        2.68301849      -0.14315373      -0.16725854
O        1.55612222      -0.61968164      -0.70911068
H       -2.11617798      -1.13758621      -0.54992401
H       -0.51115106      -1.87955875      -0.36616826
H       -1.45019323      -1.38017084       1.05455036
H       -2.81831551       1.90767514       0.97954591
H        1.07446386       1.40125364      -0.91895744
H        3.59576608      -0.34354028      -0.71017350
H        2.66012046       0.29558641       0.81626533
14
Frame=3 idx=007898 GeodesicLength=0.12475459089831951 rxn_smarts="[C:1](/[C:2](=[N:3]\[O:4][H:11])[C@@:5]1([H:12])[C:6]([H:13])([H:14])[O:7]1)([H:8])([H:9])[H:10]>>[C:1]([C:2]([N-:3][O:4][H:11])=[C:5]([O+:7]=[C:6]([H:13])[H:14])[H:12])([H:8])([H:9])[H:10]"
C       -1.20432670      -1.12950383       0.00949433
C       -0.56966188       0.22707695      -0.02411622
N       -1.15245110       1.29666268       0.38377843
O       -2.44807256       1.04170502       0.79699540
C        0.74939092       0.41615714      -0.56699391
C        2.67703111      -0.11427134      -0.14901011
O        1.56585425      -0.64679046      -0.67239193
H       -2.13094798      -1.11910924      -0.56549389
H       -0.53728827      -1.88767651      -0.39367867
H       -1.46725083      -1.39456378       1.03475218
H       -2.78574143       1.91555157       1.00278091
H        1.05503325       1.35870968      -0.99381188
H        3.59408422      -0.31603039      -0.68428896
H        2.65434701       0.35208249       0.82198432
14
Frame=4 idx=007898 GeodesicLength=0.16438851797308224 rxn_smarts="[C:1](/[C:2](=[N:3]\[O:4][H:11])[C@@:5]1([H:12])[C:6]([H:13])([H:14])[O:7]1)([H:8])([H:9])[H:10]>>[C:1]([C:2]([N-:3][O:4][H:11])=[C:5]([O+:7]=[C:6]([H:13])[H:14])[H:12])([H:8])([H:9])[H:10]"
C       -1.21665481      -1.13196055      -0.00460738
C       -0.56279637       0.21572906      -0.01975964
N       -1.12724125       1.28630837       0.40892640
O       -2.42779186       1.04524869       0.81609940
C        0.75501132       0.39446972      -0.57369091
C        2.67026455      -0.08797456      -0.13431310
O        1.57460407      -0.66981799      -0.63918079
H       -2.14235915      -1.10200687      -0.58044639
H       -0.55965261      -1.89424273      -0.41650325
H       -1.48415799      -1.40648104       1.01693736
H       -2.75675629       1.92246075       1.02152871
H        1.03738389       1.31731468      -1.05705928
H        3.59071262      -0.28946326      -0.66402368
H        2.64943387       0.40041573       0.82609256
14
Frame=5 idx=007898 GeodesicLength=0.2032235883260149 rxn_smarts="[C:1](/[C:2](=[N:3]\[O:4][H:11])[C@@:5]1([H:12])[C:6]([H:13])([H:14])[O:7]1)([H:8])([H:9])[H:10]>>[C:1]([C:2]([N-:3][O:4][H:11])=[C:5]([O+:7]=[C:6]([H:13])[H:14])[H:12])([H:8])([H:9])[H:10]"
C       -1.22736642      -1.13367557      -0.01685862
C       -0.55593567       0.20538733      -0.01412790
N       -1.10412019       1.27625064       0.43289150
O       -2.40966605       1.04824459       0.83275371
C        0.76095904       0.37525934      -0.57760006
C        2.66310457      -0.06397345      -0.12265252
O        1.58259083      -0.68960430      -0.60916331
H       -2.15107661      -1.08589194      -0.59475140
H       -0.57902775      -1.89961729      -0.43578080
H       -1.50078866      -1.41668094       1.00078553
H       -2.73163146       1.92882537       1.03480097
H        1.02110085       1.27766886      -1.11060546
H        3.58607993      -0.26410534      -0.64870166
H        2.64577759       0.44191268       0.82901002
14
Frame=6 idx=007898 GeodesicLength=0.2416038870087327 rxn_smarts="[C:1](/[C:2](=[N:3]\[O:4][H:11])[C@@:5]1([H:12])[C:6]([H:13])([H:14])[O:7]1)([H:8])([H:9])[H:10]>>[C:1]([C:2]([N-:3][O:4][H:11])=[C:5]([O+:7]=[C:6]([H:13])[H:14])[H:12])([H:8])([H:9])[H:10]"
C       -1.23687763      -1.13478859      -0.02799619
C       -0.54928595       0.19580442      -0.00854555
N       -1.08268866       1.26644199       0.45486661
O       -2.39286905       1.05079857       0.84748976
C        0.76700421       0.35772246      -0.58022411
C        2.65534310      -0.04165928      -0.11265850
O        1.59002066      -0.70711147      -0.58130372
H       -2.15810126      -1.07070338      -0.60833797
H       -0.59635616      -1.90406015      -0.45282679
H       -1.51658469      -1.42526573       0.98577307
H       -2.70831734       1.93447278       1.04607818
H        1.00598554       1.23902088      -1.15761788
H        3.58039464      -0.23974917      -0.63600454
H        2.64233260       0.47907665       0.83130763
14
Frame=7 idx=007898 GeodesicLength=0.27972465836825156 rxn_smarts="[C:1](/[C:2](=[N:3]\[O:4][H:11])[C@@:5]1([H:12])[C:6]([H:13])([H:14])[O:7]1)([H:8])([H:9])[H:10]>>[C:1]([C:2]([N-:3][O:4][H:11])=[C:5]([O+:7]=[C:6]([H:13])[H:14])[H:12])([H:8])([H:9])[H:10]"
C       -1.24558815      -1.13549502      -0.03846718
C       -0.54281863       0.18673844      -0.00298004
N       -1.06254476       1.25680468       0.47543909
O       -2.37711469       1.05306048       0.86088840
C        0.77313857       0.34135334      -0.58195153
C        2.64722024      -0.02055808      -0.10382929
O        1.59717814      -0.72295785      -0.55459887
H       -2.16390772      -1.05611369      -0.62157709
H       -0.61224208      -1.90786852      -0.46846676
H       -1.53195713      -1.43275727       0.97143117
H       -2.68624776       1.93963607       1.05631721
H        0.99170129       1.20079301      -1.19991718
H        3.57402205      -0.21645474      -0.62511660
H        2.63916063       0.51381914       0.83282867
14
Frame=8 idx=007898 GeodesicLength=0.31775628808346074 rxn_smarts="[C:1](/[C:2](=[N:3]\[O:4][H:11])[C@@:5]1([H:12])[C:6]([H:13])([H:14])[O:7]1)([H:8])([H:9])[H:10]>>[C:1]([C:2]([N-:3][O:4][H:11])=[C:5]([O+:7]=[C:6]([H:13])[H:14])[H:12])([H:8])([H:9])[H:10]"
C       -1.25373465      -1.13586947      -0.04861818
C       -0.53661054       0.17807382       0.00210726
N       -1.04349032       1.24735227       0.49434357
O       -2.36206517       1.05508685       0.87321993
C        0.77931922       0.32572553      -0.58327023
C        2.63870983      -0.00033999      -0.09565841
O        1.60415876      -0.73755800      -0.52831696
H       -2.16892508      -1.04202735      -0.63455849
H       -0.62711327      -1.91117132      -0.48326869
H       -1.54685911      -1.43928275       0.95747642
H       -2.66465337       1.94426465       1.06695964
H        0.97826378       1.16246625      -1.23881262
H        3.56707587      -0.19412535      -0.61519306
H        2.63592405       0.54740486       0.83358984
14
Frame=9 idx=007898 GeodesicLength=0.35582080815381967 rxn_smarts="[C:1](/[C:2](=[N:3]\[O:4][H:11])[C@@:5]1([H:12])[C:6]([H:13])([H:14])[O:7]1)([H:8])([H:9])[H:10]>>[C:1]([C:2]([N-:3][O:4][H:11])=[C:5]([O+:7]=[C:6]([H:13])[H:14])[H:12])([H:8])([H:9])[H:10]"
C       -1.26147257      -1.13594276      -0.05866026
C       -0.53064198       0.16970584       0.00667989
N       -1.02527905       1.23801636       0.51177499
O       -2.34747650       1.05688940       0.88471608
C        0.78551795       0.31055804      -0.58434984
C        2.62982490       0.01920872      -0.08789198
O        1.61101309      -0.75111066      -0.50196770
H       -2.17335088      -1.02825845      -0.64744261
H       -0.64124056      -1.91400921      -0.49757718
H       -1.56140406      -1.44498842       0.94366716
H       -2.64315848       1.94834382       1.07849677
H        0.96554005       1.12361730      -1.27509089
H        3.55961665      -0.17271434      -0.60579036
H        2.63251145       0.58068436       0.83343591
14
Frame=10 idx=007898 GeodesicLength=0.39398062654185045 rxn_smarts="[C:1](/[C:2](=[N:3]\[O:4][H:11])[C@@:5]1([H:12])[C:6]([H:13])([H:14])[O:7]1)([H:8])([H:9])[H:10]>>[C:1]([C:2]([N-:3][O:4][H:11])=[C:5]([O+:7]=[C:6]([H:13])[H:14])[H:12])([H:8])([H:9])[H:10]"
C       -1.26892579      -1.13575179      -0.06877080
C       -0.52496757       0.16161857       0.01050549
N       -1.00788519       1.22889143       0.52751000
O       -2.33326325       1.05851204       0.89547890
C        0.79175903       0.29564207      -0.58536444
C        2.62059559       0.03824824      -0.08032034
O        1.61778918      -0.76377984      -0.47508941
H       -2.17738408      -1.01476911      -0.66031716
H       -0.65480021      -1.91645773      -0.51164927
H       -1.57562741      -1.44993930       0.92986298
H       -2.62147859       1.95182057       1.09181263
H        0.95365596       1.08390366      -1.30938461
H        3.55175374      -0.15221856      -0.59654337
H        2.62877860       0.61427973       0.83226940
14
Frame=11 idx=007898 GeodesicLength=0.4320342663974136 rxn_smarts="[C:1](/[C:2](=[N:3]\[O:4][H:11])[C@@:5]1([H:12])[C:6]([H:13])([H:14])[O:7]1)([H:8])([H:9])[H:10]>>[C:1]([C:2]([N-:3][O:4][H:11])=[C:5]([O+:7]=[C:6]([H:13])[H:14])[H:12])([H:8])([H:9])[H:10]"
C       -1.27586823      -1.13530200      -0.07848643
C       -0.51942509       0.15388125       0.01432897
N       -0.99118637       1.21982020       0.54284830
O       -2.31960545       1.05986669       0.90581987
C        0.79799810       0.28146230      -0.58594814
C        2.61114782       0.05639951      -0.07343613
O        1.62432522      -0.77534464      -0.44897884
H       -2.18074164      -1.00158931      -0.67284969
H       -0.66754065      -1.91848712      -0.52507261
H       -1.58938216      -1.45431665       0.91646964
H       -2.60086434       1.95499198       1.10385216
H        0.94251003       1.04476585      -1.34059195
H        3.54346075      -0.13263295      -0.58836782
H        2.62517202       0.64648491       0.83041268
14
Frame=12 idx=007898 GeodesicLength=0.47001685508682134 rxn_smarts="[C:1](/[C:2](=[N:3]\[O:4][H:11])[C@@:5]1([H:12])[C:6]([H:13])([H:14])[O:7]1)([H:8])([H:9])[H:10]>>[C:1]([C:2]([N-:3][O:4][H:11])=[C:5]([O+:7]=[C:6]([H:13])[H:14])[H:12])([H:8])([H:9])[H:10]"
C       -1.28241843      -1.13458441      -0.08798013
C       -0.51404837       0.14643188       0.01800973
N       -0.97513843       1.21077520       0.55761517
O       -2.30640089       1.06095046       0.91576277
C        0.80422658       0.26780350      -0.58619078
C        2.60151624       0.07384057      -0.06705065
O        1.63067190      -0.78594154      -0.42313153
H       -2.18358029      -0.98860822      -0.68515677
H       -0.67963381      -1.92008740      -0.53805927
H       -1.60274468      -1.45813538       0.90328400
H       -2.58095346       1.95776718       1.11538741
H        0.93205123       1.00580700      -1.36926806
H        3.53479953      -0.11395804      -0.58092716
H        2.62165286       0.67793920       0.82770528
14
Frame=13 idx=007898 GeodesicLength=0.5080359299680487 rxn_smarts="[C:1](/[C:2](=[N:3]\[O:4][H:11])[C@@:5]1([H:12])[C:6]([H:13])([H:14])[O:7]1)([H:8])([H:9])[H:10]>>[C:1]([C:2]([N-:3][O:4][H:11])=[C:5]([O+:7]=[C:6]([H:13])[H:14])[H:12])([H:8])([H:9])[H:10]"
C       -1.28868451      -1.13366049      -0.09740394
C       -0.50886194       0.13923439       0.02135830
N       -0.95966264       1.20181494       0.57164809
O       -2.29355704       1.06184436       0.92530195
C        0.81045848       0.25447486      -0.58628662
C        2.59168155       0.09073277      -0.06096361
O        1.63687695      -0.79571037      -0.39723568
H       -2.18603846      -0.97582317      -0.69736035
H       -0.69122877      -1.92137262      -0.55079360
H       -1.61580430      -1.46145535       0.89019979
H       -2.56135513       1.96014496       1.12728627
H        0.92231723       0.96669767      -1.39601374
H        3.52585238      -0.09614002      -0.57383576
H        2.61800621       0.70921810       0.82409889
14
Frame=14 idx=007898 GeodesicLength=0.5461653646410334 rxn_smarts="[C:1](/[C:2](=[N:3]\[O:4][H:11])[C@@:5]1([H:12])[C:6]([H:13])([H:14])[O:7]1)([H:8])([H:9])[H:10]>>[C:1]([C:2]([N-:3][O:4][H:11])=[C:5]([O+:7]=[C:6]([H:13])[H:14])[H:12])([H:8])([H:9])[H:10]"
C       -1.29474102      -1.13254443      -0.10687848
C       -0.50387768       0.13225729       0.02426451
N       -0.94469917       1.19296083       0.58483624
O       -2.28100552       1.06259707       0.93439240
C        0.81670029       0.24131234      -0.58632974
C        2.58162924       0.10720035      -0.05504141
O        1.64296595      -0.80472319      -0.37098554
H       -2.18819089      -0.96318538      -0.70958759
H       -0.70242382      -1.92238703      -0.56338846
H       -1.62865169      -1.46428810       0.87709703
H       -2.54177197       1.96206852       1.14021496
H        0.91331821       0.92710691      -1.42123042
H        3.51665902      -0.07913866      -0.56682935
H        2.61408903       0.74076348       0.81946586
14
Frame=15 idx=007898 GeodesicLength=0.584433630775206 rxn_smarts="[C:1](/[C:2](=[N:3]\[O:4][H:11])[C@@:5]1([H:12])[C:6]([H:13])([H:14])[O:7]1)([H:8])([H:9])[H:10]>>[C:1]([C:2]([N-:3][O:4][H:11])=[C:5]([O+:7]=[C:6]([H:13])[H:14])[H:12])([H:8])([H:9])[H:10]"
C       -1.30065360      -1.13119965      -0.11652088
C       -0.49913344       0.12551133       0.02656890
N       -0.93025107       1.18426030       0.59694220
O       -2.26868308       1.06318993       0.94305527
C        0.82296911       0.22817993      -0.58636435
C        2.57135895       0.12335148      -0.04918263
O        1.64893774      -0.81297746      -0.34401240
H       -2.19014258      -0.95063129      -0.72189913
H       -0.71330799      -1.92308560      -0.57597333
H       -1.64129822      -1.46659287       0.86385035
H       -2.52200074       1.96337926       1.15479945
H        0.90512872       0.88665411      -1.44520582
H        3.50726149      -0.06299080      -0.55965351
H        2.60981473       0.77295131       0.81359589
14
Frame=16 idx=007898 GeodesicLength=0.6227712362357711 rxn_smarts="[C:1](/[C:2](=[N:3]\[O:4][H:11])[C@@:5]1([H:12])[C:6]([H:13])([H:14])[O:7]1)([H:8])([H:9])[H:10]>>[C:1]([C:2]([N-:3][O:4][H:11])=[C:5]([O+:7]=[C:6]([H:13])[H:14])[H:12])([H:8])([H:9])[H:10]"
C       -1.30634050      -1.12966524      -0.12615741
C       -0.49457340       0.11902575       0.02849452
N       -0.91627959       1.17568549       0.60838660
O       -2.25666847       1.06364557       0.95133861
C        0.82924447       0.21525445      -0.58632869
C        2.56090527       0.13907218      -0.04353557
O        1.65473610      -0.82044100      -0.31687527
H       -2.19180174      -0.93823490      -0.73417066
H       -0.72379536      -1.92352434      -0.58838851
H       -1.65367425      -1.46844899       0.85065030
H       -2.50241719       1.96422558       1.17009032
H        0.89770126       0.84595338      -1.46766459
H        3.49767921      -0.04764520      -0.55256558
H        2.60528420       0.80509726       0.80672594
