9
Frame=0 idx=002876 GeodesicLength=0.0 rxn_smarts="[C:1]([C:2](=[O:3])[C:4]#[C:5][H:9])([H:6])([H:7])[H:8]>>[C:1]1([H:7])([H:8])[C:2](=[C:4]=[C:5]([H:6])[H:9])[O:3]1"
C       -1.08503005       0.24218820       0.12612615
C       -0.14211811      -0.92623737       0.30989537
O       -1.00765181      -1.68298684       0.69395228
C        1.26141800      -0.85080358       0.02857749
C        1.44171448       0.38612067      -0.37992729
H        0.45895769       1.03837116      -0.39406035
H       -1.47911078       0.70201833       1.02785826
H       -1.78128433       0.18248101      -0.70555445
H        2.33310487       0.90884839      -0.70686745
9
Frame=1 idx=002876 GeodesicLength=0.08815982855714856 rxn_smarts="[C:1]([C:2](=[O:3])[C:4]#[C:5][H:9])([H:6])([H:7])[H:8]>>[C:1]1([H:7])([H:8])[C:2](=[C:4]=[C:5]([H:6])[H:9])[O:3]1"
C       -1.09151344       0.23584911       0.13044691
C       -0.14005517      -0.92028506       0.32435133
O       -1.01557139      -1.68466395       0.67924969
C        1.25736491      -0.83892939       0.03218066
C        1.45464480       0.38233503      -0.40451229
H        0.45006984       1.04736847      -0.40380886
H       -1.48077739       0.70068904       1.03204666
H       -1.79301047       0.17330466      -0.69637676
H        2.35884831       0.90433208      -0.69357735
9
Frame=2 idx=002876 GeodesicLength=0.17624987819160837 rxn_smarts="[C:1]([C:2](=[O:3])[C:4]#[C:5][H:9])([H:6])([H:7])[H:8]>>[C:1]1([H:7])([H:8])[C:2](=[C:4]=[C:5]([H:6])[H:9])[O:3]1"
C       -1.09819752       0.22933802       0.13414094
C       -0.13844756      -0.91480906       0.33645856
O       -1.02240041      -1.68556407       0.66654605
C        1.25214823      -0.82846847       0.03018374
C        1.47000294       0.38129779      -0.41918508
H        0.43942036       1.05439683      -0.42049985
H       -1.47961785       0.70065508       1.03606779
H       -1.80757219       0.16337446      -0.68544415
H        2.38466400       0.89977942      -0.67826799
9
Frame=3 idx=002876 GeodesicLength=0.2643240028617987 rxn_smarts="[C:1]([C:2](=[O:3])[C:4]#[C:5][H:9])([H:6])([H:7])[H:8]>>[C:1]1([H:7])([H:8])[C:2](=[C:4]=[C:5]([H:6])[H:9])[O:3]1"
C       -1.10492861       0.22282650       0.13779104
C       -0.13703456      -0.90937426       0.34761892
O       -1.02852098      -1.68615993       0.65422799
C        1.24673589      -0.81769658       0.02796013
C        1.48600412       0.37998535      -0.43356057
H        0.42817321       1.06117513      -0.43812665
H       -1.47809641       0.70065748       1.04006542
H       -1.82253194       0.15359401      -0.67405593
H        2.41019928       0.89499229      -0.66192036
9
Frame=4 idx=002876 GeodesicLength=0.3524429143899397 rxn_smarts="[C:1]([C:2](=[O:3])[C:4]#[C:5][H:9])([H:6])([H:7])[H:8]>>[C:1]1([H:7])([H:8])[C:2](=[C:4]=[C:5]([H:6])[H:9])[O:3]1"
C       -1.11183974       0.21630464       0.14139755
C       -0.13581479      -0.90397334       0.35802891
O       -1.03408899      -1.68677862       0.64157580
C        1.24137959      -0.80621286       0.02667788
C        1.50289590       0.37898379      -0.44606823
H        0.41650356       1.06835443      -0.45501561
H       -1.47707399       0.70025995       1.04399760
H       -1.83747790       0.14413028      -0.66278631
H        2.43551635       0.88893173      -0.64780759
9
Frame=5 idx=002876 GeodesicLength=0.4405647631579098 rxn_smarts="[C:1]([C:2](=[O:3])[C:4]#[C:5][H:9])([H:6])([H:7])[H:8]>>[C:1]1([H:7])([H:8])[C:2](=[C:4]=[C:5]([H:6])[H:9])[O:3]1"
C       -1.11892301       0.20972933       0.14489001
C       -0.13482321      -0.89871057       0.36720708
O       -1.03906340      -1.68714210       0.62958376
C        1.23567968      -0.79458511       0.02423086
C        1.52077586       0.37849978      -0.45644403
H        0.40386279       1.07510175      -0.47374143
H       -1.47537519       0.70005758       1.04790420
H       -1.85333346       0.13458770      -0.65077843
H        2.46119994       0.88246162      -0.63285204
9
Frame=6 idx=002876 GeodesicLength=0.5286926272297208 rxn_smarts="[C:1]([C:2](=[O:3])[C:4]#[C:5][H:9])([H:6])([H:7])[H:8]>>[C:1]1([H:7])([H:8])[C:2](=[C:4]=[C:5]([H:6])[H:9])[O:3]1"
C       -1.12620675       0.20313363       0.14838159
C       -0.13399685      -0.89339765       0.37577869
O       -1.04355410      -1.68750440       0.61737804
C        1.23002089      -0.78209896       0.02265569
C        1.53936243       0.37798902      -0.46611435
H        0.39073279       1.08230392      -0.49168815
H       -1.47423319       0.69946434       1.05174928
H       -1.86915920       0.12522329      -0.63881544
H        2.48703398       0.87488680      -0.61932534
9
Frame=7 idx=002876 GeodesicLength=0.6168244492108886 rxn_smarts="[C:1]([C:2](=[O:3])[C:4]#[C:5][H:9])([H:6])([H:7])[H:8]>>[C:1]1([H:7])([H:8])[C:2](=[C:4]=[C:5]([H:6])[H:9])[O:3]1"
C       -1.13373499       0.19651028       0.15189082
C       -0.13333616      -0.88797880       0.38385266
O       -1.04756716      -1.68790570       0.60482614
C        1.22442857      -0.76860598       0.02214094
C        1.55866140       0.37744692      -0.47507678
H        0.37707377       1.09011157      -0.50864625
H       -1.47384065       0.69839166       1.05555898
H       -1.88490422       0.11600202      -0.62697686
H        2.51321944       0.86602804      -0.60756966
9
Frame=8 idx=002876 GeodesicLength=0.7049658126018831 rxn_smarts="[C:1]([C:2](=[O:3])[C:4]#[C:5][H:9])([H:6])([H:7])[H:8]>>[C:1]1([H:7])([H:8])[C:2](=[C:4]=[C:5]([H:6])[H:9])[O:3]1"
C       -1.14151334       0.18985089       0.15539970
C       -0.13281706      -0.88244180       0.39135380
O       -1.05106721      -1.68825927       0.59225935
C        1.21876657      -0.75426917       0.02191470
C        1.57871903       0.37686098      -0.48342765
H        0.36269856       1.09835318      -0.52529373
H       -1.47388788       0.69704163       1.05933292
H       -1.90084188       0.10675240      -0.61501455
H        2.53994321       0.85611116      -0.59652452
9
Frame=9 idx=002876 GeodesicLength=0.7931180847675584 rxn_smarts="[C:1]([C:2](=[O:3])[C:4]#[C:5][H:9])([H:6])([H:7])[H:8]>>[C:1]1([H:7])([H:8])[C:2](=[C:4]=[C:5]([H:6])[H:9])[O:3]1"
C       -1.14956184       0.18315400       0.15892153
C       -0.13241831      -0.87673707       0.39832860
O       -1.05403909      -1.68856847       0.57966778
C        1.21301868      -0.73902053       0.02190508
C        1.59956251       0.37619558      -0.49124842
H        0.34752043       1.10707717      -0.54167933
H       -1.47441182       0.69541416       1.06308766
H       -1.91699572       0.09741611      -0.60290361
H        2.56732515       0.84506906      -0.58607927
9
Frame=10 idx=002876 GeodesicLength=0.8812817693727704 rxn_smarts="[C:1]([C:2](=[O:3])[C:4]#[C:5][H:9])([H:6])([H:7])[H:8]>>[C:1]1([H:7])([H:8])[C:2](=[C:4]=[C:5]([H:6])[H:9])[O:3]1"
C       -1.15789607       0.17641753       0.16246366
C       -0.13211347      -0.87081024       0.40481584
O       -1.05645448      -1.68882392       0.56707111
C        1.20716084      -0.72279579       0.02199972
C        1.62122499       0.37538733      -0.49866515
H        0.33145286       1.11634117      -0.55783350
H       -1.47543984       0.69351900       1.06682892
H       -1.93338795       0.08792387      -0.59061865
H        2.59545312       0.83284106      -0.57606196
9
Frame=11 idx=002876 GeodesicLength=0.9694594156100882 rxn_smarts="[C:1]([C:2](=[O:3])[C:4]#[C:5][H:9])([H:6])([H:7])[H:8]>>[C:1]1([H:7])([H:8])[C:2](=[C:4]=[C:5]([H:6])[H:9])[O:3]1"
C       -1.16651634       0.16964059       0.16603274
C       -0.13186831      -0.86463578       0.41073723
O       -1.05828717      -1.68898306       0.55462816
C        1.20110495      -0.70564721       0.02170160
C        1.64378253       0.37444898      -0.50565307
H        0.31431208       1.12603219      -0.57422929
H       -1.47676669       0.69147101       1.07057503
H       -1.95018615       0.07818120      -0.57795983
H        2.62442509       0.81949209      -0.56583258
9
Frame=12 idx=002876 GeodesicLength=1.0576497876322357 rxn_smarts="[C:1]([C:2](=[O:3])[C:4]#[C:5][H:9])([H:6])([H:7])[H:8]>>[C:1]1([H:7])([H:8])[C:2](=[C:4]=[C:5]([H:6])[H:9])[O:3]1"
C       -1.17546313       0.16281953       0.16964037
C       -0.13166339      -0.85809947       0.41628050
O       -1.05947907      -1.68909068       0.54209351
C        1.19493569      -0.68725355       0.02157305
C        1.66724594       0.37319714      -0.51248486
H        0.29611705       1.13648853      -0.59020772
H       -1.47880038       0.68909117       1.07432076
H       -1.96717465       0.06816696      -0.56517101
H        2.65428195       0.80468036      -0.55604461
9
Frame=13 idx=002876 GeodesicLength=1.1458568208951256 rxn_smarts="[C:1]([C:2](=[O:3])[C:4]#[C:5][H:9])([H:6])([H:7])[H:8]>>[C:1]1([H:7])([H:8])[C:2](=[C:4]=[C:5]([H:6])[H:9])[O:3]1"
C       -1.18472067       0.15595653       0.17330098
C       -0.13145212      -0.85119718       0.42124072
O       -1.06000046      -1.68907317       0.52973878
C        1.18850280      -0.66775721       0.02074249
C        1.69174081       0.37171018      -0.51899319
H        0.27657477       1.14744695      -0.60663657
H       -1.48111625       0.68658228       1.07810706
H       -1.98465123       0.05777157      -0.55187308
H        2.68512235       0.78856006      -0.54562720
9
Frame=14 idx=002876 GeodesicLength=1.2340798275475215 rxn_smarts="[C:1]([C:2](=[O:3])[C:4]#[C:5][H:9])([H:6])([H:7])[H:8]>>[C:1]1([H:7])([H:8])[C:2](=[C:4]=[C:5]([H:6])[H:9])[O:3]1"
C       -1.19431272       0.14904896       0.17702286
C       -0.13119994      -0.84383388       0.42567633
O       -1.05978122      -1.68893385       0.51747777
C        1.18181839      -0.64693907       0.01934354
C        1.71733249       0.36985075      -0.52532696
H        0.25558586       1.15908574      -0.62329808
H       -1.48388079       0.68387800       1.08193663
H       -2.00254832       0.04693341      -0.53812495
H        2.71698625       0.77090993      -0.53470713
9
Frame=15 idx=002876 GeodesicLength=1.3223218418445115 rxn_smarts="[C:1]([C:2](=[O:3])[C:4]#[C:5][H:9])([H:6])([H:7])[H:8]>>[C:1]1([H:7])([H:8])[C:2](=[C:4]=[C:5]([H:6])[H:9])[O:3]1"
C       -1.20427252       0.14209093       0.18081430
C       -0.13087087      -0.83589578       0.42964133
O       -1.05872085      -1.68867165       0.50520173
C        1.17489475      -0.62451210       0.01754531
C        1.74410253       0.36748078      -0.53159201
H        0.23301547       1.17160516      -0.63998387
H       -1.48728698       0.68089146       1.08582189
H       -2.02080403       0.03557639      -0.52399216
H        2.74994249       0.75143480      -0.52345651
9
Frame=16 idx=002876 GeodesicLength=1.4105888966032918 rxn_smarts="[C:1]([C:2](=[O:3])[C:4]#[C:5][H:9])([H:6])([H:7])[H:8]>>[C:1]1([H:7])([H:8])[C:2](=[C:4]=[C:5]([H:6])[H:9])[O:3]1"
C       -1.21462960       0.13507455       0.18467595
C       -0.13042008      -0.82724897       0.43317853
O       -1.05669047      -1.68826143       0.49283994
C        1.16772930      -0.60016185       0.01545787
C        1.77214812       0.36437864      -0.53796477
H        0.20871256       1.18522472      -0.65648589
H       -1.49151432       0.67754369       1.08976623
H       -2.03936464       0.02359493      -0.50953260
H        2.78402913       0.72985571      -0.51193526
