12
Frame=0 idx=005868 GeodesicLength=0.0 rxn_smarts="[C:1]([C:2]([C:3](=[O:4])[H:11])([C:5](=[O:6])[H:12])[H:10])([H:7])([H:8])[H:9]>>[C:1]([C@@:2]1([H:10])[C@@:3]2([H:11])[O:4][O:6][C@@:5]12[H:12])([H:7])([H:8])[H:9]"
C       -1.38564068      -0.44791078      -0.33503226
C        0.07929873      -0.14885312      -0.54517181
C        0.73110549       1.05335523       0.09279492
O        0.57999375       1.36935067       1.38723324
C        1.10236694      -0.55133020       0.43031124
O        0.66036361      -0.35457621       1.67254044
H       -1.60932121      -1.45663952      -0.68838452
H       -1.64128962      -0.38858383       0.72119046
H       -2.01069782       0.25604849      -0.88627589
H        0.41866257      -0.20942914      -1.57660450
H        1.00486236       1.89104973      -0.54584351
H        2.07029588      -1.01248128       0.27324223
12
Frame=1 idx=005868 GeodesicLength=0.056466422943054935 rxn_smarts="[C:1]([C:2]([C:3](=[O:4])[H:11])([C:5](=[O:6])[H:12])[H:10])([H:7])([H:8])[H:9]>>[C:1]([C@@:2]1([H:10])[C@@:3]2([H:11])[O:4][O:6][C@@:5]12[H:12])([H:7])([H:8])[H:9]"
C       -1.38479782      -0.44379538      -0.33706011
C        0.08074237      -0.14761383      -0.54385197
C        0.72862406       1.05624480       0.09334007
O        0.60331008       1.36936585       1.38868609
C        1.10040046      -0.56082045       0.43325404
O        0.66039169      -0.37715810       1.67620060
H       -1.60672991      -1.45806846      -0.67498682
H       -1.64831945      -0.36848763       0.71629346
H       -2.00596649       0.25194254      -0.90301404
H        0.42620674      -0.21440325      -1.57299585
H        0.97242571       1.90277950      -0.54700991
H        2.07371255      -1.00998557       0.27114445
12
Frame=2 idx=005868 GeodesicLength=0.1129264775716379 rxn_smarts="[C:1]([C:2]([C:3](=[O:4])[H:11])([C:5](=[O:6])[H:12])[H:10])([H:7])([H:8])[H:9]>>[C:1]([C@@:2]1([H:10])[C@@:3]2([H:11])[O:4][O:6][C@@:5]12[H:12])([H:7])([H:8])[H:9]"
C       -1.38384239      -0.43967843      -0.33910015
C        0.08230343      -0.14637498      -0.54255343
C        0.72622671       1.05926845       0.09366355
O        0.62714715       1.36949337       1.38946032
C        1.09839167      -0.57034555       0.43623185
O        0.66018146      -0.39982518       1.67970689
H       -1.60421239      -1.45919916      -0.66156896
H       -1.65501286      -0.34845011       0.71114043
H       -2.00105081       0.24769713      -0.91949243
H        0.43380003      -0.21931587      -1.56935890
H        0.93917061       1.91437141      -0.54754693
H        2.07689740      -1.00764108       0.26941775
12
Frame=3 idx=005868 GeodesicLength=0.1693333932507717 rxn_smarts="[C:1]([C:2]([C:3](=[O:4])[H:11])([C:5](=[O:6])[H:12])[H:10])([H:7])([H:8])[H:9]>>[C:1]([C@@:2]1([H:10])[C@@:3]2([H:11])[O:4][O:6][C@@:5]12[H:12])([H:7])([H:8])[H:9]"
C       -1.38277851      -0.43557593      -0.34114604
C        0.08396979      -0.14512675      -0.54127195
C        0.72388755       1.06244650       0.09374854
O        0.65146872       1.36976698       1.38950824
C        1.09632289      -0.57987278       0.43925427
O        0.65972247      -0.42252871       1.68306855
H       -1.60175786      -1.46002001      -0.64821944
H       -1.66136203      -0.32859183       0.70575923
H       -1.99598171       0.24334183      -0.93562963
H        0.44143133      -0.22415962      -1.56569187
H        0.90524603       1.92575183      -0.54744449
H        2.07983133      -1.00543151       0.26806459
12
Frame=4 idx=005868 GeodesicLength=0.22573858182359718 rxn_smarts="[C:1]([C:2]([C:3](=[O:4])[H:11])([C:5](=[O:6])[H:12])[H:10])([H:7])([H:8])[H:9]>>[C:1]([C@@:2]1([H:10])[C@@:3]2([H:11])[O:4][O:6][C@@:5]12[H:12])([H:7])([H:8])[H:9]"
C       -1.38161418      -0.43148746      -0.34320426
C        0.08573997      -0.14386479      -0.54000855
C        0.72160323       1.06578961       0.09359250
O        0.67631225       1.37019331       1.38880505
C        1.09420267      -0.58940126       0.44231940
O        0.65902650      -0.44529071       1.68628947
H       -1.59937192      -1.46056238      -0.63489197
H       -1.66739385      -0.30884722       0.70014098
H       -1.99076305       0.23885031      -0.95149536
H        0.44910304      -0.22893193      -1.56199790
H        0.87062062       1.93692110      -0.54662000
H        2.08253474      -1.00336859       0.26707065
12
Frame=5 idx=005868 GeodesicLength=0.28215180609709767 rxn_smarts="[C:1]([C:2]([C:3](=[O:4])[H:11])([C:5](=[O:6])[H:12])[H:10])([H:7])([H:8])[H:9]>>[C:1]([C@@:2]1([H:10])[C@@:3]2([H:11])[O:4][O:6][C@@:5]12[H:12])([H:7])([H:8])[H:9]"
C       -1.38033917      -0.42740114      -0.34527859
C        0.08761699      -0.14258011      -0.53876030
C        0.71937734       1.06929898       0.09319307
O        0.70173442       1.37075237       1.38731599
C        1.09202445      -0.59893381       0.44542265
O        0.65808045      -0.46813387       1.68935654
H       -1.59702225      -1.46084007      -0.62151228
H       -1.67312100      -0.28913276       0.69426764
H       -1.98537542       0.23418536      -0.96716418
H        0.45682273      -0.23362613      -1.55826844
H        0.83520453       1.94788390      -0.54499222
H        2.08499693      -1.00147272       0.26642010
12
Frame=6 idx=005868 GeodesicLength=0.33854869524480863 rxn_smarts="[C:1]([C:2]([C:3](=[O:4])[H:11])([C:5](=[O:6])[H:12])[H:10])([H:7])([H:8])[H:9]>>[C:1]([C@@:2]1([H:10])[C@@:3]2([H:11])[O:4][O:6][C@@:5]12[H:12])([H:7])([H:8])[H:9]"
C       -1.37897130      -0.42334055      -0.34736538
C        0.08958364      -0.14126692      -0.53752295
C        0.71717118       1.07300074       0.09253770
O        0.72767547       1.37150015       1.38499310
C        1.08978105      -0.60843133       0.44857860
O        0.65689198      -0.49100994       1.69229146
H       -1.59472692      -1.46084813      -0.60819816
H       -1.67854631      -0.26959219       0.68817179
H       -1.97986642       0.22938882      -0.98254204
H        0.46457564      -0.23824264      -1.55450504
H        0.79921034       1.95855349      -0.54255346
H        2.08722165      -0.99971150       0.26611439
12
Frame=7 idx=005868 GeodesicLength=0.39494526038473854 rxn_smarts="[C:1]([C:2]([C:3](=[O:4])[H:11])([C:5](=[O:6])[H:12])[H:10])([H:7])([H:8])[H:9]>>[C:1]([C@@:2]1([H:10])[C@@:3]2([H:11])[O:4][O:6][C@@:5]12[H:12])([H:7])([H:8])[H:9]"
C       -1.37750742      -0.41929890      -0.34947118
C        0.09164125      -0.13991831      -0.53629640
C        0.71498685       1.07689785       0.09162722
O        0.75419298       1.37242473       1.38180244
C        1.08747081      -0.61789440       0.45178303
O        0.65545463      -0.51394167       1.69508681
H       -1.59246673      -1.46060771      -0.59487939
H       -1.68369108      -0.25013845       0.68183449
H       -1.97422263       0.22441828      -0.99770801
H        0.47236681      -0.24277699      -1.55070596
H        0.76256701       1.96893596      -0.53921236
H        2.08920751      -0.99810039       0.26613930
12
Frame=8 idx=005868 GeodesicLength=0.4513697147787113 rxn_smarts="[C:1]([C:2]([C:3](=[O:4])[H:11])([C:5](=[O:6])[H:12])[H:10])([H:7])([H:8])[H:9]>>[C:1]([C@@:2]1([H:10])[C@@:3]2([H:11])[O:4][O:6][C@@:5]12[H:12])([H:7])([H:8])[H:9]"
C       -1.37594589      -0.41527114      -0.35160063
C        0.09379213      -0.13852393      -0.53508038
C        0.71282666       1.08099854       0.09045920
O        0.78134196       1.37351694       1.37769869
C        1.08508941      -0.62732103       0.45503317
O        0.65375499      -0.53695317       1.69773406
H       -1.59022478      -1.46013728      -0.58148278
H       -1.68857479      -0.23069147       0.67523325
H       -1.96843012       0.21922392      -1.01273524
H        0.48020544      -0.24721907      -1.54686895
H        0.72521404       1.97903556      -0.53487046
H        2.09095097      -0.99665788       0.26648006
12
Frame=9 idx=005868 GeodesicLength=0.507835217526553 rxn_smarts="[C:1]([C:2]([C:3](=[O:4])[H:11])([C:5](=[O:6])[H:12])[H:10])([H:7])([H:8])[H:9]>>[C:1]([C@@:2]1([H:10])[C@@:3]2([H:11])[O:4][O:6][C@@:5]12[H:12])([H:7])([H:8])[H:9]"
C       -1.37429398      -0.41125409      -0.35376210
C        0.09603616      -0.13707789      -0.53387775
C        0.71068619       1.08530862       0.08903099
O        0.80916684       1.37478260       1.37262072
C        1.08264342      -0.63670042       0.45832932
O        0.65179136      -0.56004927       1.70023377
H       -1.58800481      -1.45943869      -0.56796659
H       -1.69322120      -0.21119715       0.66834593
H       -1.96248925       0.21376858      -1.02767931
H        0.48809835      -0.25156892      -1.54299587
H        0.68711552       1.98881269      -0.52940720
H        2.09247141      -0.99538605       0.26712808
12
Frame=10 idx=005868 GeodesicLength=0.564349593236507 rxn_smarts="[C:1]([C:2]([C:3](=[O:4])[H:11])([C:5](=[O:6])[H:12])[H:10])([H:7])([H:8])[H:9]>>[C:1]([C@@:2]1([H:10])[C@@:3]2([H:11])[O:4][O:6][C@@:5]12[H:12])([H:7])([H:8])[H:9]"
C       -1.37253638      -0.40724522      -0.35595990
C        0.09837135      -0.13556654      -0.53267713
C        0.70854868       1.08984684       0.08734325
O        0.83770907       1.37621302       1.36654009
C        1.08011185      -0.64602119       0.46167580
O        0.64954319      -0.58325028       1.70256343
H       -1.58577476      -1.45852129      -0.55429098
H       -1.69762028      -0.19161496       0.66114965
H       -1.95637291       0.20802264      -1.04257051
H        0.49604807      -0.25581918      -1.53906611
H        0.64824350       1.99824585      -0.52277673
H        2.09372862      -0.99428967       0.26806913
12
Frame=11 idx=005868 GeodesicLength=0.6209161219880242 rxn_smarts="[C:1]([C:2]([C:3](=[O:4])[H:11])([C:5](=[O:6])[H:12])[H:10])([H:7])([H:8])[H:9]>>[C:1]([C@@:2]1([H:10])[C@@:3]2([H:11])[O:4][O:6][C@@:5]12[H:12])([H:7])([H:8])[H:9]"
C       -1.37070013      -0.40326097      -0.35819487
C        0.10078669      -0.13398472      -0.53148759
C        0.70639772       1.09462663       0.08537498
O        0.86693364       1.37785110       1.35935705
C        1.07750378      -0.65525486       0.46508740
O        0.64701657      -0.60652128       1.70476146
H       -1.58355526      -1.45738371      -0.54051548
H       -1.70180712      -0.17202613       0.65366029
H       -1.95013356       0.20199251      -1.05737498
H        0.50404842      -0.25997383      -1.53510168
H        0.60875266       2.00730050      -0.51487880
H        2.09475658      -0.99336525       0.26931222
12
Frame=12 idx=005868 GeodesicLength=0.6775323010761783 rxn_smarts="[C:1]([C:2]([C:3](=[O:4])[H:11])([C:5](=[O:6])[H:12])[H:10])([H:7])([H:8])[H:9]>>[C:1]([C@@:2]1([H:10])[C@@:3]2([H:11])[O:4][O:6][C@@:5]12[H:12])([H:7])([H:8])[H:9]"
C       -1.36879437      -0.39931849      -0.36046308
C        0.10326858      -0.13232259      -0.53029694
C        0.70420152       1.09966945       0.08311789
O        0.89679507       1.37973953       1.35099732
C        1.07480853      -0.66436900       0.46858298
O        0.64420704      -0.62984970       1.70683359
H       -1.58134682      -1.45602981      -0.52672252
H       -1.70579056      -0.15254180       0.64589831
H       -1.94379664       0.19571617      -1.07202593
H        0.51208773      -0.26402980      -1.53108461
H        0.56881450       2.01592687      -0.50570164
H        2.09554543      -0.99259083       0.27086462
12
Frame=13 idx=005868 GeodesicLength=0.7341431175544478 rxn_smarts="[C:1]([C:2]([C:3](=[O:4])[H:11])([C:5](=[O:6])[H:12])[H:10])([H:7])([H:8])[H:9]>>[C:1]([C@@:2]1([H:10])[C@@:3]2([H:11])[O:4][O:6][C@@:5]12[H:12])([H:7])([H:8])[H:9]"
C       -1.36680996      -0.39543452      -0.36276023
C        0.10579456      -0.13057424      -0.52909210
C        0.70191438       1.10498913       0.08058050
O        0.92725307       1.38191543       1.34138272
C        1.07199783      -0.67332618       0.47216169
O        0.64110233      -0.65321757       1.70875528
H       -1.57913049      -1.45447092      -0.51295349
H       -1.70956150      -0.13321546       0.63786425
H       -1.93735112       0.18918640      -1.08648390
H        0.52013112      -0.26799485      -1.52698832
H        0.52860797       2.02406889      -0.49517606
H        2.09605181      -0.99192612       0.27270965
12
Frame=14 idx=005868 GeodesicLength=0.7907570552014676 rxn_smarts="[C:1]([C:2]([C:3](=[O:4])[H:11])([C:5](=[O:6])[H:12])[H:10])([H:7])([H:8])[H:9]>>[C:1]([C@@:2]1([H:10])[C@@:3]2([H:11])[O:4][O:6][C@@:5]12[H:12])([H:7])([H:8])[H:9]"
C       -1.36474250      -0.39159065      -0.36509323
C        0.10838298      -0.12873725      -0.52787045
C        0.69955098       1.11058157       0.07774468
O        0.95833165       1.38436934       1.33044170
C        1.06908080      -0.68211978       0.47584627
O        0.63768557      -0.67663229       1.71054930
H       -1.57688453      -1.45268528      -0.49921354
H       -1.71313469      -0.11402302       0.62956034
H       -1.93079414       0.18242559      -1.10076295
H        0.52822046      -0.27188748      -1.52281375
H        0.48801101       2.03172060      -0.48324501
H        2.09629240      -0.99142135       0.27485664
12
Frame=15 idx=005868 GeodesicLength=0.8474570287682675 rxn_smarts="[C:1]([C:2]([C:3](=[O:4])[H:11])([C:5](=[O:6])[H:12])[H:10])([H:7])([H:8])[H:9]>>[C:1]([C@@:2]1([H:10])[C@@:3]2([H:11])[O:4][O:6][C@@:5]12[H:12])([H:7])([H:8])[H:9]"
C       -1.36265235      -0.38781773      -0.36747109
C        0.11101384      -0.12679414      -0.52663073
C        0.69709875       1.11648411       0.07460504
O        0.99003000       1.38714467       1.31810001
C        1.06608257      -0.69071990       0.47967623
O        0.63397626      -0.70013292       1.71226110
H       -1.57467444      -1.45071719      -0.48555280
H       -1.71658683      -0.09506660       0.62100053
H       -1.92421025       0.17544512      -1.11487296
H        0.53634083      -0.27567689      -1.51856950
H        0.44725402       2.03887634      -0.46988515
H        2.09632761      -0.99102486       0.27733932
12
Frame=16 idx=005868 GeodesicLength=0.904068601118745 rxn_smarts="[C:1]([C:2]([C:3](=[O:4])[H:11])([C:5](=[O:6])[H:12])[H:10])([H:7])([H:8])[H:9]>>[C:1]([C@@:2]1([H:10])[C@@:3]2([H:11])[O:4][O:6][C@@:5]12[H:12])([H:7])([H:8])[H:9]"
C       -1.36046571      -0.38410954      -0.36987155
C        0.11367025      -0.12475468      -0.52534744
C        0.69447698       1.12267523       0.07118018
O        1.02221455       1.39026020       1.30425147
C        1.06294014      -0.69908339       0.48361987
O        0.62992766      -0.72368141       1.71380306
H       -1.57239952      -1.44854105      -0.47199921
H       -1.71984444      -0.07634513       0.61219011
H       -1.91749611       0.16824738      -1.12872678
H        0.54445802      -0.27941703      -1.51419689
H        0.40647234       2.04545642      -0.45500569
H        2.09604584      -0.99070703       0.28010288
