16
Frame=0 idx=005402 GeodesicLength=0.0 rxn_smarts="[C:1]([C@@:2]1([H:10])[O:3][C:4]1([C:5]([H:11])([H:12])[H:13])[C:6]([H:14])([H:15])[H:16])([H:7])([H:8])[H:9]>>[C:1]([C-:2]=[O+:3][C:4]([C:5]([H:11])([H:12])[H:13])([C:6]([H:14])([H:15])[H:16])[H:10])([H:7])([H:8])[H:9]"
C       -2.24601189       0.08150896       0.05393979
C       -1.16302100      -0.50350736      -0.81598460
O       -0.24938342       0.52036406      -1.20435420
C        0.52210050      -0.06887049      -0.19195994
C        1.73658204      -0.75489038      -0.77171843
C        0.74482867       0.78992891       1.02488237
H       -3.03323365       0.32115769      -0.66924824
H       -2.00706487       1.00345904       0.59107097
H       -2.65872094      -0.67059083       0.72729620
H       -0.19335161      -1.02460892       0.05750622
H        1.42287538      -1.45091662      -1.54939433
H        2.38048178       0.00149890      -1.22460428
H        2.30132603      -1.29061795      -0.00769886
H        1.26625112       0.22732950       1.80066537
H       -0.18733855       1.17344150       1.43397178
H        1.36368034       1.64531403       0.74563013
16
Frame=1 idx=005402 GeodesicLength=0.06177330412694036 rxn_smarts="[C:1]([C@@:2]1([H:10])[O:3][C:4]1([C:5]([H:11])([H:12])[H:13])[C:6]([H:14])([H:15])[H:16])([H:7])([H:8])[H:9]>>[C:1]([C-:2]=[O+:3][C:4]([C:5]([H:11])([H:12])[H:13])([C:6]([H:14])([H:15])[H:16])[H:10])([H:7])([H:8])[H:9]"
C       -2.26031011       0.08509445       0.04700248
C       -1.16282078      -0.50076221      -0.80234401
O       -0.25276025       0.51857394      -1.19218281
C        0.52374102      -0.07614130      -0.18349256
C        1.73938803      -0.75130254      -0.77372427
C        0.75562776       0.78843776       1.02802223
H       -3.04463954       0.31087855      -0.68351264
H       -2.02879718       1.01261946       0.57761443
H       -2.67299570      -0.66177393       0.72634699
H       -0.19406452      -1.04773202       0.06166394
H        1.42571266      -1.44568605      -1.55294283
H        2.37911769       0.00942462      -1.22528439
H        2.31022685      -1.28814120      -0.01494530
H        1.28023727       0.22817508       1.80341633
H       -0.17292423       1.17679707       1.44093754
H        1.37526102       1.64153831       0.74342487
16
Frame=2 idx=005402 GeodesicLength=0.12354711563713972 rxn_smarts="[C:1]([C@@:2]1([H:10])[O:3][C:4]1([C:5]([H:11])([H:12])[H:13])[C:6]([H:14])([H:15])[H:16])([H:7])([H:8])[H:9]>>[C:1]([C-:2]=[O+:3][C:4]([C:5]([H:11])([H:12])[H:13])([C:6]([H:14])([H:15])[H:16])[H:10])([H:7])([H:8])[H:9]"
C       -2.27475683       0.08867577       0.03980372
C       -1.16257459      -0.49793433      -0.78801555
O       -0.25618951       0.51692050      -1.17956622
C        0.52550403      -0.08333133      -0.17478574
C        1.74203543      -0.74761687      -0.77575970
C        0.76673138       0.78688243       1.03136470
H       -3.05599959       0.29952866      -0.69822472
H       -2.05119721       1.02226495       0.56301545
H       -2.68728505      -0.65243311       0.72570591
H       -0.19473578      -1.07108797       0.06551058
H        1.42822971      -1.44022371      -1.55656978
H        2.37758935       0.01740537      -1.22599064
H        2.31901341      -1.28569554      -0.02243364
H        1.29466416       0.22886638       1.80619358
H       -0.15805605       1.18004216       1.44835245
H        1.38702713       1.63773666       0.74139961
16
Frame=3 idx=005402 GeodesicLength=0.18532676892359506 rxn_smarts="[C:1]([C@@:2]1([H:10])[O:3][C:4]1([C:5]([H:11])([H:12])[H:13])[C:6]([H:14])([H:15])[H:16])([H:7])([H:8])[H:9]>>[C:1]([C-:2]=[O+:3][C:4]([C:5]([H:11])([H:12])[H:13])([C:6]([H:14])([H:15])[H:16])[H:10])([H:7])([H:8])[H:9]"
C       -2.28935758       0.09224060       0.03233144
C       -1.16228697      -0.49500707      -0.77294851
O       -0.25967690       0.51541106      -1.16647225
C        0.52739539      -0.09043751      -0.16582454
C        1.74451517      -0.74382825      -0.77782646
C        0.77816008       0.78526283       1.03492159
H       -3.06727459       0.28704735      -0.71338416
H       -2.07429090       1.03237879       0.54719990
H       -2.70163273      -0.64252259       0.72536932
H       -0.19537017      -1.09467770       0.06901981
H        1.43040219      -1.43451740      -1.56027592
H        2.37588667       0.02544645      -1.22672713
H        2.32768183      -1.28328054      -0.03017931
H        1.30956098       0.22939847       1.80899847
H       -0.14270561       1.18317433       1.45623833
H        1.39899314       1.63391118       0.73955941
16
Frame=4 idx=005402 GeodesicLength=0.2471218084771931 rxn_smarts="[C:1]([C@@:2]1([H:10])[O:3][C:4]1([C:5]([H:11])([H:12])[H:13])[C:6]([H:14])([H:15])[H:16])([H:7])([H:8])[H:9]>>[C:1]([C-:2]=[O+:3][C:4]([C:5]([H:11])([H:12])[H:13])([C:6]([H:14])([H:15])[H:16])[H:10])([H:7])([H:8])[H:9]"
C       -2.30411767       0.09577642       0.02457298
C       -1.16196289      -0.49196176      -0.75708615
O       -0.26322872       0.51405370      -1.15286579
C        0.52942183      -0.09745549      -0.15659290
C        1.74681661      -0.73993123      -0.77992669
C        0.78993601       0.78357944       1.03870550
H       -3.07842103       0.27337038      -0.72898270
H       -2.09810167       1.04293814       0.53008349
H       -2.71608602      -0.63199361       0.72532528
H       -0.19597486      -1.11850171       0.07216452
H        1.43220229      -1.42855462      -1.56406102
H        2.37399743       0.03355379      -1.22749787
H        2.33622721      -1.28089531      -0.03819927
H        1.32495872       0.22976620       1.81183152
H       -0.12684192       1.18619101       1.46461890
H        1.41117467       1.63006465       0.73791022
16
Frame=5 idx=005402 GeodesicLength=0.30894258797754925 rxn_smarts="[C:1]([C@@:2]1([H:10])[O:3][C:4]1([C:5]([H:11])([H:12])[H:13])[C:6]([H:14])([H:15])[H:16])([H:7])([H:8])[H:9]>>[C:1]([C-:2]=[O+:3][C:4]([C:5]([H:11])([H:12])[H:13])([C:6]([H:14])([H:15])[H:16])[H:10])([H:7])([H:8])[H:9]"
C       -2.31904374       0.09926726       0.01651048
C       -1.16160722      -0.48877859      -0.74036746
O       -0.26685221       0.51285644      -1.13871011
C        0.53158984      -0.10437890      -0.14707423
C        1.74892820      -0.73592035      -0.78206325
C        0.80208282       0.78183339       1.04272958
H       -3.08938702       0.25843893      -0.74501969
H       -2.12265512       1.05391319       0.51158672
H       -2.73069565      -0.62080160       0.72556929
H       -0.19656104      -1.14255704       0.07491563
H        1.43360093      -1.42232148      -1.56792603
H        2.37191049       0.04173180      -1.22830871
H        2.34464301      -1.27853967      -0.04650995
H        1.34088956       0.22996493       1.81469412
H       -0.11043281       1.18909209       1.47351648
H        1.42358994       1.62619960       0.73645714
16
Frame=6 idx=005402 GeodesicLength=0.3707922433543446 rxn_smarts="[C:1]([C@@:2]1([H:10])[O:3][C:4]1([C:5]([H:11])([H:12])[H:13])[C:6]([H:14])([H:15])[H:16])([H:7])([H:8])[H:9]>>[C:1]([C-:2]=[O+:3][C:4]([C:5]([H:11])([H:12])[H:13])([C:6]([H:14])([H:15])[H:16])[H:10])([H:7])([H:8])[H:9]"
C       -2.33414177       0.10269285       0.00812692
C       -1.16122742      -0.48543147      -0.72271603
O       -0.27055522       0.51183130      -1.12395683
C        0.53390709      -0.11120397      -0.13724502
C        1.75083341      -0.73178924      -0.78423738
C        0.81463227       0.78002726       1.04700854
H       -3.10011178       0.24217700      -0.76148011
H       -2.14797313       1.06526204       0.49160994
H       -2.74553512      -0.60889276       0.72606152
H       -0.19714002      -1.16683438       0.07724641
H        1.43455883      -1.41580294      -1.57186796
H        2.36960566       0.04998745      -1.22916520
H        2.35292005      -1.27621254      -0.05513517
H        1.35739829       0.22999180       1.81758498
H       -0.09343316       1.19187777       1.48296193
H        1.43626203       1.62231983       0.73520345
16
Frame=7 idx=005402 GeodesicLength=0.4326741581764588 rxn_smarts="[C:1]([C@@:2]1([H:10])[O:3][C:4]1([C:5]([H:11])([H:12])[H:13])[C:6]([H:14])([H:15])[H:16])([H:7])([H:8])[H:9]>>[C:1]([C-:2]=[O+:3][C:4]([C:5]([H:11])([H:12])[H:13])([C:6]([H:14])([H:15])[H:16])[H:10])([H:7])([H:8])[H:9]"
C       -2.34941693       0.10603192      -0.00059527
C       -1.16083065      -0.48189440      -0.70404991
O       -0.27434704       0.51098897      -1.10855593
C        0.53638164      -0.11792424      -0.12708233
C        1.75251466      -0.72753051      -0.78645121
C        0.82761706       0.77816371       1.05155831
H       -3.11052722       0.22451951      -0.77835417
H       -2.17407905       1.07693324       0.47005038
H       -2.76067790      -0.59621980       0.72676893
H       -0.19772784      -1.19132025       0.07912860
H        1.43503350      -1.40898298      -1.57588502
H        2.36706449       0.05832574      -1.23007695
H        2.36104890      -1.27391284      -0.06409763
H        1.37452914       0.22984395       1.82050388
H       -0.07579857       1.19454899       1.49298509
H        1.44921580       1.61842901       0.73415323
16
Frame=8 idx=005402 GeodesicLength=0.49458680788284004 rxn_smarts="[C:1]([C@@:2]1([H:10])[O:3][C:4]1([C:5]([H:11])([H:12])[H:13])[C:6]([H:14])([H:15])[H:16])([H:7])([H:8])[H:9]>>[C:1]([C-:2]=[O+:3][C:4]([C:5]([H:11])([H:12])[H:13])([C:6]([H:14])([H:15])[H:16])[H:10])([H:7])([H:8])[H:9]"
C       -2.36487709       0.10925993      -0.00968360
C       -1.16042691      -0.47813665      -0.68427509
O       -0.27823797       0.51034291      -1.09244869
C        0.53902103      -0.12453340      -0.11655725
C        1.75395039      -0.72313668      -0.78870635
C        0.84107572       0.77624603       1.05639571
H       -3.12055889       0.20538522      -0.79562294
H       -2.20098678       1.08886790       0.44679696
H       -2.77620846      -0.58272997       0.72763884
H       -0.19834628      -1.21599378       0.08053249
H        1.43497532      -1.40184215      -1.57997307
H        2.36426331       0.06675329      -1.23105194
H        2.36901506      -1.27163923      -0.07342419
H        1.39233571       0.22951880       1.82344895
H       -0.05747523       1.19710693       1.50362103
H        1.46248108       1.61453086       0.73330913
16
Frame=9 idx=005402 GeodesicLength=0.5565417570527675 rxn_smarts="[C:1]([C@@:2]1([H:10])[O:3][C:4]1([C:5]([H:11])([H:12])[H:13])[C:6]([H:14])([H:15])[H:16])([H:7])([H:8])[H:9]>>[C:1]([C-:2]=[O+:3][C:4]([C:5]([H:11])([H:12])[H:13])([C:6]([H:14])([H:15])[H:16])[H:10])([H:7])([H:8])[H:9]"
C       -2.38053382       0.11234737      -0.01919232
C       -1.16002190      -0.47408507      -0.66319062
O       -0.28224200       0.50993663      -1.07549607
C        0.54183129      -0.13102174      -0.10559990
C        1.75508049      -0.71859029      -0.79100578
C        0.85510220       0.77427489       1.06155915
H       -3.13009593       0.18458662      -0.81327673
H       -2.22876821       1.10092236       0.42155741
H       -2.79225130      -0.56831874       0.72853706
H       -0.19903360      -1.24079284       0.08146245
H        1.43426481      -1.39432565      -1.58412761
H        2.36112917       0.07528740      -1.23210602
H        2.37677325      -1.26940315      -0.08317435
H        1.41095664       0.22900375       1.82640158
H       -0.03831372       1.19954979       1.51496822
H        1.47612262       1.61062868       0.73268353
16
Frame=10 idx=005402 GeodesicLength=0.6185398762951098 rxn_smarts="[C:1]([C@@:2]1([H:10])[O:3][C:4]1([C:5]([H:11])([H:12])[H:13])[C:6]([H:14])([H:15])[H:16])([H:7])([H:8])[H:9]>>[C:1]([C-:2]=[O+:3][C:4]([C:5]([H:11])([H:12])[H:13])([C:6]([H:14])([H:15])[H:16])[H:10])([H:7])([H:8])[H:9]"
C       -2.39637822       0.11525150      -0.02912567
C       -1.15962765      -0.46971610      -0.64073488
O       -0.28637224       0.50977430      -1.05767927
C        0.54482555      -0.13737457      -0.09420463
C        1.75589604      -0.71388875      -0.79335398
C        0.86970747       0.77226110       1.06705483
H       -3.13902689       0.16210465      -0.83129953
H       -2.25738784       1.11306592       0.39434060
H       -2.80891154      -0.55298281       0.72943094
H       -0.19982001      -1.26570981       0.08186725
H        1.43287150      -1.38643717      -1.58834486
H        2.35766056       0.08392448      -1.23325060
H        2.38431833      -1.26719833      -0.09336384
H        1.43039595       0.22830212       1.82937154
H       -0.01831145       1.20189639       1.52702000
H        1.49016043       1.60672709       0.73227210
16
Frame=11 idx=005402 GeodesicLength=0.6805878124410238 rxn_smarts="[C:1]([C@@:2]1([H:10])[O:3][C:4]1([C:5]([H:11])([H:12])[H:13])[C:6]([H:14])([H:15])[H:16])([H:7])([H:8])[H:9]>>[C:1]([C-:2]=[O+:3][C:4]([C:5]([H:11])([H:12])[H:13])([C:6]([H:14])([H:15])[H:16])[H:10])([H:7])([H:8])[H:9]"
C       -2.41241224       0.11792792      -0.03952132
C       -1.15925070      -0.46497461      -0.61676343
O       -0.29064152       0.50988232      -1.03890937
C        0.54801262      -0.14357579      -0.08232831
C        1.75635633      -0.70902299      -0.79575408
C        0.88495140       0.77021421       1.07290426
H       -3.14723108       0.13785240      -0.84970805
H       -2.28686688       1.12518931       0.36502280
H       -2.82630509      -0.53668659       0.73023891
H       -0.20075610      -1.29069741       0.08171790
H        1.43070949      -1.37815011      -1.59261724
H        2.35381782       0.09266703      -1.23450109
H        2.39161828      -1.26503089      -0.10403021
H        1.45073476       0.22741429       1.83234909
H        0.00261938       1.20415857       1.53982433
H        1.50464355       1.60283236       0.73207578
16
Frame=12 idx=005402 GeodesicLength=0.7427020711662208 rxn_smarts="[C:1]([C@@:2]1([H:10])[O:3][C:4]1([C:5]([H:11])([H:12])[H:13])[C:6]([H:14])([H:15])[H:16])([H:7])([H:8])[H:9]>>[C:1]([C-:2]=[O+:3][C:4]([C:5]([H:11])([H:12])[H:13])([C:6]([H:14])([H:15])[H:16])[H:10])([H:7])([H:8])[H:9]"
C       -2.42863255       0.12032033      -0.05042480
C       -1.15889888      -0.45978498      -0.59109976
O       -0.29506515       0.51030321      -1.01907723
C        0.55140384      -0.14960415      -0.06991899
C        1.75640804      -0.70398183      -0.79821029
C        0.90090952       0.76814484       1.07913604
H       -3.15455727       0.11170126      -0.86849989
H       -2.31722037       1.13716295       0.33344234
H       -2.84458394      -0.51938637       0.73082651
H       -0.20190226      -1.31569385       0.08099868
H        1.42766499      -1.36943084      -1.59693539
H        2.34954494       0.10152007      -1.23587690
H        2.39862791      -1.26290958      -0.11522605
H        1.47207352       0.22633428       1.83532443
H        0.02459138       1.20635586       1.55344421
H        1.51963628       1.59894881       0.73209709
16
Frame=13 idx=005402 GeodesicLength=0.8048801600355763 rxn_smarts="[C:1]([C@@:2]1([H:10])[O:3][C:4]1([C:5]([H:11])([H:12])[H:13])[C:6]([H:14])([H:15])[H:16])([H:7])([H:8])[H:9]>>[C:1]([C-:2]=[O+:3][C:4]([C:5]([H:11])([H:12])[H:13])([C:6]([H:14])([H:15])[H:16])[H:10])([H:7])([H:8])[H:9]"
C       -2.44503718       0.12235900      -0.06189239
C       -1.15858445      -0.45406406      -0.56354130
O       -0.29966372       0.51107749      -0.99805903
C        0.55500619      -0.15543421      -0.05691511
C        1.75598703      -0.69875657      -0.80072522
C        0.91766709       0.76607249       1.08577466
H       -3.16081361       0.08357318      -0.88770079
H       -2.34846168       1.14881309       0.29947809
H       -2.86391156      -0.50108635       0.73102657
H       -0.20334087      -1.34061175       0.07969523
H        1.42360718      -1.36025005      -1.60128250
H        2.34478141       0.11047900      -1.23740358
H        2.40529327      -1.26084452      -0.12700309
H        1.49452702       0.22507125       1.83828292
H        0.04773071       1.20851709       1.56794047
H        1.53521318       1.59508492       0.73232508
16
Frame=14 idx=005402 GeodesicLength=0.867147779675884 rxn_smarts="[C:1]([C@@:2]1([H:10])[O:3][C:4]1([C:5]([H:11])([H:12])[H:13])[C:6]([H:14])([H:15])[H:16])([H:7])([H:8])[H:9]>>[C:1]([C-:2]=[O+:3][C:4]([C:5]([H:11])([H:12])[H:13])([C:6]([H:14])([H:15])[H:16])[H:10])([H:7])([H:8])[H:9]"
C       -2.46161121       0.12396796      -0.07398620
C       -1.15832034      -0.44768362      -0.53383811
O       -0.30445684       0.51228345      -0.97569404
C        0.55883080      -0.16102860      -0.04324119
C        1.75500573      -0.69333115      -0.80330564
C        0.93533769       0.76401110       1.09286144
H       -3.16578154       0.05326450      -0.90732126
H       -2.38060079       1.15995746       0.26290291
H       -2.88448667      -0.48176019       0.73063268
H       -0.20517821      -1.36534078       0.07780511
H        1.41836048      -1.35055579      -1.60564622
H        2.33944320       0.11954695      -1.23910897
H        2.41153366      -1.25885756      -0.13943892
H        1.51823606       0.22360860       1.84120657
H        0.07220961       1.21067646       1.58340423
H        1.55147835       1.59124120       0.73276761
16
Frame=15 idx=005402 GeodesicLength=0.9295138018340904 rxn_smarts="[C:1]([C@@:2]1([H:10])[O:3][C:4]1([C:5]([H:11])([H:12])[H:13])[C:6]([H:14])([H:15])[H:16])([H:7])([H:8])[H:9]>>[C:1]([C-:2]=[O+:3][C:4]([C:5]([H:11])([H:12])[H:13])([C:6]([H:14])([H:15])[H:16])[H:10])([H:7])([H:8])[H:9]"
C       -2.47832932       0.12503222      -0.08678022
C       -1.15812321      -0.44049600      -0.50168938
O       -0.30947197       0.51400482      -0.95179257
C        0.56288466      -0.16633877      -0.02880491
C        1.75335611      -0.68769366      -0.80595596
C        0.95405511       0.76199031       1.10043133
H       -3.16918261       0.02065726      -0.92741730
H       -2.41364193       1.17034106       0.22355383
H       -2.90654523      -0.46146686       0.72935104
H       -0.20755268      -1.38973041       0.07534869
H        1.41171059      -1.34030219      -1.60999845
H        2.33343155       0.12871059      -1.24103492
H        2.41724946      -1.25697155      -0.15261293
H        1.54336970       0.22195086       1.84406720
H        0.09823195       1.21288912       1.59992551
H        1.56855781       1.58742319       0.73340902
16
Frame=16 idx=005402 GeodesicLength=0.9920123417115326 rxn_smarts="[C:1]([C@@:2]1([H:10])[O:3][C:4]1([C:5]([H:11])([H:12])[H:13])[C:6]([H:14])([H:15])[H:16])([H:7])([H:8])[H:9]>>[C:1]([C-:2]=[O+:3][C:4]([C:5]([H:11])([H:12])[H:13])([C:6]([H:14])([H:15])[H:16])[H:10])([H:7])([H:8])[H:9]"
C       -2.49515127       0.12543723      -0.10037711
C       -1.15801520      -0.43228617      -0.46675025
O       -0.31473527       0.51637998      -0.92612929
C        0.56717091      -0.17129854      -0.01350078
C        1.75089690      -0.68182620      -0.80868834
C        0.97398010       0.76003315       1.10854292
H       -3.17068838      -0.01453407      -0.94802206
H       -2.44758564       1.17970915       0.18113511
H       -2.93031226      -0.44024818       0.72688379
H       -0.21064971      -1.41358859       0.07234752
H        1.40338380      -1.32941441      -1.61432744
H        2.32662473       0.13796175      -1.24321968
H        2.42230032      -1.25523605      -0.16663289
H        1.57011896       0.22006594       1.84684230
H        0.12604924       1.21521982       1.61763146
H        1.58661275       1.58362519       0.73426475
