12
Frame=0 idx=002475 GeodesicLength=0.0 rxn_smarts="[N:1]([C:2]1([C:5]#[N:6])[C:3]([H:9])([H:10])[C:4]1([H:11])[H:12])([H:7])[H:8]>>[N:1]([C:2]1([N+:6]#[C-:5])[C:3]([H:9])([H:10])[C:4]1([H:11])[H:12])([H:7])[H:8]"
N        0.55100865       1.07247663       0.97511420
C        0.28366954       0.06933229       0.05950526
C       -0.99055018       0.09115930      -0.72645517
C       -0.76457452      -0.96761715       0.30870133
C        1.77643097      -0.75274321      -0.43556961
N        1.56131647      -0.10544873      -1.40039181
H        1.20791121       0.79742399       1.69012439
H        0.82926638       1.94380216       0.54919469
H       -0.95954492      -0.19488937      -1.76607676
H       -1.66182772       0.90443045      -0.48566277
H       -1.27432236      -0.88480529       1.25938311
H       -0.55878356      -1.97312110      -0.02786683
12
Frame=1 idx=002475 GeodesicLength=0.08606415595474735 rxn_smarts="[N:1]([C:2]1([C:5]#[N:6])[C:3]([H:9])([H:10])[C:4]1([H:11])[H:12])([H:7])[H:8]>>[N:1]([C:2]1([N+:6]#[C-:5])[C:3]([H:9])([H:10])[C:4]1([H:11])[H:12])([H:7])[H:8]"
N        0.54411019       1.07358253       0.97344520
C        0.29334115       0.06943700       0.04813654
C       -0.99097720       0.09964738      -0.72273999
C       -0.75725576      -0.96544591       0.30327365
C        1.83015012      -0.70293861      -0.41397600
N        1.53993141      -0.18482439      -1.43051653
H        1.17608454       0.79871122       1.71044009
H        0.83610803       1.94385858       0.55475322
H       -0.98236685      -0.18397049      -1.76339879
H       -1.66182774       0.91028543      -0.47247570
H       -1.26476975      -0.88834249       1.25554774
H       -0.56252813      -1.97000024      -0.04248944
12
Frame=2 idx=002475 GeodesicLength=0.1710773165408367 rxn_smarts="[N:1]([C:2]1([C:5]#[N:6])[C:3]([H:9])([H:10])[C:4]1([H:11])[H:12])([H:7])[H:8]>>[N:1]([C:2]1([N+:6]#[C-:5])[C:3]([H:9])([H:10])[C:4]1([H:11])[H:12])([H:7])[H:8]"
N        0.53744215       1.07356214       0.97286868
C        0.30331103       0.06945065       0.03690323
C       -0.99059498       0.10810455      -0.71950398
C       -0.75018913      -0.96289777       0.29796492
C        1.88239662      -0.64468125      -0.40169170
N        1.51941073      -0.27229534      -1.45326992
H        1.14634096       0.79872195       1.72888447
H        0.83954362       1.94453275       0.56297951
H       -1.00335515      -0.17277528      -1.76083152
H       -1.66110432       0.91613990      -0.46034944
H       -1.25571382      -0.89090708       1.25163313
H       -0.56748770      -1.96695521      -0.05558737
12
Frame=3 idx=002475 GeodesicLength=0.25444828905880745 rxn_smarts="[N:1]([C:2]1([C:5]#[N:6])[C:3]([H:9])([H:10])[C:4]1([H:11])[H:12])([H:7])[H:8]>>[N:1]([C:2]1([N+:6]#[C-:5])[C:3]([H:9])([H:10])[C:4]1([H:11])[H:12])([H:7])[H:8]"
N        0.53116879       1.07204397       0.97373249
C        0.31334832       0.06933788       0.02595142
C       -0.98928399       0.11637581      -0.71702448
C       -0.74376702      -0.95982590       0.29289535
C        1.93184717      -0.57766231      -0.40067002
N        1.50073195      -0.36694919      -1.46670989
H        1.12041118       0.79682347       1.74484889
H        0.83855112       1.94596390       0.57434045
H       -1.02150107      -0.16178976      -1.75863445
H       -1.65958829       0.92182703      -0.44972748
H       -1.24740669      -0.89214664       1.24778103
H       -0.57451148      -1.96399827      -0.06678332
12
Frame=4 idx=002475 GeodesicLength=0.3374277783671218 rxn_smarts="[N:1]([C:2]1([C:5]#[N:6])[C:3]([H:9])([H:10])[C:4]1([H:11])[H:12])([H:7])[H:8]>>[N:1]([C:2]1([N+:6]#[C-:5])[C:3]([H:9])([H:10])[C:4]1([H:11])[H:12])([H:7])[H:8]"
N        0.52542023       1.06847910       0.97658045
C        0.32341863       0.06877498       0.01572440
C       -0.98684627       0.12428689      -0.71550148
C       -0.73835774      -0.95623279       0.28834250
C        1.97808951      -0.49929677      -0.41409040
N        1.48391123      -0.46955890      -1.46882633
H        1.09963136       0.79211330       1.75843095
H        0.83243851       1.94797273       0.58951572
H       -1.03592379      -0.15140792      -1.75711563
H       -1.65677375       0.92774964      -0.44154907
H       -1.24092965      -0.89161717       1.24391102
H       -0.58407828      -1.96126309      -0.07542212
12
Frame=5 idx=002475 GeodesicLength=0.41994889014778924 rxn_smarts="[N:1]([C:2]1([C:5]#[N:6])[C:3]([H:9])([H:10])[C:4]1([H:11])[H:12])([H:7])[H:8]>>[N:1]([C:2]1([N+:6]#[C-:5])[C:3]([H:9])([H:10])[C:4]1([H:11])[H:12])([H:7])[H:8]"
N        0.52044302       1.06214243       0.98195500
C        0.33315059       0.06724057       0.00677623
C       -0.98312904       0.13154370      -0.71521345
C       -0.73478408      -0.95215404       0.28458728
C        2.01856870      -0.40710742      -0.44619845
N        1.47102209      -0.57952760      -1.45581711
H        1.08644010       0.78357670       1.76891597
H        0.82037399       1.95007897       0.60905962
H       -1.04516262      -0.14216395      -1.75669207
H       -1.65226136       0.93400662      -0.43660329
H       -1.23732762      -0.88875618       1.24016206
H       -0.59733376      -1.95887980      -0.08093178
12
Frame=6 idx=002475 GeodesicLength=0.49969692532874127 rxn_smarts="[N:1]([C:2]1([C:5]#[N:6])[C:3]([H:9])([H:10])[C:4]1([H:11])[H:12])([H:7])[H:8]>>[N:1]([C:2]1([N+:6]#[C-:5])[C:3]([H:9])([H:10])[C:4]1([H:11])[H:12])([H:7])[H:8]"
N        0.51686664       1.05247929       0.99027367
C        0.34192331       0.06402966       0.00015489
C       -0.97812087       0.13763200      -0.71641857
C       -0.73414799      -0.94779309       0.28202810
C        2.04827665      -0.30239048      -0.50129389
N        1.46570118      -0.69122756      -1.42342818
H        1.08355863       0.77064839       1.77556630
H        0.80259842       1.95135306       0.63295186
H       -1.04791417      -0.13545567      -1.75765935
H       -1.64572353       0.94071450      -0.43606560
H       -1.23820583      -0.88299741       1.23662898
H       -0.61481244      -1.95699270      -0.08273820
12
Frame=7 idx=002475 GeodesicLength=0.574937791967503 rxn_smarts="[N:1]([C:2]1([C:5]#[N:6])[C:3]([H:9])([H:10])[C:4]1([H:11])[H:12])([H:7])[H:8]>>[N:1]([C:2]1([N+:6]#[C-:5])[C:3]([H:9])([H:10])[C:4]1([H:11])[H:12])([H:7])[H:8]"
N        0.51524030       1.03989352       1.00110734
C        0.34877574       0.05909798      -0.00357767
C       -0.97250696       0.14233696      -0.71900863
C       -0.73708232      -0.94353146       0.28053329
C        2.06076006      -0.19083170      -0.58008708
N        1.47290268      -0.79703334      -1.36813794
H        1.09189122       0.75392386       1.77768378
H        0.78180143       1.95071604       0.65973822
H       -1.04400822      -0.13176773      -1.76004144
H       -1.63787497       0.94754715      -0.43952952
H       -1.24382155      -0.87491705       1.23339285
H       -0.63607741      -1.95543424      -0.08207320
12
Frame=8 idx=002475 GeodesicLength=0.6475022254384413 rxn_smarts="[N:1]([C:2]1([C:5]#[N:6])[C:3]([H:9])([H:10])[C:4]1([H:11])[H:12])([H:7])[H:8]>>[N:1]([C:2]1([N+:6]#[C-:5])[C:3]([H:9])([H:10])[C:4]1([H:11])[H:12])([H:7])[H:8]"
N        0.51590597       1.02569683       1.01326115
C        0.35283205       0.05328527      -0.00459731
C       -0.96751246       0.14582566      -0.72245551
C       -0.74318196      -0.93984312       0.27946897
C        2.05115633      -0.08318471      -0.67860419
N        1.49591474      -0.88789386      -1.28914254
H        1.10937968       0.73490186       1.77536643
H        0.76256911       1.94750033       0.68680148
H       -1.03521159      -0.13057872      -1.76334938
H       -1.62999123       0.95425116      -0.44553768
H       -1.25336333      -0.86606455       1.23001312
H       -0.65849730      -1.95389616      -0.08122454
12
Frame=9 idx=002475 GeodesicLength=0.7208513031558509 rxn_smarts="[N:1]([C:2]1([C:5]#[N:6])[C:3]([H:9])([H:10])[C:4]1([H:11])[H:12])([H:7])[H:8]>>[N:1]([C:2]1([N+:6]#[C-:5])[C:3]([H:9])([H:10])[C:4]1([H:11])[H:12])([H:7])[H:8]"
N        0.51823000       1.01270733       1.02438198
C        0.35355971       0.04838367      -0.00444541
C       -0.96506611       0.14876076      -0.72583592
C       -0.75085364      -0.93725745       0.27765338
C        2.02143974       0.00456119      -0.78393948
N        1.53416701      -0.95451027      -1.19305254
H        1.12964682       0.71634997       1.77020178
H        0.75129590       1.94215999       0.70970976
H       -1.02608606      -0.13005431      -1.76679530
H       -1.62462853       0.96016502      -0.45072826
H       -1.26368168      -0.85913237       1.22635883
H       -0.67802315      -1.95213353      -0.08350883
12
Frame=10 idx=002475 GeodesicLength=0.7958100157557707 rxn_smarts="[N:1]([C:2]1([C:5]#[N:6])[C:3]([H:9])([H:10])[C:4]1([H:11])[H:12])([H:7])[H:8]>>[N:1]([C:2]1([N+:6]#[C-:5])[C:3]([H:9])([H:10])[C:4]1([H:11])[H:12])([H:7])[H:8]"
N        0.52096376       1.00295199       1.03281052
C        0.35160520       0.04554170      -0.00456913
C       -0.96582794       0.15180721      -0.72830401
C       -0.75818584      -0.93599616       0.27444449
C        1.98071099       0.06327547      -0.88352680
N        1.58106453      -0.99453230      -1.09097533
H        1.14615870       0.70031235       1.76477596
H        0.75055713       1.93586284       0.72555758
H       -1.02037694      -0.12801331      -1.76967728
H       -1.62301953       0.96494742      -0.45274971
H       -1.27211463      -0.85595227       1.22235609
H       -0.69153544      -1.95020496      -0.09014240
12
Frame=11 idx=002475 GeodesicLength=0.8704011398984319 rxn_smarts="[N:1]([C:2]1([C:5]#[N:6])[C:3]([H:9])([H:10])[C:4]1([H:11])[H:12])([H:7])[H:8]>>[N:1]([C:2]1([N+:6]#[C-:5])[C:3]([H:9])([H:10])[C:4]1([H:11])[H:12])([H:7])[H:8]"
N        0.52313592       0.99669116       1.03839321
C        0.34799301       0.04443294      -0.00539544
C       -0.96926491       0.15523566      -0.72960594
C       -0.76439967      -0.93598146       0.26989093
C        1.93690243       0.09482160      -0.97183962
N        1.63070971      -1.01205679      -0.99122982
H        1.15625852       0.68729907       1.76090483
H        0.75918953       1.92914367       0.73411722
H       -1.01929937      -0.12364304      -1.77174302
H       -1.62459542       0.96889267      -0.45116678
H       -1.27781823      -0.85645633       1.21806795
H       -0.69881152      -1.94837916      -0.10039352
12
Frame=12 idx=002475 GeodesicLength=0.9466085213558882 rxn_smarts="[N:1]([C:2]1([C:5]#[N:6])[C:3]([H:9])([H:10])[C:4]1([H:11])[H:12])([H:7])[H:8]>>[N:1]([C:2]1([N+:6]#[C-:5])[C:3]([H:9])([H:10])[C:4]1([H:11])[H:12])([H:7])[H:8]"
N        0.52467197       0.99312520       1.04188900
C        0.34334167       0.04456183      -0.00674124
C       -0.97456740       0.15909094      -0.72991164
C       -0.76953975      -0.93696808       0.26421824
C        1.89128916       0.10513861      -1.05264417
N        1.68196386      -1.01199037      -0.89312909
H        1.16031218       0.67633507       1.75921282
H        0.77543611       1.92178712       0.73713999
H       -1.02218648      -0.11698421      -1.77316634
H       -1.62815819       0.97241997      -0.44666463
H       -1.28149372      -0.85993240       1.21333780
H       -0.70106941      -1.94658367      -0.11354072
12
Frame=13 idx=002475 GeodesicLength=1.0250821475480505 rxn_smarts="[N:1]([C:2]1([C:5]#[N:6])[C:3]([H:9])([H:10])[C:4]1([H:11])[H:12])([H:7])[H:8]>>[N:1]([C:2]1([N+:6]#[C-:5])[C:3]([H:9])([H:10])[C:4]1([H:11])[H:12])([H:7])[H:8]"
N        0.52552375       0.99207674       1.04377162
C        0.33822978       0.04576577      -0.00845854
C       -0.98115034       0.16344748      -0.72926142
C       -0.77351401      -0.93881981       0.25750993
C        1.84535283       0.09615825      -1.12727833
N        1.73332276      -0.99669081      -0.79766075
H        1.15858463       0.66739124       1.76008887
H        0.79770934       1.91394688       0.73591663
H       -1.02833953      -0.10789736      -1.77403351
H       -1.63328283       0.97562226      -0.43944027
H       -1.28335285      -0.86616909       1.20811346
H       -0.69908354      -1.94483154      -0.12926769
12
Frame=14 idx=002475 GeodesicLength=1.104750418918979 rxn_smarts="[N:1]([C:2]1([C:5]#[N:6])[C:3]([H:9])([H:10])[C:4]1([H:11])[H:12])([H:7])[H:8]>>[N:1]([C:2]1([N+:6]#[C-:5])[C:3]([H:9])([H:10])[C:4]1([H:11])[H:12])([H:7])[H:8]"
N        0.52560360       0.99340556       1.04439094
C        0.33315588       0.04797527      -0.01039913
C       -0.98837931       0.16831749      -0.72779559
C       -0.77615024      -0.94125083       0.24991268
C        1.80087311       0.06929046      -1.19498574
N        1.78243657      -0.96811140      -0.70768350
H        1.15129461       0.66062648       1.76370739
H        0.82431061       1.90568124       0.73159886
H       -1.03696126      -0.09647264      -1.77441068
H       -1.63958550       0.97828840      -0.42987277
H       -1.28302246      -0.87481989       1.20254333
H       -0.69357563      -1.94293014      -0.14700580
12
Frame=15 idx=002475 GeodesicLength=1.1849131033819131 rxn_smarts="[N:1]([C:2]1([C:5]#[N:6])[C:3]([H:9])([H:10])[C:4]1([H:11])[H:12])([H:7])[H:8]>>[N:1]([C:2]1([N+:6]#[C-:5])[C:3]([H:9])([H:10])[C:4]1([H:11])[H:12])([H:7])[H:8]"
N        0.52490818       0.99669461       1.04430644
C        0.32847360       0.05101302      -0.01231905
C       -0.99561115       0.17353721      -0.72574133
C       -0.77745819      -0.94393465       0.24174242
C        1.75843135       0.02664686      -1.25537794
N        1.82794627      -0.92796628      -0.62574262
H        1.13936177       0.65592714       1.76977185
H        0.85352716       1.89687684       0.72562935
H       -1.04690165      -0.08323409      -1.77441934
H       -1.64644204       0.98030269      -0.41869790
H       -1.28074836      -0.88514400       1.19671561
H       -0.68548695      -1.94071935      -0.16586749
12
Frame=16 idx=002475 GeodesicLength=1.2660069940928564 rxn_smarts="[N:1]([C:2]1([C:5]#[N:6])[C:3]([H:9])([H:10])[C:4]1([H:11])[H:12])([H:7])[H:8]>>[N:1]([C:2]1([N+:6]#[C-:5])[C:3]([H:9])([H:10])[C:4]1([H:11])[H:12])([H:7])[H:8]"
N        0.52362364       1.00124519       1.04412780
C        0.32436382       0.05451944      -0.01402262
C       -1.00245280       0.17887096      -0.72334032
C       -0.77778704      -0.94673019       0.23338979
C        1.71753936      -0.02983165      -1.30868209
N        1.87037626      -0.87688547      -0.55342241
H        1.12430931       0.65269894       1.77760942
H        0.88374698       1.88752956       0.71958670
H       -1.05720411      -0.06894586      -1.77417353
H       -1.65305906       0.98209828      -0.40686356
H       -1.27768675      -0.89616851       1.19058473
H       -0.67576961      -1.93840070      -0.18479389
