18
Frame=0 idx=000703 GeodesicLength=0.0 rxn_smarts="[C:1]([O:2][C:3]([C:4]([H:10])([H:11])[H:12])([C:5]([H:13])([H:14])[H:15])[C:6]([H:16])([H:17])[H:18])([H:7])([H:8])[H:9]>>[C:1]([O:2][C:4]([H:10])([H:11])[H:12])([H:7])([H:8])[H:9].[C:3]([C:5]([H:13])([H:14])[H:15])[C:6]([H:16])([H:17])[H:18]"
C        1.85141030      -0.22081744      -0.23099062
O        0.72661490       0.63800104      -0.06836469
C       -0.70856248       0.11845641       0.24390519
C       -0.17356070       1.26438693      -1.38806733
C       -0.83056227      -1.33198181      -0.11583024
C       -0.91848450       0.37522312       1.70641333
H        2.67605748       0.39041580      -0.59846230
H        1.65005024      -1.02682177      -0.94017066
H        2.12554257      -0.64372242       0.73582226
H        0.75219270       1.52611403      -1.92856593
H       -0.79016653       0.61888861      -2.00489290
H       -0.70251490       2.15348420      -1.07714873
H       -0.65936449      -1.53413828      -1.17812361
H       -0.17866032      -2.00671615       0.46582831
H       -1.85896304      -1.63398824       0.09501362
H       -0.22260103      -0.19828251       2.34509295
H       -0.80491043       1.43213397       1.95533464
H       -1.93351746       0.07936448       1.98320670
18
Frame=1 idx=000703 GeodesicLength=0.054737509896077806 rxn_smarts="[C:1]([O:2][C:3]([C:4]([H:10])([H:11])[H:12])([C:5]([H:13])([H:14])[H:15])[C:6]([H:16])([H:17])[H:18])([H:7])([H:8])[H:9]>>[C:1]([O:2][C:4]([H:10])([H:11])[H:12])([H:7])([H:8])[H:9].[C:3]([C:5]([H:13])([H:14])[H:15])[C:6]([H:16])([H:17])[H:18]"
C        1.86026716      -0.21721938      -0.24319657
O        0.73787035       0.63725131      -0.05893957
C       -0.70909457       0.11190192       0.24699280
C       -0.17305925       1.25966237      -1.37877625
C       -0.82803786      -1.33989446      -0.10569072
C       -0.92881991       0.37976789       1.70522610
H        2.69021592       0.40312536      -0.58297040
H        1.66477719      -0.99837969      -0.98151677
H        2.12678512      -0.67606628       0.70939790
H        0.74191479       1.51284440      -1.94021274
H       -0.80331844       0.63043037      -1.99974472
H       -0.68569952       2.15659369      -1.06155658
H       -0.64899931      -1.54895127      -1.16505820
H       -0.18125611      -2.00850559       0.48764646
H       -1.85946551      -1.63855099       0.09633956
H       -0.24379354      -0.19717599       2.35150202
H       -0.80964995       1.43693485       1.94997019
H       -1.95063655       0.09623150       1.97058749
18
Frame=2 idx=000703 GeodesicLength=0.10934349898140673 rxn_smarts="[C:1]([O:2][C:3]([C:4]([H:10])([H:11])[H:12])([C:5]([H:13])([H:14])[H:15])[C:6]([H:16])([H:17])[H:18])([H:7])([H:8])[H:9]>>[C:1]([O:2][C:4]([H:10])([H:11])[H:12])([H:7])([H:8])[H:9].[C:3]([C:5]([H:13])([H:14])[H:15])[C:6]([H:16])([H:17])[H:18]"
C        1.86903513      -0.21362355      -0.25552911
O        0.74927700       0.63624552      -0.04946998
C       -0.70966088       0.10522191       0.25008378
C       -0.17243651       1.25484417      -1.36939629
C       -0.82548924      -1.34794767      -0.09535210
C       -0.93920839       0.38433603       1.70385045
H        2.70421575       0.41459480      -0.56748141
H        1.67935302      -0.96878418      -1.02216183
H        2.12794075      -0.70805787       0.68137945
H        0.73131017       1.50011474      -1.95114315
H       -0.81626606       0.64232356      -1.99430629
H       -0.66873573       2.15927966      -1.04601015
H       -0.63799400      -1.56408174      -1.15153901
H       -0.18430293      -2.01025793       0.51004217
H       -1.85996049      -1.64318135       0.09737572
H       -0.26510638      -0.19577002       2.35775391
H       -0.81445381       1.44172845       1.94435447
H       -1.96751740       0.11301549       1.95754936
18
Frame=3 idx=000703 GeodesicLength=0.16377708907363864 rxn_smarts="[C:1]([O:2][C:3]([C:4]([H:10])([H:11])[H:12])([C:5]([H:13])([H:14])[H:15])[C:6]([H:16])([H:17])[H:18])([H:7])([H:8])[H:9]>>[C:1]([O:2][C:4]([H:10])([H:11])[H:12])([H:7])([H:8])[H:9].[C:3]([C:5]([H:13])([H:14])[H:15])[C:6]([H:16])([H:17])[H:18]"
C        1.87770006      -0.21002542      -0.26796089
O        0.76082442       0.63498487      -0.03997745
C       -0.71027908       0.09842761       0.25316792
C       -0.17169983       1.24992849      -1.35995141
C       -0.82293985      -1.35612819      -0.08482229
C       -0.94962239       0.38891582       1.70228422
H        2.71807486       0.42479437      -0.55201774
H        1.69378528      -0.93809309      -1.06200226
H        2.12894115      -0.73959771       0.65183068
H        0.72040922       1.48795807      -1.96137411
H       -0.82897116       0.65454902      -1.98860804
H       -0.65167519       2.16152719      -1.03054142
H       -0.62640408      -1.57949985      -1.13756326
H       -0.18779934      -2.01195275       0.53294918
H       -1.86044711      -1.64788661       0.09813667
H       -0.28648629      -0.19407489       2.36382175
H       -0.81929500       1.44650011       1.93849537
H       -1.98411569       0.12967295       1.94413307
18
Frame=4 idx=000703 GeodesicLength=0.21799536126239405 rxn_smarts="[C:1]([O:2][C:3]([C:4]([H:10])([H:11])[H:12])([C:5]([H:13])([H:14])[H:15])[C:6]([H:16])([H:17])[H:18])([H:7])([H:8])[H:9]>>[C:1]([O:2][C:4]([H:10])([H:11])[H:12])([H:7])([H:8])[H:9].[C:3]([C:5]([H:13])([H:14])[H:15])[C:6]([H:16])([H:17])[H:18]"
C        1.88624835      -0.20641800      -0.28045851
O        0.77249949       0.63347522      -0.03048478
C       -0.71096918       0.09153244       0.25623353
C       -0.17085737       1.24490926      -1.35047019
C       -0.82041432      -1.36441981      -0.07411363
C       -0.96003092       0.39349302       1.70052752
H        2.73180721       0.43370463      -0.53659482
H        1.70808684      -0.90636982      -1.10093277
H        2.12971455      -0.77058145       0.62083207
H        0.70924228       1.47638867      -1.97093272
H       -0.84140464       0.66708758      -1.98268236
H       -0.63456312       2.16332582      -1.01518669
H       -0.61429511      -1.59516918      -1.12313503
H       -0.19173840      -2.01356979       0.55628994
H       -1.86092498      -1.65267265       0.09863895
H       -0.30787187      -0.19210574       2.36967667
H       -0.82414322       1.45123223       1.93240501
H       -2.00038558       0.14615757       1.93038781
18
Frame=5 idx=000703 GeodesicLength=0.2719547985112054 rxn_smarts="[C:1]([O:2][C:3]([C:4]([H:10])([H:11])[H:12])([C:5]([H:13])([H:14])[H:15])[C:6]([H:16])([H:17])[H:18])([H:7])([H:8])[H:9]>>[C:1]([O:2][C:4]([H:10])([H:11])[H:12])([H:7])([H:8])[H:9].[C:3]([C:5]([H:13])([H:14])[H:15])[C:6]([H:16])([H:17])[H:18]"
C        1.89466765      -0.20279203      -0.29298247
O        0.78428643       0.63172833      -0.02101561
C       -0.71175372       0.08455232       0.25926751
C       -0.16991770       1.23977941      -1.34098727
C       -0.81793900      -1.37280444      -0.06324419
C       -0.97039979       0.39805078       1.69858467
H        2.74542320       0.44131724      -0.52122099
H        1.72227618      -0.87368424      -1.13884766
H        2.13018830      -0.80089939       0.58848358
H        0.69783998       1.46539983      -1.97985811
H       -0.85354848       0.67992165      -1.97656326
H       -0.61743586       2.16467257      -0.99998978
H       -0.60174369      -1.61104801      -1.10826849
H       -0.19610820      -2.01509159       0.57997561
H       -1.86139563      -1.65754479       0.09889990
H       -0.32919195      -0.18988180       2.37529033
H       -0.82896794       1.45590588       1.92610128
H       -2.01627978       0.16241829       1.91637494
18
Frame=6 idx=000703 GeodesicLength=0.32560835139343713 rxn_smarts="[C:1]([O:2][C:3]([C:4]([H:10])([H:11])[H:12])([C:5]([H:13])([H:14])[H:15])[C:6]([H:16])([H:17])[H:18])([H:7])([H:8])[H:9]>>[C:1]([O:2][C:4]([H:10])([H:11])[H:12])([H:7])([H:8])[H:9].[C:3]([C:5]([H:13])([H:14])[H:15])[C:6]([H:16])([H:17])[H:18]"
C        1.90294339      -0.19913907      -0.30549355
O        0.79616858       0.62976055      -0.01159233
C       -0.71265536       0.07750484       0.26225561
C       -0.16888711       1.23453157      -1.33153862
C       -0.81554017      -1.38126069      -0.05223233
C       -0.98069371       0.40257230       1.69646096
H        2.75893068       0.44762015      -0.50590915
H        1.73636508      -0.84010700      -1.17564994
H        2.13029028      -0.83044404       0.55489363
H        0.68623973       1.45499562      -1.98817858
H       -0.86536721       0.69302262      -1.97029373
H       -0.60034359       2.16555765      -0.98499865
H       -0.58883336      -1.62709008      -1.09298046
H       -0.20089338      -2.01649940       0.60391613
H       -1.86186039      -1.66250551       0.09894267
H       -0.35036940      -0.18742126       2.38063374
H       -0.83374312       1.46050220       1.91960134
H       -2.03175094       0.17839956       1.90216324
18
Frame=7 idx=000703 GeodesicLength=0.37900832091137004 rxn_smarts="[C:1]([O:2][C:3]([C:4]([H:10])([H:11])[H:12])([C:5]([H:13])([H:14])[H:15])[C:6]([H:16])([H:17])[H:18])([H:7])([H:8])[H:9]>>[C:1]([O:2][C:4]([H:10])([H:11])[H:12])([H:7])([H:8])[H:9].[C:3]([C:5]([H:13])([H:14])[H:15])[C:6]([H:16])([H:17])[H:18]"
C        1.91108170      -0.19545733      -0.31800318
O        0.80814856       0.62756280      -0.00222132
C       -0.71367391       0.07037634       0.26519457
C       -0.16777900       1.22916169      -1.32212139
C       -0.81320244      -1.38980411      -0.04106063
C       -0.99092540       0.40706777       1.69414558
H        2.77235830       0.45262517      -0.49061811
H        1.75040064      -0.80561392      -1.21137497
H        2.12996600      -0.85924120       0.52003222
H        0.67443885       1.44513446      -1.99593983
H       -0.87691188       0.70642061      -1.96384131
H       -0.58325080       2.16600355      -0.97017694
H       -0.57558659      -1.64330237      -1.07724581
H       -0.20604347      -2.01778379       0.62809827
H       -1.86227956      -1.66760587       0.09881731
H       -0.37144541      -0.18472922       2.38571695
H       -0.83845738       1.46503091       1.91288366
H       -2.04683821       0.19415452       1.88771493
18
Frame=8 idx=000703 GeodesicLength=0.4321034383793094 rxn_smarts="[C:1]([O:2][C:3]([C:4]([H:10])([H:11])[H:12])([C:5]([H:13])([H:14])[H:15])[C:6]([H:16])([H:17])[H:18])([H:7])([H:8])[H:9]>>[C:1]([O:2][C:4]([H:10])([H:11])[H:12])([H:7])([H:8])[H:9].[C:3]([C:5]([H:13])([H:14])[H:15])[C:6]([H:16])([H:17])[H:18]"
C        1.91906870      -0.19173694      -0.33046607
O        0.82020787       0.62515875       0.00707711
C       -0.71483356       0.06318762       0.26806794
C       -0.16660002       1.22366064      -1.31277595
C       -0.81095221      -1.39840838      -0.02975394
C       -1.00105679       0.41151738       1.69164584
H        2.78570645       0.45631770      -0.47535645
H        1.76439467      -0.77027255      -1.24592338
H        2.12914752      -0.88717458       0.48402283
H        0.66247471       1.43579948      -2.00317193
H       -0.88815301       0.72008427      -1.95724767
H       -0.56620310       2.16600266      -0.95558421
H       -0.56209588      -1.65963155      -1.06109344
H       -0.21153819      -2.01892673       0.65242594
H       -1.86265849      -1.67284076       0.09854456
H       -0.39232934      -0.18182382       2.39050919
H       -0.84308900       1.46947031       1.90596903
H       -2.06149033       0.20961649       1.87311058
18
Frame=9 idx=000703 GeodesicLength=0.48496073587538574 rxn_smarts="[C:1]([O:2][C:3]([C:4]([H:10])([H:11])[H:12])([C:5]([H:13])([H:14])[H:15])[C:6]([H:16])([H:17])[H:18])([H:7])([H:8])[H:9]>>[C:1]([O:2][C:4]([H:10])([H:11])[H:12])([H:7])([H:8])[H:9].[C:3]([C:5]([H:13])([H:14])[H:15])[C:6]([H:16])([H:17])[H:18]"
C        1.92691599      -0.18797655      -0.34290226
O        0.83235289       0.62254352       0.01629902
C       -0.71613586       0.05592503       0.27087379
C       -0.16535907       1.21802531      -1.30349996
C       -0.80877566      -1.40709320      -0.01829203
C       -1.01110847       0.41593459       1.68895422
H        2.79900713       0.45869769      -0.46008683
H        1.77839237      -0.73404248      -1.27934159
H        2.12779464      -0.91426869       0.44681575
H        0.65035255       1.42696244      -2.00990857
H       -0.89912566       0.73403196      -1.95048248
H       -0.54917366       2.16557345      -0.94118807
H       -0.54838065      -1.67609490      -1.04449880
H       -0.21733135      -2.01992482       0.67689710
H       -1.86296786      -1.67826269       0.09817466
H       -0.41307002      -0.17870586       2.39502376
H       -0.84763132       1.47383505       1.89884304
H       -2.07575598       0.22484016       1.85831925
18
Frame=10 idx=000703 GeodesicLength=0.5376146398718092 rxn_smarts="[C:1]([O:2][C:3]([C:4]([H:10])([H:11])[H:12])([C:5]([H:13])([H:14])[H:15])[C:6]([H:16])([H:17])[H:18])([H:7])([H:8])[H:9]>>[C:1]([O:2][C:4]([H:10])([H:11])[H:12])([H:7])([H:8])[H:9].[C:3]([C:5]([H:13])([H:14])[H:15])[C:6]([H:16])([H:17])[H:18]"
C        1.93461693      -0.18417444      -0.35532421
O        0.84458146       0.61970214       0.02544215
C       -0.71757775       0.04857356       0.27360756
C       -0.16406296       1.21224765      -1.29429118
C       -0.80665152      -1.41586671      -0.00665191
C       -1.02109357       0.42032337       1.68605419
H        2.81225595       0.45975330      -0.44476587
H        1.79243848      -0.69687039      -1.31165536
H        2.12584907      -0.94054080       0.40835568
H        0.63806639       1.41857508      -2.01618562
H       -0.90987060       0.74830302      -1.94350580
H       -0.53210751       2.16472708      -0.92696224
H       -0.53446053      -1.69268969      -1.02743381
H       -0.22336897      -2.02075956       0.70151405
H       -1.86316061      -1.68391547       0.09776606
H       -0.43370925      -0.17537578       2.39926784
H       -0.85208290       1.47812390       1.89147284
H       -2.08966211       0.23986374       1.84329561
18
Frame=11 idx=000703 GeodesicLength=0.590020696945649 rxn_smarts="[C:1]([O:2][C:3]([C:4]([H:10])([H:11])[H:12])([C:5]([H:13])([H:14])[H:15])[C:6]([H:16])([H:17])[H:18])([H:7])([H:8])[H:9]>>[C:1]([O:2][C:4]([H:10])([H:11])[H:12])([H:7])([H:8])[H:9].[C:3]([C:5]([H:13])([H:14])[H:15])[C:6]([H:16])([H:17])[H:18]"
C        1.94216634      -0.18032432      -0.36768712
O        0.85688054       0.61666673       0.03448993
C       -0.71918113       0.04115380       0.27625302
C       -0.16272126       1.20632346      -1.28518639
C       -0.80460406      -1.42470511       0.00513744
C       -1.03097560       0.42466762       1.68295417
H        2.82545823       0.45944695      -0.42941738
H        1.80654028      -0.65881576      -1.34276159
H        2.12325984      -0.96586898       0.36876677
H        0.62565335       1.41063075      -2.02201786
H       -0.92034614       0.76285286      -1.93636178
H       -0.51507506       2.16345445      -0.91296435
H       -0.52043004      -1.70936815      -1.00993888
H       -0.22962660      -2.02142288       0.72618451
H       -1.86325018      -1.68979166       0.09734330
H       -0.45415495      -0.17185122       2.40321198
H       -0.85642723       1.48232290       1.88387870
H       -2.10316631       0.25462855       1.82811554
18
Frame=12 idx=000703 GeodesicLength=0.642237810722103 rxn_smarts="[C:1]([O:2][C:3]([C:4]([H:10])([H:11])[H:12])([C:5]([H:13])([H:14])[H:15])[C:6]([H:16])([H:17])[H:18])([H:7])([H:8])[H:9]>>[C:1]([O:2][C:4]([H:10])([H:11])[H:12])([H:7])([H:8])[H:9].[C:3]([C:5]([H:13])([H:14])[H:15])[C:6]([H:16])([H:17])[H:18]"
C        1.94957243      -0.17642263      -0.38000900
O        0.86925399       0.61343147       0.04343957
C       -0.72094830       0.03365239       0.27880913
C       -0.16134004       1.20024556      -1.27618454
C       -0.80261874      -1.43362392       0.01709514
C       -1.04077501       0.42897755       1.67964857
H        2.83862505       0.45775973      -0.41401539
H        1.82076007      -0.61982197      -1.37268579
H        2.11998393      -0.99025558       0.32798854
H        0.61311506       1.40308308      -2.02743991
H       -0.93058573       0.77770807      -1.92901637
H       -0.49803251       2.16176966      -0.89916978
H       -0.50630948      -1.72614084      -0.99199805
H       -0.23606119      -2.02191141       0.75091103
H       -1.86321081      -1.69593853       0.09695961
H       -0.47445294      -0.16812951       2.40686955
H       -0.86066631       1.48644283       1.87604718
H       -2.11630948       0.26917405       1.81275053
18
Frame=13 idx=000703 GeodesicLength=0.6943215920700828 rxn_smarts="[C:1]([O:2][C:3]([C:4]([H:10])([H:11])[H:12])([C:5]([H:13])([H:14])[H:15])[C:6]([H:16])([H:17])[H:18])([H:7])([H:8])[H:9]>>[C:1]([O:2][C:4]([H:10])([H:11])[H:12])([H:7])([H:8])[H:9].[C:3]([C:5]([H:13])([H:14])[H:15])[C:6]([H:16])([H:17])[H:18]"
C        1.95684031      -0.17247261      -0.39231164
O        0.88171016       0.60998709       0.05229262
C       -0.72287577       0.02605280       0.28127310
C       -0.15992803       1.19401324      -1.26727820
C       -0.80067447      -1.44264038       0.02924829
C       -1.05051139       0.43326597       1.67612013
H        2.85177259       0.45463232      -0.39852477
H        1.83513762      -0.57979904      -1.40145314
H        2.11597891      -1.01371231       0.28593195
H        0.60045092       1.39591661      -2.03246197
H       -0.94060764       0.79288272      -1.92143117
H       -0.48096612       2.15968009      -0.88555376
H       -0.49210736      -1.74302840      -0.97358039
H       -0.24262444      -2.02221975       0.77571318
H       -1.86301191      -1.70240164       0.09666943
H       -0.49465245      -0.16420299       2.41024888
H       -0.86480079       1.49049560       1.86794924
H       -2.12913013       0.28355069       1.79714822
18
Frame=14 idx=000703 GeodesicLength=0.7463132784466171 rxn_smarts="[C:1]([O:2][C:3]([C:4]([H:10])([H:11])[H:12])([C:5]([H:13])([H:14])[H:15])[C:6]([H:16])([H:17])[H:18])([H:7])([H:8])[H:9]>>[C:1]([O:2][C:4]([H:10])([H:11])[H:12])([H:7])([H:8])[H:9].[C:3]([C:5]([H:13])([H:14])[H:15])[C:6]([H:16])([H:17])[H:18]"
C        1.96396529      -0.16847253      -0.40461567
O        0.89424978       0.60631421       0.06104997
C       -0.72495966       0.01833640       0.28364174
C       -0.15848921       1.18761652      -1.25846051
C       -0.79874446      -1.45176438       0.04162532
C       -1.06020774       0.43753971       1.67234885
H        2.86488709       0.45000517      -0.38291301
H        1.84973103      -0.53865236      -1.42906754
H        2.11119153      -1.03623283       0.24249116
H        0.58765042       1.38907739      -2.03711160
H       -0.95044739       0.80842033      -1.91355044
H       -0.46381206       2.15718870      -0.87208895
H       -0.47783222      -1.76003588      -0.95465827
H       -0.24926240      -2.02232858       0.80061146
H       -1.86261005      -1.70922572       0.09654047
H       -0.51481230      -0.16006350       2.41335634
H       -0.86883737       1.49448066       1.85955188
H       -2.14166027       0.29779669       1.78124881
18
Frame=15 idx=000703 GeodesicLength=0.7981737916217512 rxn_smarts="[C:1]([O:2][C:3]([C:4]([H:10])([H:11])[H:12])([C:5]([H:13])([H:14])[H:15])[C:6]([H:16])([H:17])[H:18])([H:7])([H:8])[H:9]>>[C:1]([O:2][C:4]([H:10])([H:11])[H:12])([H:7])([H:8])[H:9].[C:3]([C:5]([H:13])([H:14])[H:15])[C:6]([H:16])([H:17])[H:18]"
C        1.97093959      -0.16441388      -0.41688517
O        0.90686131       0.60244816       0.06969978
C       -0.72722099       0.01052448       0.28590241
C       -0.15702811       1.18104931      -1.24976907
C       -0.79685021      -1.46096960       0.05420377
C       -1.06983074       0.44178210       1.66834772
H        2.87795749       0.44381421      -0.36720964
H        1.86454664      -0.49639430      -1.45541684
H        2.10555721      -1.05769472       0.19774923
H        0.57476057       1.38255628      -2.04139710
H       -0.96003496       0.82425397      -1.90543015
H       -0.44664241       2.15428256      -0.85884086
H       -0.46356166      -1.77711823      -0.93527018
H       -0.25596066      -2.02222952       0.82553865
H       -1.86202452      -1.71639744       0.09659455
H       -0.53483696      -0.15572145       2.41616824
H       -0.87277324       1.49838610       1.85087366
H       -2.15385835       0.31184197       1.76514100
18
Frame=16 idx=000703 GeodesicLength=0.8499645009626975 rxn_smarts="[C:1]([O:2][C:3]([C:4]([H:10])([H:11])[H:12])([C:5]([H:13])([H:14])[H:15])[C:6]([H:16])([H:17])[H:18])([H:7])([H:8])[H:9]>>[C:1]([O:2][C:4]([H:10])([H:11])[H:12])([H:7])([H:8])[H:9].[C:3]([C:5]([H:13])([H:14])[H:15])[C:6]([H:16])([H:17])[H:18]"
C        1.97777219      -0.16029419      -0.42914060
O        0.91955035       0.59837556       0.07824444
C       -0.72966158       0.00259979       0.28805280
C       -0.15555389       1.17430198      -1.24119942
C       -0.79497064      -1.47027430       0.06701045
C       -1.07940436       0.44600614       1.66410059
H        2.89098105       0.43598237      -0.35137424
H        1.87966368      -0.45290870      -1.48048756
H        2.09902859      -1.07808625       0.15157458
H        0.56177200       1.37629989      -2.04534301
H       -0.96940746       0.84041444      -1.89702170
H       -0.42941236       2.15096856      -0.84578772
H       -0.44930833      -1.79429450      -0.91539519
H       -0.26266538      -2.02191560       0.85051543
H       -1.86122958      -1.72396870       0.09689992
H       -0.55478013      -0.15116682       2.41869176
H       -0.87660892       1.50222409       1.84188917
H       -2.16576522       0.32573624       1.74877030
