13
Frame=0 idx=006838 GeodesicLength=0.0 rxn_smarts="[N:1]([c:2]1[c:3]([H:10])[n:4]([H:11])[c:5]([O:6][H:12])[c:7]1[H:13])([H:8])[H:9]>>[N:1]([C:2](/[C:3](=[N:4]/[H:11])[H:10])=[C:7]=[C:5]([O:6][H:12])[H:13])([H:8])[H:9]"
N       -2.25021318       0.58548004      -0.35926865
C       -0.92543269       0.17998518      -0.13390352
C       -0.41833361      -1.07706574      -0.36017372
N        0.91685513      -1.08332456      -0.10067626
C        1.26927962       0.23040396       0.21055248
O        2.48214414       0.40582407       0.81255262
C        0.09827842       1.06363785       0.34388667
H       -2.94348347      -0.07881413      -0.05218399
H       -2.41819029       1.48753503       0.05906942
H       -0.90498527      -1.96026930      -0.75122494
H        1.55312081      -1.84395450      -0.25424399
H        2.40201583       1.19400464       1.35714835
H        1.13894460       0.89655744      -0.77153441
13
Frame=1 idx=006838 GeodesicLength=0.11981944860148183 rxn_smarts="[N:1]([c:2]1[c:3]([H:10])[n:4]([H:11])[c:5]([O:6][H:12])[c:7]1[H:13])([H:8])[H:9]>>[N:1]([C:2](/[C:3](=[N:4]/[H:11])[H:10])=[C:7]=[C:5]([O:6][H:12])[H:13])([H:8])[H:9]"
N       -2.24786222       0.58437226      -0.36025213
C       -0.92395693       0.17711262      -0.13441724
C       -0.42099565      -1.08299492      -0.37290157
N        0.91312527      -1.09607325      -0.11843109
C        1.27707848       0.23869685       0.21801696
O        2.47919413       0.40413763       0.84261368
C        0.10081992       1.05351993       0.34261676
H       -2.94049305      -0.08479563      -0.06227576
H       -2.41982436       1.48210993       0.06562094
H       -0.92514576      -1.96670102      -0.74018030
H        1.53502713      -1.87148152      -0.25742528
H        2.42301549       1.22608158       1.33737755
H        1.15001755       0.93601554      -0.76036252
13
Frame=2 idx=006838 GeodesicLength=0.23960299775980975 rxn_smarts="[N:1]([c:2]1[c:3]([H:10])[n:4]([H:11])[c:5]([O:6][H:12])[c:7]1[H:13])([H:8])[H:9]>>[N:1]([C:2](/[C:3](=[N:4]/[H:11])[H:10])=[C:7]=[C:5]([O:6][H:12])[H:13])([H:8])[H:9]"
N       -2.24546427       0.58291797      -0.36136034
C       -0.92232681       0.17406526      -0.13538850
C       -0.42354818      -1.08902595      -0.38600705
N        0.90965156      -1.10877144      -0.13743738
C        1.28505012       0.24771366       0.22481320
O        2.47505920       0.40377341       0.87326331
C        0.10336579       1.04339292       0.34085174
H       -2.93731175      -0.09092308      -0.07204422
H       -2.42136388       1.47644120       0.07163186
H       -0.94496568      -1.97310052      -0.72776721
H        1.51615185      -1.89936266      -0.25948559
H        2.44529912       1.25522027       1.31716426
H        1.16040294       0.97765895      -0.74823410
13
Frame=3 idx=006838 GeodesicLength=0.3593228391991484 rxn_smarts="[N:1]([c:2]1[c:3]([H:10])[n:4]([H:11])[c:5]([O:6][H:12])[c:7]1[H:13])([H:8])[H:9]>>[N:1]([C:2](/[C:3](=[N:4]/[H:11])[H:10])=[C:7]=[C:5]([O:6][H:12])[H:13])([H:8])[H:9]"
N       -2.24302678       0.58109187      -0.36254473
C       -0.92051344       0.17085563      -0.13688160
C       -0.42606363      -1.09529057      -0.39904167
N        0.90636804      -1.12155972      -0.15727872
C        1.29325195       0.25751560       0.23079005
O        2.46985063       0.40493512       0.90406969
C        0.10601171       1.03336394       0.33820809
H       -2.93392772      -0.09720203      -0.08130635
H       -2.42277664       1.47054162       0.07711216
H       -0.96427484      -1.97930383      -0.71439979
H        1.49643605      -1.92743410      -0.26053030
H        2.46864398       1.28117309       1.29712818
H        1.17002069       1.02131337      -0.73532500
13
Frame=4 idx=006838 GeodesicLength=0.4790106985406391 rxn_smarts="[N:1]([c:2]1[c:3]([H:10])[n:4]([H:11])[c:5]([O:6][H:12])[c:7]1[H:13])([H:8])[H:9]>>[N:1]([C:2](/[C:3](=[N:4]/[H:11])[H:10])=[C:7]=[C:5]([O:6][H:12])[H:13])([H:8])[H:9]"
N       -2.24055151       0.57888062      -0.36373939
C       -0.91851083       0.16747447      -0.13884048
C       -0.42868927      -1.10203504      -0.41120502
N        0.90309082      -1.13477532      -0.17701140
C        1.30171724       0.26809888       0.23596360
O        2.46369362       0.40781033       0.93473944
C        0.10885841       1.02354473       0.33432773
H       -2.93035788      -0.10359061      -0.08984004
H       -2.42400800       1.46448941       0.08201044
H       -0.98291849      -1.98507511      -0.70114944
H        1.47595765      -1.95551619      -0.26102519
H        2.49290803       1.30409762       1.27758372
H        1.17881022       1.06659621      -0.72181397
13
Frame=5 idx=006838 GeodesicLength=0.5986004962418645 rxn_smarts="[N:1]([c:2]1[c:3]([H:10])[n:4]([H:11])[c:5]([O:6][H:12])[c:7]1[H:13])([H:8])[H:9]>>[N:1]([C:2](/[C:3](=[N:4]/[H:11])[H:10])=[C:7]=[C:5]([O:6][H:12])[H:13])([H:8])[H:9]"
N       -2.23800588       0.57630655      -0.36500655
C       -0.91628890       0.16393566      -0.14133610
C       -0.43149636      -1.10938006      -0.42216605
N        0.89964683      -1.14868181      -0.19591664
C        1.31048042       0.27947561       0.24035115
O        2.45669535       0.41247631       0.96505564
C        0.11198146       1.01396308       0.32899644
H       -2.92659735      -0.11001517      -0.09758764
H       -2.42497106       1.45837267       0.08617777
H       -1.00104207      -1.99055597      -0.68788875
H        1.45496967      -1.98336179      -0.26197313
H        2.51787472       1.32408686       1.25898724
H        1.18675315       1.11337806      -0.70769338
13
Frame=6 idx=006838 GeodesicLength=0.7182165428779391 rxn_smarts="[N:1]([c:2]1[c:3]([H:10])[n:4]([H:11])[c:5]([O:6][H:12])[c:7]1[H:13])([H:8])[H:9]>>[N:1]([C:2](/[C:3](=[N:4]/[H:11])[H:10])=[C:7]=[C:5]([O:6][H:12])[H:13])([H:8])[H:9]"
N       -2.23538946       0.57338671      -0.36628503
C       -0.91383437       0.16025833      -0.14441841
C       -0.43456451      -1.11745205      -0.43164558
N        0.89586021      -1.16361130      -0.21328453
C        1.31955595       0.29164480       0.24402952
O        2.44885596       0.41901471       0.99503156
C        0.11543241       1.00465888       0.32205639
H       -2.92263773      -0.11646089      -0.10436888
H       -2.42560897       1.45226046       0.08966335
H       -1.01872448      -1.99567691      -0.67543141
H        1.43365103      -2.01117305      -0.26365637
H        2.54356788       1.34156211       1.24122782
H        1.19383608       1.16158821      -0.69291843
13
Frame=7 idx=006838 GeodesicLength=0.8378485387565493 rxn_smarts="[N:1]([c:2]1[c:3]([H:10])[n:4]([H:11])[c:5]([O:6][H:12])[c:7]1[H:13])([H:8])[H:9]>>[N:1]([C:2](/[C:3](=[N:4]/[H:11])[H:10])=[C:7]=[C:5]([O:6][H:12])[H:13])([H:8])[H:9]"
N       -2.23267909       0.57014067      -0.36762389
C       -0.91110788       0.15645763      -0.14824707
C       -0.43787084      -1.12622433      -0.43987800
N        0.89167764      -1.17967009      -0.22908687
C        1.32898141       0.30465666       0.24694908
O        2.44016751       0.42741168       1.02462434
C        0.11923934       0.99555910       0.31351033
H       -2.91845693      -0.12293156      -0.11021926
H       -2.42586394       1.44615222       0.09248939
H       -1.03616787      -2.00060096      -0.66346133
H        1.41206924      -2.03912737      -0.26619715
H        2.57004469       1.35663989       1.22432359
H        1.19996673       1.21153645      -0.67718316
13
Frame=8 idx=006838 GeodesicLength=0.9575608314775207 rxn_smarts="[N:1]([c:2]1[c:3]([H:10])[n:4]([H:11])[c:5]([O:6][H:12])[c:7]1[H:13])([H:8])[H:9]>>[N:1]([C:2](/[C:3](=[N:4]/[H:11])[H:10])=[C:7]=[C:5]([O:6][H:12])[H:13])([H:8])[H:9]"
N       -2.22989922       0.56658866      -0.36908345
C       -0.90810015       0.15254264      -0.15302250
C       -0.44144879      -1.13574793      -0.44701383
N        0.88709896      -1.19695785      -0.24326302
C        1.33881651       0.31858901       0.24906469
O        2.43063225       0.43766487       1.05380677
C        0.12343492       0.98663579       0.30328952
H       -2.91407354      -0.12944049      -0.11515436
H       -2.42570807       1.44008102       0.09465649
H       -1.05358715      -2.00550237      -0.65170099
H        1.39032579      -2.06742833      -0.26975354
H        2.59746644       1.36940418       1.20831440
H        1.20504205       1.26357081      -0.66014019
13
Frame=9 idx=006838 GeodesicLength=1.0770560257491133 rxn_smarts="[N:1]([c:2]1[c:3]([H:10])[n:4]([H:11])[c:5]([O:6][H:12])[c:7]1[H:13])([H:8])[H:9]>>[N:1]([C:2](/[C:3](=[N:4]/[H:11])[H:10])=[C:7]=[C:5]([O:6][H:12])[H:13])([H:8])[H:9]"
N       -2.22682129       0.56275146      -0.37064509
C       -0.90468128       0.14845738      -0.15867582
C       -0.44512557      -1.14589419      -0.45330111
N        0.88207510      -1.21549951      -0.25621212
C        1.34906703       0.33345929       0.25009034
O        2.42030719       0.44977470       1.08206084
C        0.12806185       0.97766775       0.29150589
H       -2.90929378      -0.13592035      -0.11930026
H       -2.42493726       1.43396839       0.09627790
H       -1.07086962      -2.01026782      -0.64010358
H        1.36811883      -2.09631127      -0.27356158
H        2.62546223       1.37979407       1.19318434
H        1.20863658       1.31802011      -0.64131975
13
Frame=10 idx=006838 GeodesicLength=1.1966238416727397 rxn_smarts="[N:1]([c:2]1[c:3]([H:10])[n:4]([H:11])[c:5]([O:6][H:12])[c:7]1[H:13])([H:8])[H:9]>>[N:1]([C:2](/[C:3](=[N:4]/[H:11])[H:10])=[C:7]=[C:5]([O:6][H:12])[H:13])([H:8])[H:9]"
N       -2.22359241       0.55860231      -0.37230841
C       -0.90088351       0.14421093      -0.16548065
C       -0.44903392      -1.15684073      -0.45865570
N        0.87663472      -1.23546726      -0.26759266
C        1.35985059       0.34939738       0.25000775
O        2.40925416       0.46381678       1.10944708
C        0.13321218       0.96875973       0.27782575
H       -2.90422186      -0.14243656      -0.12237153
H       -2.42356760       1.42791841       0.09728683
H       -1.08825936      -2.01504645      -0.62905012
H        1.34554319      -2.12605444      -0.27773888
H        2.65437692       1.38797635       1.17898682
H        1.21068690       1.37516354      -0.62035627
13
Frame=11 idx=006838 GeodesicLength=1.316165491842578 rxn_smarts="[N:1]([c:2]1[c:3]([H:10])[n:4]([H:11])[c:5]([O:6][H:12])[c:7]1[H:13])([H:8])[H:9]>>[N:1]([C:2](/[C:3](=[N:4]/[H:11])[H:10])=[C:7]=[C:5]([O:6][H:12])[H:13])([H:8])[H:9]"
N       -2.22011983       0.55412861      -0.37405360
C       -0.89660828       0.13980037      -0.17366804
C       -0.45309690      -1.16854090      -0.46329707
N        0.87077146      -1.25692327      -0.27754845
C        1.37120072       0.36648222       0.24860446
O        2.39736867       0.47981078       1.13579499
C        0.13896571       0.95984873       0.26199817
H       -2.89871532      -0.14899140      -0.12424004
H       -2.42144552       1.42189872       0.09775080
H       -1.10575977      -2.01982652      -0.61846381
H        1.32241730      -2.15684923      -0.28189957
H        2.68413778       1.39387324       1.16566838
H        1.21088397       1.43528865      -0.59664622
13
Frame=12 idx=006838 GeodesicLength=1.4359457610105864 rxn_smarts="[N:1]([c:2]1[c:3]([H:10])[n:4]([H:11])[c:5]([O:6][H:12])[c:7]1[H:13])([H:8])[H:9]>>[N:1]([C:2](/[C:3](=[N:4]/[H:11])[H:10])=[C:7]=[C:5]([O:6][H:12])[H:13])([H:8])[H:9]"
N       -2.21642337       0.54927908      -0.37592963
C       -0.89179359       0.13523118      -0.18368590
C       -0.45740741      -1.18112932      -0.46728950
N        0.86448880      -1.27996722      -0.28612197
C        1.38324536       0.38486191       0.24568819
O        2.38468012       0.49778301       1.16101673
C        0.14551222       0.95101989       0.24345434
H       -2.89272355      -0.15561050      -0.12446103
H       -2.41837330       1.41604220       0.09744862
H       -1.12361805      -2.02486198      -0.60778815
H        1.29873729      -2.18887821      -0.28647390
H        2.71459753       1.39753566       1.15377081
H        1.20907795       1.49869430      -0.56962860
13
Frame=13 idx=006838 GeodesicLength=1.5551398208517475 rxn_smarts="[N:1]([c:2]1[c:3]([H:10])[n:4]([H:11])[c:5]([O:6][H:12])[c:7]1[H:13])([H:8])[H:9]>>[N:1]([C:2](/[C:3](=[N:4]/[H:11])[H:10])=[C:7]=[C:5]([O:6][H:12])[H:13])([H:8])[H:9]"
N       -2.21211292       0.54416846      -0.37792413
C       -0.88633487       0.13033118      -0.19490910
C       -0.46162272      -1.19436925      -0.47056008
N        0.85778305      -1.30464456      -0.29328247
C        1.39586965       0.40450731       0.24101299
O        2.37094417       0.51782107       1.18457742
C        0.15279056       0.94193219       0.22233233
H       -2.88600266      -0.16201308      -0.12369177
H       -2.41419989       1.41023906       0.09652834
H       -1.14133658      -2.02965708      -0.59771187
H        1.27428574      -2.22215174      -0.29036542
H        2.74579739       1.39856365       1.14204070
H        1.20413908       1.56527279      -0.53804693
13
Frame=14 idx=006838 GeodesicLength=1.6746663235704515 rxn_smarts="[N:1]([c:2]1[c:3]([H:10])[n:4]([H:11])[c:5]([O:6][H:12])[c:7]1[H:13])([H:8])[H:9]>>[N:1]([C:2](/[C:3](=[N:4]/[H:11])[H:10])=[C:7]=[C:5]([O:6][H:12])[H:13])([H:8])[H:9]"
N       -2.20733236       0.53870681      -0.37988563
C       -0.88015039       0.12509485      -0.20805659
C       -0.46608154      -1.20867195      -0.47302473
N        0.85061910      -1.33123209      -0.29895578
C        1.40952010       0.42565216       0.23409509
O        2.35664564       0.53988987       1.20619242
C        0.16139680       0.93294810       0.19709371
H       -2.87856266      -0.16826312      -0.12058228
H       -2.40850008       1.40488380       0.09471713
H       -1.15954110      -2.03476096      -0.58793199
H        1.24900664      -2.25713275      -0.29445826
H        2.77668285       1.39780700       1.13263616
H        1.19629700       1.63507828      -0.50183925
13
Frame=15 idx=006838 GeodesicLength=1.7940523051969464 rxn_smarts="[N:1]([c:2]1[c:3]([H:10])[n:4]([H:11])[c:5]([O:6][H:12])[c:7]1[H:13])([H:8])[H:9]>>[N:1]([C:2](/[C:3](=[N:4]/[H:11])[H:10])=[C:7]=[C:5]([O:6][H:12])[H:13])([H:8])[H:9]"
N       -2.20181811       0.53295037      -0.38145644
C       -0.87299577       0.11951658      -0.22354405
C       -0.47060991      -1.22395649      -0.47482850
N        0.84301321      -1.35984554      -0.30307525
C        1.42429380       0.44830743       0.22443630
O        2.34111241       0.56386998       1.22574501
C        0.17171285       0.92410668       0.16610146
H       -2.86991613      -0.17411938      -0.11423017
H       -2.40074468       1.40010149       0.09226089
H       -1.17807328      -2.03997419      -0.57842145
H        1.22282375      -2.29390783      -0.29871924
H        2.80606590       1.39548701       1.12617967
H        1.18513598       1.70746387      -0.46044821
13
Frame=16 idx=006838 GeodesicLength=1.913067333173447 rxn_smarts="[N:1]([c:2]1[c:3]([H:10])[n:4]([H:11])[c:5]([O:6][H:12])[c:7]1[H:13])([H:8])[H:9]>>[N:1]([C:2](/[C:3](=[N:4]/[H:11])[H:10])=[C:7]=[C:5]([O:6][H:12])[H:13])([H:8])[H:9]"
N       -2.19526215       0.52692681      -0.38189808
C       -0.86452555       0.11357284      -0.24213849
C       -0.47507581      -1.24022390      -0.47622895
N        0.83494571      -1.39072334      -0.30554273
C        1.44043181       0.47241291       0.21141608
O        2.32314993       0.58962205       1.24347313
C        0.18448796       0.91552672       0.12642540
H       -2.85932803      -0.17923212      -0.10250144
H       -2.38997614       1.39624433       0.08948243
H       -1.19690048      -2.04514735      -0.56917279
H        1.19568963      -2.33265857      -0.30375250
H        2.83174366       1.39246052       1.12457951
H        1.17061946       1.78121909      -0.41414155
