14
Frame=0 idx=002448 GeodesicLength=0.0 rxn_smarts="[C:1]([C:2]([N:3]([C:4]([C:5]#[N:6])([H:13])[H:14])[H:12])([H:10])[H:11])([H:7])([H:8])[H:9]>>[C:1](/[C:2](=[N:3]/[C:4]([C:5]#[N:6])([H:13])[H:14])[H:10])([H:7])([H:8])[H:11].[H:9][H:12]"
C        1.88084813       0.30059873      -0.37353864
C        0.51932116       0.53018614       0.03591025
N       -0.38175701      -0.19936509      -0.64952362
C       -1.74827786      -0.20842712      -0.18130559
C       -1.91590080      -0.10674434       1.28116866
N       -1.99409049      -0.00468119       2.42167427
H        2.70241512       0.62666789       0.25519639
H        2.06837186       0.18205503      -1.43330047
H        1.50085785      -1.45924033      -0.33850152
H        0.37336479       0.77421360       1.09320416
H        0.88620207       1.54066438      -0.48602912
H        0.65783047      -1.44422023      -0.48389749
H       -2.22024226      -1.13675601      -0.50864096
H       -2.32894302       0.60504855      -0.63241629
14
Frame=1 idx=002448 GeodesicLength=0.0937550200625974 rxn_smarts="[C:1]([C:2]([N:3]([C:4]([C:5]#[N:6])([H:13])[H:14])[H:12])([H:10])[H:11])([H:7])([H:8])[H:9]>>[C:1](/[C:2](=[N:3]/[C:4]([C:5]#[N:6])([H:13])[H:14])[H:10])([H:7])([H:8])[H:11].[H:9][H:12]"
C        1.88125369       0.30310359      -0.37375931
C        0.51731925       0.53300084       0.04027984
N       -0.38049254      -0.20503155      -0.64200952
C       -1.74886228      -0.20812631      -0.18013101
C       -1.92318712      -0.10803573       1.28169603
N       -2.00637032      -0.01217641       2.42235316
H        2.70803678       0.65261671       0.23537480
H        2.06529383       0.17100320      -1.43317491
H        1.51156915      -1.46674353      -0.33934010
H        0.37151962       0.76889466       1.09955733
H        0.90485511       1.54864450      -0.48377461
H        0.64415276      -1.45329749      -0.48195661
H       -2.22355656      -1.13346979      -0.51192481
H       -2.32153136       0.60961730      -0.63319027
14
Frame=2 idx=002448 GeodesicLength=0.1870785604171475 rxn_smarts="[C:1]([C:2]([N:3]([C:4]([C:5]#[N:6])([H:13])[H:14])[H:12])([H:10])[H:11])([H:7])([H:8])[H:9]>>[C:1](/[C:2](=[N:3]/[C:4]([C:5]#[N:6])([H:13])[H:14])[H:10])([H:7])([H:8])[H:11].[H:9][H:12]"
C        1.88165432       0.30588002      -0.37403480
C        0.51528249       0.53588113       0.04468751
N       -0.37920758      -0.21072517      -0.63433162
C       -1.74942040      -0.20786893      -0.17892895
C       -1.93056157      -0.10915512       1.28219170
N       -2.01888559      -0.01931925       2.42292027
H        2.71332356       0.67774015       0.21502812
H        2.06210758       0.16036677      -1.43296300
H        1.52307030      -1.47416055      -0.33995966
H        0.36976831       0.76332365       1.10598464
H        0.92352166       1.55680160      -0.48120951
H        0.63017410      -1.46248536      -0.48024868
H       -2.22673856      -1.13026968      -0.51510585
H       -2.31408863       0.61399074      -0.63403017
14
Frame=3 idx=002448 GeodesicLength=0.2801426713759621 rxn_smarts="[C:1]([C:2]([N:3]([C:4]([C:5]#[N:6])([H:13])[H:14])[H:12])([H:10])[H:11])([H:7])([H:8])[H:9]>>[C:1](/[C:2](=[N:3]/[C:4]([C:5]#[N:6])([H:13])[H:14])[H:10])([H:7])([H:8])[H:11].[H:9][H:12]"
C        1.88203293       0.30893739      -0.37438624
C        0.51320608       0.53881507       0.04912948
N       -0.37791337      -0.21644146      -0.62649658
C       -1.74996041      -0.20764394      -0.17769968
C       -1.93801933      -0.11011471       1.28265761
N       -2.03160693      -0.02614413       2.42338153
H        2.71829036       0.70202008       0.19420660
H        2.05879913       0.15011572      -1.43268115
H        1.53547332      -1.48145119      -0.34025876
H        0.36810496       0.75751847       1.11246806
H        0.94218674       1.56513100      -0.47836029
H        0.61583588      -1.47180238      -0.47884448
H       -2.22981129      -1.12713446      -0.51819757
H       -2.30661807       0.61819456      -0.63491855
14
Frame=4 idx=002448 GeodesicLength=0.3730965089759233 rxn_smarts="[C:1]([C:2]([N:3]([C:4]([C:5]#[N:6])([H:13])[H:14])[H:12])([H:10])[H:11])([H:7])([H:8])[H:9]>>[C:1](/[C:2](=[N:3]/[C:4]([C:5]#[N:6])([H:13])[H:14])[H:10])([H:7])([H:8])[H:11].[H:9][H:12]"
C        1.88237930       0.31229178      -0.37483756
C        0.51108524       0.54178775       0.05360599
N       -0.37662073      -0.22217383      -0.61850988
C       -1.75049076      -0.20743961      -0.17644358
C       -1.94555778      -0.11092723       1.28309585
N       -2.04451132      -0.03267882       2.42374248
H        2.72295419       0.72544032       0.17294864
H        2.05535180       0.14022196      -1.43235152
H        1.54890194      -1.48858230      -0.34011723
H        0.36652685       0.75148566       1.11899458
H        0.96083079       1.57362679      -0.47524777
H        0.60107167      -1.48126508      -0.47782738
H       -2.23279716      -1.12404195      -0.52121430
H       -2.29912402       0.62225456      -0.63583831
14
Frame=5 idx=002448 GeodesicLength=0.46604310773245006 rxn_smarts="[C:1]([C:2]([N:3]([C:4]([C:5]#[N:6])([H:13])[H:14])[H:12])([H:10])[H:11])([H:7])([H:8])[H:9]>>[C:1](/[C:2](=[N:3]/[C:4]([C:5]#[N:6])([H:13])[H:14])[H:10])([H:7])([H:8])[H:11].[H:9][H:12]"
C        1.88266854       0.31593614      -0.37540735
C        0.50891785       0.54477531       0.05812028
N       -0.37534303      -0.22792474      -0.61037800
C       -1.75102142      -0.20724167      -0.17516020
C       -1.95317478      -0.11159908       1.28350891
N       -2.05757760      -0.03895128       2.42400900
H        2.72732348       0.74802214       0.15128999
H        2.05174700       0.13063431      -1.43197407
H        1.56350209      -1.49548264      -0.33944966
H        0.36503238       0.74522653       1.12555253
H        0.97944729       1.58227325      -0.47189527
H        0.58580875      -1.49090808      -0.47727652
H       -2.23572681      -1.12096340      -0.52416868
H       -2.29160375       0.62620322      -0.63677096
14
Frame=6 idx=002448 GeodesicLength=0.5591566794922093 rxn_smarts="[C:1]([C:2]([N:3]([C:4]([C:5]#[N:6])([H:13])[H:14])[H:12])([H:10])[H:11])([H:7])([H:8])[H:9]>>[C:1](/[C:2](=[N:3]/[C:4]([C:5]#[N:6])([H:13])[H:14])[H:10])([H:7])([H:8])[H:11].[H:9][H:12]"
C        1.88289364       0.31989303      -0.37613494
C        0.50670331       0.54774477       0.06267850
N       -0.37409177      -0.23369459      -0.60210399
C       -1.75156227      -0.20703276      -0.17385070
C       -1.96087142      -0.11214359       1.28389803
N       -2.07079070      -0.04498322       2.42418619
H        2.73141798       0.76977124       0.12924442
H        2.04796695       0.12131368      -1.43158478
H        1.57944872      -1.50211396      -0.33806686
H        0.36363020       0.73871469       1.13214202
H        0.99799244       1.59106513      -0.46831226
H        0.56995116      -1.50075135      -0.47731793
H       -2.23863366      -1.11786217      -0.52708195
H       -2.28405458       0.63007913      -0.63769576
14
Frame=7 idx=002448 GeodesicLength=0.6525305975316804 rxn_smarts="[C:1]([C:2]([N:3]([C:4]([C:5]#[N:6])([H:13])[H:14])[H:12])([H:10])[H:11])([H:7])([H:8])[H:9]>>[C:1](/[C:2](=[N:3]/[C:4]([C:5]#[N:6])([H:13])[H:14])[H:10])([H:7])([H:8])[H:11].[H:9][H:12]"
C        1.88303486       0.32416423      -0.37704489
C        0.50444231       0.55066042       0.06729318
N       -0.37288015      -0.23948871      -0.59369134
C       -1.75212411      -0.20679240      -0.17251527
C       -1.96864885      -0.11256976       1.28426574
N       -2.08413870      -0.05080344       2.42427826
H        2.73524460       0.79072408       0.10680269
H        2.04398932       0.11219818      -1.43118274
H        1.59693559      -1.50840529      -0.33581660
H        0.36232694       0.73192481       1.13876356
H        1.01644413       1.59998816      -0.46451633
H        0.55339772      -1.51083171      -0.47807082
H       -2.24155611      -1.11469514      -0.52997525
H       -2.27646756       0.63392657      -0.63859019
14
Frame=8 idx=002448 GeodesicLength=0.7461982466717421 rxn_smarts="[C:1]([C:2]([N:3]([C:4]([C:5]#[N:6])([H:13])[H:14])[H:12])([H:10])[H:11])([H:7])([H:8])[H:9]>>[C:1](/[C:2](=[N:3]/[C:4]([C:5]#[N:6])([H:13])[H:14])[H:10])([H:7])([H:8])[H:11].[H:9][H:12]"
C        1.88307571       0.32875208      -0.37816982
C        0.50213845       0.55347761       0.07197784
N       -0.37172060      -0.24531716      -0.58514108
C       -1.75271706      -0.20649871      -0.17115364
C       -1.97650943      -0.11288880       1.28461489
N       -2.09761268      -0.05643710       2.42429080
H        2.73880601       0.81092981       0.08395530
H        2.03979691       0.10321870      -1.43077865
H        1.61616603      -1.51428127      -0.33252419
H        0.36113482       0.72482003       1.14542494
H        1.03477004       1.60902665      -0.46052501
H        0.53603692      -1.52118388      -0.47966997
H       -2.24453587      -1.11141265      -0.53287268
H       -2.26882926       0.63779468      -0.63942873
14
Frame=9 idx=002448 GeodesicLength=0.8401135178427244 rxn_smarts="[C:1]([C:2]([N:3]([C:4]([C:5]#[N:6])([H:13])[H:14])[H:12])([H:10])[H:11])([H:7])([H:8])[H:9]>>[C:1](/[C:2](=[N:3]/[C:4]([C:5]#[N:6])([H:13])[H:14])[H:10])([H:7])([H:8])[H:11].[H:9][H:12]"
C        1.88301304       0.33366650      -0.37955227
C        0.49979504       0.55615436       0.07674924
N       -0.37062672      -0.25118615      -0.57645533
C       -1.75335219      -0.20612697      -0.16976666
C       -1.98445413      -0.11311990       1.28494859
N       -2.11120092      -0.06191694       2.42423010
H        2.74211524       0.83043319       0.06068289
H        2.03537206       0.09431285      -1.43040201
H        1.63733558      -1.51969052      -0.32793755
H        0.36007468       0.71735308       1.15214077
H        1.05291739       1.61817305      -0.45636320
H        0.51775613      -1.53182983      -0.48228846
H       -2.24761646      -1.10796066      -0.53580474
H       -2.26112874       0.64173795      -0.64018137
14
Frame=10 idx=002448 GeodesicLength=0.9344090418335499 rxn_smarts="[C:1]([C:2]([N:3]([C:4]([C:5]#[N:6])([H:13])[H:14])[H:12])([H:10])[H:11])([H:7])([H:8])[H:9]>>[C:1](/[C:2](=[N:3]/[C:4]([C:5]#[N:6])([H:13])[H:14])[H:10])([H:7])([H:8])[H:11].[H:9][H:12]"
C        1.88281712       0.33890360      -0.38122151
C        0.49742017       0.55861817       0.08163323
N       -0.36961673      -0.25711681      -0.56763295
C       -1.75404441      -0.20564334      -0.16835322
C       -1.99249023      -0.11327178       1.28527123
N       -2.12490357      -0.06727275       2.42410188
H        2.74515295       0.84931529       0.03690339
H        2.03069843       0.08536236      -1.43002563
H        1.66077310      -1.52449077      -0.32181956
H        0.35916425       0.70944602       1.15892715
H        1.07084647       1.62739396      -0.45204629
H        0.49838239      -1.54281421      -0.48612103
H       -2.25086113      -1.10425961      -0.53880529
H       -2.25333881       0.64582985      -0.64081140
14
Frame=11 idx=002448 GeodesicLength=1.0290357002576787 rxn_smarts="[C:1]([C:2]([N:3]([C:4]([C:5]#[N:6])([H:13])[H:14])[H:12])([H:10])[H:11])([H:7])([H:8])[H:9]>>[C:1](/[C:2](=[N:3]/[C:4]([C:5]#[N:6])([H:13])[H:14])[H:10])([H:7])([H:8])[H:11].[H:9][H:12]"
C        1.88247579       0.34446813      -0.38322152
C        0.49502273       0.56079941       0.08665380
N       -0.36871028      -0.26312363      -0.55867715
C       -1.75480800      -0.20501065      -0.16691232
C       -2.00061898      -0.11336610       1.28558900
N       -2.13870990      -0.07255114       2.42391514
H        2.74790330       0.86765001       0.01254326
H        2.02576964       0.07624428      -1.42964362
H        1.68677400      -1.52856036      -0.31384906
H        0.35842971       0.70101849       1.16580541
H        1.08849021       1.63667047      -0.44761109
H        0.47775090      -1.55416785      -0.49140426
H       -2.25433338      -1.10022269      -0.54191604
H       -2.24543574       0.65015164      -0.64127156
14
Frame=12 idx=002448 GeodesicLength=1.1239423310550112 rxn_smarts="[C:1]([C:2]([N:3]([C:4]([C:5]#[N:6])([H:13])[H:14])[H:12])([H:10])[H:11])([H:7])([H:8])[H:9]>>[C:1](/[C:2](=[N:3]/[C:4]([C:5]#[N:6])([H:13])[H:14])[H:10])([H:7])([H:8])[H:11].[H:9][H:12]"
C        1.88196337       0.35035023      -0.38559594
C        0.49261577       0.56261343       0.09184604
N       -0.36792706      -0.26924265      -0.54958282
C       -1.75565706      -0.20418834      -0.16544098
C       -2.00884740      -0.11341728       1.28590889
N       -2.15262095      -0.07778695       2.42367799
H        2.75033281       0.88553943      -0.01249862
H        2.02057682       0.06680922      -1.42922930
H        1.71569773      -1.53172259      -0.30371211
H        0.35790476       0.69196444       1.17280516
H        1.10578721       1.64596417      -0.44308860
H        0.45566073      -1.56592461      -0.49839612
H       -2.25810768      -1.09575014      -0.54517858
H       -2.23737906       0.65479165      -0.64151501
14
Frame=13 idx=002448 GeodesicLength=1.2189251378754509 rxn_smarts="[C:1]([C:2]([N:3]([C:4]([C:5]#[N:6])([H:13])[H:14])[H:12])([H:10])[H:11])([H:7])([H:8])[H:9]>>[C:1](/[C:2](=[N:3]/[C:4]([C:5]#[N:6])([H:13])[H:14])[H:10])([H:7])([H:8])[H:11].[H:9][H:12]"
C        1.88127013       0.35655609      -0.38838752
C        0.49021082       0.56398385       0.09724281
N       -0.36728645      -0.27549853      -0.54034685
C       -1.75660467      -0.20313586      -0.16393512
C       -2.01717551      -0.11345534       1.28624124
N       -2.16662544      -0.08303328       2.42340327
H        2.75240849       0.90305707      -0.03833092
H        2.01512444       0.05690698      -1.42875285
H        1.74786694      -1.53383242      -0.29102546
H        0.35762186       0.68218622       1.17995600
H        1.12265728       1.65525194      -0.43854370
H        0.43192124      -1.57808875      -0.50739910
H       -2.26225296      -1.09073834      -0.54864114
H       -2.22913616       0.65984038      -0.64148066
14
Frame=14 idx=002448 GeodesicLength=1.3138836800431748 rxn_smarts="[C:1]([C:2]([N:3]([C:4]([C:5]#[N:6])([H:13])[H:14])[H:12])([H:10])[H:11])([H:7])([H:8])[H:9]>>[C:1](/[C:2](=[N:3]/[C:4]([C:5]#[N:6])([H:13])[H:14])[H:10])([H:7])([H:8])[H:11].[H:9][H:12]"
C        1.88036818       0.36307255      -0.39164121
C        0.48782690       0.56480033       0.10288795
N       -0.36681328      -0.28193898      -0.53096227
C       -1.75766540      -0.20179851      -0.16238856
C       -2.02560767      -0.11350156       1.28659840
N       -2.18072141      -0.08834956       2.42310391
H        2.75406327       0.92031916      -0.06512230
H        2.00942740       0.04632364      -1.42814114
H        1.78372685      -1.53464439      -0.27536818
H        0.35762361       0.67154282       1.18729572
H        1.13900994       1.66448936      -0.43403842
H        0.40627226      -1.59067934      -0.51876695
H       -2.26686182      -1.08504949      -0.55235855
H       -2.22064883       0.66541396      -0.64109840
14
Frame=15 idx=002448 GeodesicLength=1.4085564443453404 rxn_smarts="[C:1]([C:2]([N:3]([C:4]([C:5]#[N:6])([H:13])[H:14])[H:12])([H:10])[H:11])([H:7])([H:8])[H:9]>>[C:1](/[C:2](=[N:3]/[C:4]([C:5]#[N:6])([H:13])[H:14])[H:10])([H:7])([H:8])[H:11].[H:9][H:12]"
C        1.87923609       0.36988746      -0.39540381
C        0.48548225       0.56495780       0.10882278
N       -0.36653194      -0.28861606      -0.52141905
C       -1.75885249      -0.20012722      -0.16079153
C       -2.03414311      -0.11358749       1.28699729
N       -2.19489758      -0.09379462       2.42279836
H        2.75522815       0.93741661      -0.09302490
H        2.00351378       0.03484680      -1.42732039
H        1.82368069      -1.53391317      -0.25628680
H        0.35795445       0.65989899       1.19486064
H        1.15474787       1.67363230      -0.42966479
H        0.37846676      -1.60367706      -0.53289489
H       -2.27202235      -1.07854760      -0.55638405
H       -2.21186258       0.67162326      -0.64028886
14
Frame=16 idx=002448 GeodesicLength=1.5027282870256438 rxn_smarts="[C:1]([C:2]([N:3]([C:4]([C:5]#[N:6])([H:13])[H:14])[H:12])([H:10])[H:11])([H:7])([H:8])[H:9]>>[C:1](/[C:2](=[N:3]/[C:4]([C:5]#[N:6])([H:13])[H:14])[H:10])([H:7])([H:8])[H:11].[H:9][H:12]"
C        1.87785117       0.37697986      -0.39971928
C        0.48320017       0.56433608       0.11510136
N       -0.36646887      -0.29559345      -0.51170109
C       -1.76017820      -0.19806320      -0.15913170
C       -2.04278238      -0.11375087       1.28745843
N       -2.20914628      -0.09944926       2.42250786
H        2.75580934       0.95445263      -0.12225874
H        1.99742884       0.02221083      -1.42617296
H        1.86819453      -1.53133595      -0.23325871
H        0.35866649       0.64709525       1.20269857
H        1.16975607       1.68262971      -0.42553727
H        0.34820976      -1.61704257      -0.55024643
H       -2.27783424      -1.07106753      -0.56078144
H       -2.20270640       0.67859848      -0.63895861
