11
Frame=0 idx=005460 GeodesicLength=0.0 rxn_smarts="[O:1]=[C:2]1[N:3]([H:7])[C:4]([H:8])([H:9])[C:5]([H:10])([H:11])[O:6]1>>[O:1]=[C:2]([N+:3](=[C-:4][H:9])[H:7])[O:6][C:5]([H:8])([H:10])[H:11]"
O        2.56026053       0.17762235       0.05204862
C        1.37867606       0.07537388       0.09135239
N        0.63722453      -1.03893877       0.50335739
C       -0.71617041      -0.92358778       0.72170300
C       -0.79849119       0.79042854      -0.57069640
O        0.55268274       1.06040369      -0.36440211
H        0.97810417      -1.89744460       0.09636241
H       -1.23780845      -0.38359875      -0.35206124
H       -0.90733317      -0.15142630       1.47229234
H       -1.42763902       1.47377771      -0.00830315
H       -1.01950584       0.81738999      -1.64165324
11
Frame=1 idx=005460 GeodesicLength=0.04693068724019539 rxn_smarts="[O:1]=[C:2]1[N:3]([H:7])[C:4]([H:8])([H:9])[C:5]([H:10])([H:11])[O:6]1>>[O:1]=[C:2]([N+:3](=[C-:4][H:9])[H:7])[O:6][C:5]([H:8])([H:10])[H:11]"
O        2.56076564       0.17188276       0.03989315
C        1.37847987       0.07595744       0.08490494
N        0.63809768      -1.03446422       0.50979799
C       -0.71658544      -0.92090210       0.71780026
C       -0.79958416       0.79003175      -0.56836280
O        0.55499940       1.06039435      -0.37173535
H        0.98809980      -1.89980960       0.12577562
H       -1.23825469      -0.39987422      -0.37877542
H       -0.91734067      -0.15761066       1.47465355
H       -1.42089980       1.47396972       0.00275254
H       -1.02777764       0.84042477      -1.63670448
11
Frame=2 idx=005460 GeodesicLength=0.09382468341504505 rxn_smarts="[O:1]=[C:2]1[N:3]([H:7])[C:4]([H:8])([H:9])[C:5]([H:10])([H:11])[O:6]1>>[O:1]=[C:2]([N+:3](=[C-:4][H:9])[H:7])[O:6][C:5]([H:8])([H:10])[H:11]"
O        2.56115789       0.16598375       0.02779105
C        1.37822119       0.07650657       0.07844810
N        0.63886947      -1.02987138       0.51619785
C       -0.71709110      -0.91822115       0.71364517
C       -0.80070539       0.78961449      -0.56605702
O        0.55731948       1.06026988      -0.37942329
H        0.99784678      -1.90147010       0.15540663
H       -1.23800827      -0.41584684      -0.40562734
H       -0.92745794      -0.16426136       1.47696786
H       -1.41381390       1.47424365       0.01383689
H       -1.03633821       0.86305248      -1.63118590
11
Frame=3 idx=005460 GeodesicLength=0.14066143403048215 rxn_smarts="[O:1]=[C:2]1[N:3]([H:7])[C:4]([H:8])([H:9])[C:5]([H:10])([H:11])[O:6]1>>[O:1]=[C:2]([N+:3](=[C-:4][H:9])[H:7])[O:6][C:5]([H:8])([H:10])[H:11]"
O        2.56144115       0.15997262       0.01590065
C        1.37790290       0.07702544       0.07200119
N        0.63954270      -1.02517941       0.52252066
C       -0.71765938      -0.91553116       0.70931679
C       -0.80184880       0.78916323      -0.56378141
O        0.55964396       1.06000674      -0.38749235
H        1.00726870      -1.90240261       0.18501845
H       -1.23713974      -0.43150318      -0.43252135
H       -0.93762770      -0.17131963       1.47925458
H       -1.40636475       1.47460727       0.02491154
H       -1.04515904       0.88516069      -1.62512874
11
Frame=4 idx=005460 GeodesicLength=0.1874766212963905 rxn_smarts="[O:1]=[C:2]1[N:3]([H:7])[C:4]([H:8])([H:9])[C:5]([H:10])([H:11])[O:6]1>>[O:1]=[C:2]([N+:3](=[C-:4][H:9])[H:7])[O:6][C:5]([H:8])([H:10])[H:11]"
O        2.56162133       0.15379873       0.00406634
C        1.37752823       0.07753095       0.06558872
N        0.64011988      -1.02036881       0.52879680
C       -0.71829436      -0.91285609       0.70479836
C       -0.80301617       0.78870410      -0.56151759
O        0.56196430       1.05961937      -0.39590778
H        1.01641715      -1.90261396       0.21473649
H       -1.23564915      -0.44684387      -0.45950793
H       -0.94792106      -0.17882253       1.48147145
H       -1.39855233       1.47506092       0.03601192
H       -1.05421780       0.90679119      -1.61853677
11
Frame=5 idx=005460 GeodesicLength=0.2342589007460366 rxn_smarts="[O:1]=[C:2]1[N:3]([H:7])[C:4]([H:8])([H:9])[C:5]([H:10])([H:11])[O:6]1>>[O:1]=[C:2]([N+:3](=[C-:4][H:9])[H:7])[O:6][C:5]([H:8])([H:10])[H:11]"
O        2.56168131       0.14743997      -0.00780308
C        1.37709806       0.07803294       0.05921024
N        0.64059569      -1.01541930       0.53504237
C       -0.71899415      -0.91021373       0.70008139
C       -0.80419919       0.78824988      -0.55924902
O        0.56428343       1.05910517      -0.40466430
H        1.02530739      -1.90209213       0.24464864
H       -1.23352711      -0.46186170      -0.48660865
H       -0.95838691      -0.18680575       1.48358174
H       -1.39035998       1.47559257       0.04717276
H       -1.06349854       0.92797207      -1.61141209
11
Frame=6 idx=005460 GeodesicLength=0.2810830227891718 rxn_smarts="[O:1]=[C:2]1[N:3]([H:7])[C:4]([H:8])([H:9])[C:5]([H:10])([H:11])[O:6]1>>[O:1]=[C:2]([N+:3](=[C-:4][H:9])[H:7])[O:6][C:5]([H:8])([H:10])[H:11]"
O        2.56163555       0.14080206      -0.01992725
C        1.37661800       0.07855644       0.05292040
N        0.64097995      -1.01030974       0.54130287
C       -0.71976674      -0.90763119       0.69514619
C       -0.80540648       0.78783027      -0.55695609
O        0.56657699       1.05848608      -0.41370306
H        1.03401977      -1.90082499       0.27490129
H       -1.23077319      -0.47657050      -0.51388591
H       -0.96911842      -0.19530537       1.48553643
H       -1.38180361       1.47619613       0.05841546
H       -1.07296182       0.94877081      -1.60375032
11
Frame=7 idx=005460 GeodesicLength=0.3278726716825222 rxn_smarts="[O:1]=[C:2]1[N:3]([H:7])[C:4]([H:8])([H:9])[C:5]([H:10])([H:11])[O:6]1>>[O:1]=[C:2]([N+:3](=[C-:4][H:9])[H:7])[O:6][C:5]([H:8])([H:10])[H:11]"
O        2.56143057       0.13386255      -0.03236354
C        1.37607683       0.07909875       0.04668163
N        0.64126818      -1.00501138       0.54758993
C       -0.72058639      -0.90512958       0.68996541
C       -0.80662887       0.78745020      -0.55462476
O        0.56885239       1.05775544      -0.42303324
H        1.04254307      -1.89878129       0.30563449
H       -1.22736141      -0.49091306      -0.54136378
H       -0.98012147      -0.20439362       1.48727725
H       -1.37285875       1.47684956       0.06978882
H       -1.08261415       0.96921243      -1.59555222
11
Frame=8 idx=005460 GeodesicLength=0.37467940464612154 rxn_smarts="[O:1]=[C:2]1[N:3]([H:7])[C:4]([H:8])([H:9])[C:5]([H:10])([H:11])[O:6]1>>[O:1]=[C:2]([N+:3](=[C-:4][H:9])[H:7])[O:6][C:5]([H:8])([H:10])[H:11]"
O        2.56108929       0.12663265      -0.04503180
C        1.37548679       0.07968701       0.04056058
N        0.64146084      -0.99954283       0.55388417
C       -0.72144970      -0.90268123       0.68463725
C       -0.80785583       0.78709580      -0.55225263
O        0.57110081       1.05691091      -0.43262836
H        1.05081927      -1.89593147       0.33656275
H       -1.22335647      -0.50492770      -0.56896261
H       -0.99137537      -0.21397546       1.48885057
H       -1.36354009       1.47753713       0.08123556
H       -1.09237953       0.98919518      -1.58685548
11
Frame=9 idx=005460 GeodesicLength=0.42148904090299455 rxn_smarts="[O:1]=[C:2]1[N:3]([H:7])[C:4]([H:8])([H:9])[C:5]([H:10])([H:11])[O:6]1>>[O:1]=[C:2]([N+:3](=[C-:4][H:9])[H:7])[O:6][C:5]([H:8])([H:10])[H:11]"
O        2.56061677       0.11914891      -0.05780208
C        1.37485276       0.08031934       0.03455655
N        0.64156839      -0.99392587       0.56016126
C       -0.72233388      -0.90027737       0.67922215
C       -0.80908891       0.78676076      -0.54984059
O        0.57331737       1.05594415      -0.44249725
H        1.05880317      -1.89229071       0.36752862
H       -1.21882685      -0.51859713      -0.59661805
H       -1.00281093      -0.22400884       1.49026724
H       -1.35385766       1.47826931       0.09271527
H       -1.10224024       1.00865746      -1.57769312
11
Frame=10 idx=005460 GeodesicLength=0.46829802655963004 rxn_smarts="[O:1]=[C:2]1[N:3]([H:7])[C:4]([H:8])([H:9])[C:5]([H:10])([H:11])[O:6]1>>[O:1]=[C:2]([N+:3](=[C-:4][H:9])[H:7])[O:6][C:5]([H:8])([H:10])[H:11]"
O        2.55998303       0.11133393      -0.07086795
C        1.37418113       0.08100615       0.02866586
N        0.64158716      -0.98812604       0.56645602
C       -0.72323901      -0.89794163       0.67368526
C       -0.81032364       0.78646135      -0.54736923
O        0.57550088       1.05487615      -0.45258132
H        1.06653481      -1.88782885       0.39872091
H       -1.21373357      -0.53190579      -0.62439195
H       -1.01449333      -0.23455487       1.49147712
H       -1.34382827       1.47901651       0.10427232
H       -1.11216918       1.02766310      -1.56806704
11
Frame=11 idx=005460 GeodesicLength=0.5151382138809153 rxn_smarts="[O:1]=[C:2]1[N:3]([H:7])[C:4]([H:8])([H:9])[C:5]([H:10])([H:11])[O:6]1>>[O:1]=[C:2]([N+:3](=[C-:4][H:9])[H:7])[O:6][C:5]([H:8])([H:10])[H:11]"
O        2.55916345       0.10307628      -0.08445881
C        1.37346990       0.08177668       0.02291735
N        0.64152144      -0.98210981       0.57281315
C       -0.72416641      -0.89569883       0.66799835
C       -0.81155701       0.78621671      -0.54481731
O        0.57763458       1.05373982      -0.46281714
H        1.07407701      -1.88250631       0.43032289
H       -1.20804840      -0.54485220      -0.65234113
H       -1.02650603      -0.24567139       1.49241586
H       -1.33346722       1.47974093       0.11593573
H       -1.12212131       1.04628813      -1.55796894
11
Frame=12 idx=005460 GeodesicLength=0.5619884574668308 rxn_smarts="[O:1]=[C:2]1[N:3]([H:7])[C:4]([H:8])([H:9])[C:5]([H:10])([H:11])[O:6]1>>[O:1]=[C:2]([N+:3](=[C-:4][H:9])[H:7])[O:6][C:5]([H:8])([H:10])[H:11]"
O        2.55815524       0.09446674      -0.09830570
C        1.37272658       0.08261302       0.01728992
N        0.64137414      -0.97590711       0.57918646
C       -0.72509128      -0.89351991       0.66224886
C       -0.81278548       0.78600173      -0.54219255
O        0.57972293       1.05249223      -0.47325733
H        1.08133958      -1.87632903       0.46205328
H       -1.20184843      -0.55743122      -0.68038058
H       -1.03873241      -0.25727732       1.49313399
H       -1.32276125       1.48045577       0.12766070
H       -1.13209961       1.06443509      -1.54743706
11
Frame=13 idx=005460 GeodesicLength=0.6088655898541092 rxn_smarts="[O:1]=[C:2]1[N:3]([H:7])[C:4]([H:8])([H:9])[C:5]([H:10])([H:11])[O:6]1>>[O:1]=[C:2]([N+:3](=[C-:4][H:9])[H:7])[O:6][C:5]([H:8])([H:10])[H:11]"
O        2.55691737       0.08534938      -0.11271688
C        1.37195798       0.08355505       0.01183412
N        0.64114741      -0.96947206       0.58563734
C       -0.72601591      -0.89143046       0.65639618
C       -0.81400214       0.78583760      -0.53947559
O        0.58176150       1.05118655      -0.48379600
H        1.08838687      -1.86923731       0.49412931
H       -1.19506825      -0.56963923      -0.70858041
H       -1.05127398      -0.26944422       1.49356096
H       -1.31175420       1.48111069       0.13948449
H       -1.14205666       1.08218402      -1.53647351
11
Frame=14 idx=005460 GeodesicLength=0.655795350711758 rxn_smarts="[O:1]=[C:2]1[N:3]([H:7])[C:4]([H:8])([H:9])[C:5]([H:10])([H:11])[O:6]1>>[O:1]=[C:2]([N+:3](=[C-:4][H:9])[H:7])[O:6][C:5]([H:8])([H:10])[H:11]"
O        2.55538394       0.07558288      -0.12798727
C        1.37116138       0.08461692       0.00653762
N        0.64084565      -0.96275728       0.59221393
C       -0.72693075      -0.88947390       0.65039038
C       -0.81520131       0.78574122      -0.53663680
O        0.58371971       1.04987696      -0.49432735
H        1.09528106      -1.86115906       0.52684059
H       -1.18766096      -0.58145132      -0.73702498
H       -1.06420097      -0.28227091       1.49361523
H       -1.30048462       1.48166230       0.15142677
H       -1.15191311       1.09963219      -1.52504813
11
Frame=15 idx=005460 GeodesicLength=0.7027607806650612 rxn_smarts="[O:1]=[C:2]1[N:3]([H:7])[C:4]([H:8])([H:9])[C:5]([H:10])([H:11])[O:6]1>>[O:1]=[C:2]([N+:3](=[C-:4][H:9])[H:7])[O:6][C:5]([H:8])([H:10])[H:11]"
O        2.55354795       0.06520128      -0.14392050
C        1.37035528       0.08579857       0.00141579
N        0.64047363      -0.95578702       0.59889041
C       -0.72781977      -0.88761248       0.64431848
C       -0.81637950       0.78569266      -0.53369039
O        0.58561939       1.04855211      -0.50485313
H        1.10194739      -1.85209247       0.55990083
H       -1.17967169      -0.59287518      -0.76563325
H       -1.07742213      -0.29566913       1.49334502
H       -1.28897895       1.48210450       0.16345140
H       -1.16167161       1.11668716      -1.51322465
11
Frame=16 idx=005460 GeodesicLength=0.7497483569862566 rxn_smarts="[O:1]=[C:2]1[N:3]([H:7])[C:4]([H:8])([H:9])[C:5]([H:10])([H:11])[O:6]1>>[O:1]=[C:2]([N+:3](=[C-:4][H:9])[H:7])[O:6][C:5]([H:8])([H:10])[H:11]"
O        2.55139123       0.05425941      -0.16033514
C        1.36953850       0.08709028      -0.00354949
N        0.64003535      -0.94858573       0.60563179
C       -0.72866271      -0.88581567       0.63825720
C       -0.81753259       0.78567189      -0.53064034
O        0.58745054       1.04720730      -0.51536322
H        1.10833055      -1.84206911       0.59308570
H       -1.17116698      -0.60391980      -0.79433486
H       -1.09083138      -0.30955803       1.49279174
H       -1.27726042       1.48243093       0.17550299
H       -1.17129208       1.13328853      -1.50104638
