17
Frame=0 idx=008381 GeodesicLength=0.0 rxn_smarts="[C:1]([C:2]12[C:3]([H:11])([H:12])[C:4]([H:13])([C:5]1([H:14])[H:15])[C:6]([H:16])=[C:7]2[H:17])([H:8])([H:9])[H:10]>>[C:1]([C@@:2]12[C:3]([H:11])([H:12])[C:4]([H:13])([H:15])[C@@:6]3([H:16])[C@:5]1([H:14])[C@@:7]23[H:17])([H:8])([H:9])[H:10]"
C        2.04646898       0.00914903       0.07318378
C        0.54058842      -0.00932396      -0.07095701
C       -0.32402083      -0.85703183       0.88808880
C       -1.55022396      -0.47036088       0.06617555
C        0.05218194      -0.71458750      -1.35579197
C       -1.48504015       1.04288510       0.06273430
C       -0.19380430       1.34065699       0.04472961
H        2.50987955       0.56876495      -0.74329141
H        2.34594500       0.47767224       1.01312184
H        2.44479361      -1.00554632       0.04811710
H       -0.36394106      -0.51474696       1.92303076
H       -0.07947146      -1.91756118       0.82763102
H       -2.51333812      -0.96530952       0.19411996
H       -0.17674385       0.04496640      -2.12071191
H       -1.18183491      -1.04253143      -0.99790970
H       -2.34442744       1.69631030       0.08871197
H        0.27298859       2.31659453       0.05901731
17
Frame=1 idx=008381 GeodesicLength=0.11289682562119378 rxn_smarts="[C:1]([C:2]12[C:3]([H:11])([H:12])[C:4]([H:13])([C:5]1([H:14])[H:15])[C:6]([H:16])=[C:7]2[H:17])([H:8])([H:9])[H:10]>>[C:1]([C@@:2]12[C:3]([H:11])([H:12])[C:4]([H:13])([H:15])[C@@:6]3([H:16])[C@:5]1([H:14])[C@@:7]23[H:17])([H:8])([H:9])[H:10]"
C        2.05129317       0.00439344       0.07582645
C        0.54551045      -0.00804442      -0.05563350
C       -0.32118832      -0.85922098       0.89607417
C       -1.55051902      -0.48009126       0.07458347
C        0.02811151      -0.66148915      -1.35033112
C       -1.48242074       1.03216052       0.04034427
C       -0.18908530       1.33941495       0.04183462
H        2.51200846       0.57375599      -0.73532936
H        2.35751245       0.45947380       1.02025235
H        2.44548878      -1.01147471       0.03368952
H       -0.36197448      -0.51796202       1.93134412
H       -0.07204357      -1.91865542       0.83081918
H       -2.51546069      -0.96393215       0.22662706
H       -0.18578086       0.08386523      -2.12973592
H       -1.19328107      -1.07520780      -0.99354401
H       -2.34204881       1.68616638       0.02915744
H        0.27387804       2.31684760       0.06402126
17
Frame=2 idx=008381 GeodesicLength=0.22597194119520575 rxn_smarts="[C:1]([C:2]12[C:3]([H:11])([H:12])[C:4]([H:13])([C:5]1([H:14])[H:15])[C:6]([H:16])=[C:7]2[H:17])([H:8])([H:9])[H:10]>>[C:1]([C@@:2]12[C:3]([H:11])([H:12])[C:4]([H:13])([H:15])[C@@:6]3([H:16])[C@:5]1([H:14])[C@@:7]23[H:17])([H:8])([H:9])[H:10]"
C        2.05548196      -0.00029278       0.07780818
C        0.54987567      -0.00651759      -0.04108763
C       -0.31882544      -0.86085591       0.90390115
C       -1.55087986      -0.48941368       0.08192200
C        0.00373689      -0.60989291      -1.34314656
C       -1.47999149       1.02159138       0.01914553
C       -0.18479361       1.33853081       0.03906413
H        2.51346464       0.57828512      -0.72827453
H        2.36863431       0.44154350       1.02630608
H        2.44533159      -1.01714517       0.01910524
H       -0.36054108      -0.52065869       1.93949704
H       -0.06526170      -1.91925033       0.83473372
H       -2.51731528      -0.96195111       0.25640711
H       -0.19185634       0.11977173      -2.13857224
H       -1.20202588      -1.10648566      -0.98997624
H       -2.33924741       1.67529576      -0.02558824
H        0.27421304       2.31744553       0.06875527
17
Frame=3 idx=008381 GeodesicLength=0.3391804320599036 rxn_smarts="[C:1]([C:2]12[C:3]([H:11])([H:12])[C:4]([H:13])([C:5]1([H:14])[H:15])[C:6]([H:16])=[C:7]2[H:17])([H:8])([H:9])[H:10]>>[C:1]([C@@:2]12[C:3]([H:11])([H:12])[C:4]([H:13])([H:15])[C@@:6]3([H:16])[C@:5]1([H:14])[C@@:7]23[H:17])([H:8])([H:9])[H:10]"
C        2.05904572      -0.00487778       0.07920618
C        0.55369301      -0.00476230      -0.02736419
C       -0.31687795      -0.86201193       0.91150415
C       -1.55130937      -0.49832948       0.08828730
C       -0.02068952      -0.55991144      -1.33446476
C       -1.47776673       1.01125768      -0.00071026
C       -0.18089759       1.33799551       0.03638763
H        2.51431941       0.58242071      -0.72201017
H        2.37923033       0.42391214       1.03139831
H        2.44439732      -1.02252308       0.00448001
H       -0.35951953      -0.52295462       1.94744117
H       -0.05907825      -1.91942739       0.83920178
H       -2.51893696      -0.95946273       0.28366860
H       -0.19522624       0.15250962      -2.14704158
H       -1.20828181      -1.13619463      -0.98735678
H       -2.33616945       1.66398573      -0.07567635
H        0.27406761       2.31837400       0.07304895
17
Frame=4 idx=008381 GeodesicLength=0.45249771474674494 rxn_smarts="[C:1]([C:2]12[C:3]([H:11])([H:12])[C:4]([H:13])([C:5]1([H:14])[H:15])[C:6]([H:16])=[C:7]2[H:17])([H:8])([H:9])[H:10]>>[C:1]([C@@:2]12[C:3]([H:11])([H:12])[C:4]([H:13])([H:15])[C@@:6]3([H:16])[C@:5]1([H:14])[C@@:7]23[H:17])([H:8])([H:9])[H:10]"
C        2.06201196      -0.00933250       0.08010721
C        0.55698708      -0.00279141      -0.01447962
C       -0.31529438      -0.86275567       0.91882421
C       -1.55179921      -0.50684569       0.09375168
C       -0.04494950      -0.51160367      -1.32452193
C       -1.47575796       1.00123223      -0.01915105
C       -0.17735600       1.33779982       0.03376738
H        2.51465715       0.58623072      -0.71640680
H        2.38924406       0.40660360       1.03565638
H        2.44277387      -1.02758239      -0.01007572
H       -0.35881473      -0.52494678       1.95513021
H       -0.05344107      -1.91925488       0.84406200
H       -2.52034553      -0.95654058       0.30863719
H       -0.19622433       0.18197506      -2.15497990
H       -1.21229732      -1.16427242      -0.98580687
H       -2.33291580       1.65246414      -0.12128352
H        0.27352171       2.31962043       0.07676917
17
Frame=5 idx=008381 GeodesicLength=0.5657723523977788 rxn_smarts="[C:1]([C:2]12[C:3]([H:11])([H:12])[C:4]([H:13])([C:5]1([H:14])[H:15])[C:6]([H:16])=[C:7]2[H:17])([H:8])([H:9])[H:10]>>[C:1]([C@@:2]12[C:3]([H:11])([H:12])[C:4]([H:13])([H:15])[C@@:6]3([H:16])[C@:5]1([H:14])[C@@:7]23[H:17])([H:8])([H:9])[H:10]"
C        2.06441401      -0.01363115       0.08058574
C        0.55978741      -0.00061623      -0.00245207
C       -0.31402218      -0.86315383       0.92580437
C       -1.55232899      -0.51496498       0.09836686
C       -0.06887114      -0.46501502      -1.31350985
C       -1.47397488       0.99157869      -0.03609065
C       -0.17412937       1.33793627       0.03118654
H        2.51455431       0.58977384      -0.71135574
H        2.39863530       0.38964366       1.03919149
H        2.44054963      -1.03230238      -0.02446801
H       -0.35833498      -0.52674155       1.96252170
H       -0.04830122      -1.91880035       0.84915911
H       -2.52154615      -0.95323467       0.33151733
H       -0.19518668       0.20805999      -2.16221640
H       -1.21427673      -1.19067042      -0.98540948
H       -2.32962710       1.64096459      -0.16266789
H        0.27265877       2.32117353       0.07983695
17
Frame=6 idx=008381 GeodesicLength=0.6790261320467735 rxn_smarts="[C:1]([C:2]12[C:3]([H:11])([H:12])[C:4]([H:13])([C:5]1([H:14])[H:15])[C:6]([H:16])=[C:7]2[H:17])([H:8])([H:9])[H:10]>>[C:1]([C@@:2]12[C:3]([H:11])([H:12])[C:4]([H:13])([H:15])[C@@:6]3([H:16])[C@:5]1([H:14])[C@@:7]23[H:17])([H:8])([H:9])[H:10]"
C        2.06630535      -0.01775590       0.08073007
C        0.56213929       0.00175284       0.00875388
C       -0.31301152      -0.86326657       0.93241358
C       -1.55287827      -0.52270448       0.10219394
C       -0.09231715      -0.42011620      -1.30163561
C       -1.47241821       0.98235232      -0.05153627
C       -0.17116580       1.33839320       0.02862542
H        2.51409956       0.59311555      -0.70672870
H        2.40739603       0.37303078       1.04213075
H        2.43782064      -1.03667117      -0.03862807
H       -0.35801102      -0.52842085       1.96959366
H       -0.04359792      -1.91811977       0.85436387
H       -2.52253651      -0.94959296       0.35255196
H       -0.19255407       0.23082266      -2.16861739
H       -1.21448308      -1.21547485      -0.98622404
H       -2.32635284       1.62963727      -0.20019041
H        0.27156552       2.32301812       0.08220338
17
Frame=7 idx=008381 GeodesicLength=0.7922170070973049 rxn_smarts="[C:1]([C:2]12[C:3]([H:11])([H:12])[C:4]([H:13])([C:5]1([H:14])[H:15])[C:6]([H:16])=[C:7]2[H:17])([H:8])([H:9])[H:10]>>[C:1]([C@@:2]12[C:3]([H:11])([H:12])[C:4]([H:13])([H:15])[C@@:6]3([H:16])[C@:5]1([H:14])[C@@:7]23[H:17])([H:8])([H:9])[H:10]"
C        2.06773863      -0.02169433       0.08061259
C        0.56408843       0.00431157       0.01917732
C       -0.31221848      -0.86314368       0.93862898
C       -1.55342016      -0.53007893       0.10527378
C       -0.11519308      -0.37687099      -1.28906026
C       -1.47109124       0.97360008      -0.06551011
C       -0.16841431       1.33916380       0.02608138
H        2.51337122       0.59630505      -0.70242113
H        2.41553604       0.35675952       1.04458075
H        2.43467534      -1.04068772      -0.05250291
H       -0.35779258      -0.53005359       1.97632960
H       -0.03927673      -1.91725816       0.85957034
H       -2.52330200      -0.94565504       0.37193787
H       -0.18874450       0.25033418      -2.17407467
H       -1.21312937      -1.23878548      -0.98827110
H       -2.32315455       1.61860938      -0.23421260
H        0.27032733       2.32514432       0.08386018
17
Frame=8 idx=008381 GeodesicLength=0.9053868695592292 rxn_smarts="[C:1]([C:2]12[C:3]([H:11])([H:12])[C:4]([H:13])([C:5]1([H:14])[H:15])[C:6]([H:16])=[C:7]2[H:17])([H:8])([H:9])[H:10]>>[C:1]([C@@:2]12[C:3]([H:11])([H:12])[C:4]([H:13])([H:15])[C@@:6]3([H:16])[C@:5]1([H:14])[C@@:7]23[H:17])([H:8])([H:9])[H:10]"
C        2.06876631      -0.02543883       0.08029603
C        0.56567853       0.00705542       0.02887682
C       -0.31160930      -0.86282742       0.94444221
C       -1.55393055      -0.53710760       0.10763598
C       -0.13744156      -0.33520550      -1.27593332
C       -1.46998212       0.96534847      -0.07807655
C       -0.16583106       1.34023872       0.02354788
H        2.51243373       0.59938718      -0.69834494
H        2.42307994       0.34081763       1.04663374
H        2.43118644      -1.04435038      -0.06606767
H       -0.35764989      -0.53169221       1.98272508
H       -0.03528723      -1.91625107       0.86470106
H       -2.52382793      -0.94143331       0.38985267
H       -0.18411001       0.26673052      -2.17850779
H       -1.21043083      -1.26077651      -0.99152706
H       -2.32004937       1.60796486      -0.26507530
H        0.26900490       2.32754003       0.08482116
17
Frame=9 idx=008381 GeodesicLength=1.018984184895743 rxn_smarts="[C:1]([C:2]12[C:3]([H:11])([H:12])[C:4]([H:13])([C:5]1([H:14])[H:15])[C:6]([H:16])=[C:7]2[H:17])([H:8])([H:9])[H:10]>>[C:1]([C@@:2]12[C:3]([H:11])([H:12])[C:4]([H:13])([H:15])[C@@:6]3([H:16])[C@:5]1([H:14])[C@@:7]23[H:17])([H:8])([H:9])[H:10]"
C        2.06945236      -0.02899281       0.07982863
C        0.56697510       0.00999404       0.03792477
C       -0.31114552      -0.86237418       0.94982798
C       -1.55434105      -0.54375356       0.10927951
C       -0.15906932      -0.29490318      -1.26243334
C       -1.46907078       0.95754515      -0.08935378
C       -0.16336737       1.34160121       0.02105790
H        2.51133882       0.60240779      -0.69442918
H        2.43009662       0.32517206       1.04836274
H        2.42741150      -1.04767680      -0.07934525
H       -0.35754927      -0.53343016       1.98876340
H       -0.03160216      -1.91514823       0.86963411
H       -2.52406069      -0.93676240       0.40658199
H       -0.17885305       0.28039243      -2.18185663
H       -1.20674134      -1.28190607      -0.99567734
H       -2.31710334       1.59764182      -0.29340081
H        0.26762948       2.33019291       0.08523531
17
Frame=10 idx=008381 GeodesicLength=1.132536315377957 rxn_smarts="[C:1]([C:2]12[C:3]([H:11])([H:12])[C:4]([H:13])([C:5]1([H:14])[H:15])[C:6]([H:16])=[C:7]2[H:17])([H:8])([H:9])[H:10]>>[C:1]([C@@:2]12[C:3]([H:11])([H:12])[C:4]([H:13])([H:15])[C@@:6]3([H:16])[C@:5]1([H:14])[C@@:7]23[H:17])([H:8])([H:9])[H:10]"
C        2.06982595      -0.03235688       0.07925156
C        0.56799004       0.01310375       0.04636640
C       -0.31081102      -0.86178659       0.95482825
C       -1.55469130      -0.55009776       0.11028900
C       -0.18002967      -0.25600963      -1.24859660
C       -1.46836755       0.95028217      -0.09937524
C       -0.16099569       1.34325041       0.01858967
H        2.51013346       0.60538505      -0.69061507
H        2.43658273       0.30980980       1.04982947
H        2.42341043      -1.05067085      -0.09230612
H       -0.35748135      -0.53523573       1.99447755
H       -0.02816295      -1.91394722       0.87438930
H       -2.52403170      -0.93189590       0.42210490
H       -0.17338728       0.29121806      -2.18406546
H       -1.20198534      -1.30197843      -1.00095257
H       -2.31428616       1.58783843      -0.31924408
H        0.26628739       2.33309133       0.08502905
17
Frame=11 idx=008381 GeodesicLength=1.2460287070869787 rxn_smarts="[C:1]([C:2]12[C:3]([H:11])([H:12])[C:4]([H:13])([C:5]1([H:14])[H:15])[C:6]([H:16])=[C:7]2[H:17])([H:8])([H:9])[H:10]>>[C:1]([C@@:2]12[C:3]([H:11])([H:12])[C:4]([H:13])([H:15])[C@@:6]3([H:16])[C@:5]1([H:14])[C@@:7]23[H:17])([H:8])([H:9])[H:10]"
C        2.06992810      -0.03553743       0.07860060
C        0.56876258       0.01638192       0.05425047
C       -0.31058276      -0.86108328       0.95945142
C       -1.55495888      -0.55615268       0.11069009
C       -0.20032052      -0.21843652      -1.23449082
C       -1.46786943       0.94356355      -0.10822170
C       -0.15867864       1.34517925       0.01615687
H        2.50886104       0.60833448      -0.68685458
H        2.44257385       0.29471124       1.05108687
H        2.41923045      -1.05335405      -0.10494511
H       -0.35743580      -0.53712783       1.99987338
H       -0.02493744      -1.91266372       0.87893374
H       -2.52371926      -0.92686063       0.43651329
H       -0.16797768       0.29934921      -2.18512938
H       -1.19626884      -1.32113116      -1.00728388
H       -2.31164090       1.57859973      -0.34288832
H        0.26503413       2.33622792       0.08425706
17
Frame=12 idx=008381 GeodesicLength=1.3595063733846657 rxn_smarts="[C:1]([C:2]12[C:3]([H:11])([H:12])[C:4]([H:13])([C:5]1([H:14])[H:15])[C:6]([H:16])=[C:7]2[H:17])([H:8])([H:9])[H:10]>>[C:1]([C@@:2]12[C:3]([H:11])([H:12])[C:4]([H:13])([H:15])[C@@:6]3([H:16])[C@:5]1([H:14])[C@@:7]23[H:17])([H:8])([H:9])[H:10]"
C        2.06979386      -0.03854187       0.07789970
C        0.56932436       0.01982436       0.06163632
C       -0.31044672      -0.86027737       0.96371807
C       -1.55513446      -0.56193319       0.11051663
C       -0.21996628      -0.18207504      -1.22017385
C       -1.46756610       0.93738556      -0.11599698
C       -0.15639087       1.34738094       0.01376407
H        2.50755165       0.61127486      -0.68310827
H        2.44810694       0.27984699       1.05217300
H        2.41489993      -1.05574033      -0.11728673
H       -0.35741060      -0.53911275       2.00496838
H       -0.02190047      -1.91130538       0.88325010
H       -2.52311917      -0.92168589       0.44989156
H       -0.16281169       0.30491787      -2.18504547
H       -1.18967183      -1.33949065      -1.01460870
H       -2.30916114       1.56993759      -0.36457370
H        0.26390261       2.33959431       0.08297588
17
Frame=13 idx=008381 GeodesicLength=1.4729380430570258 rxn_smarts="[C:1]([C:2]12[C:3]([H:11])([H:12])[C:4]([H:13])([C:5]1([H:14])[H:15])[C:6]([H:16])=[C:7]2[H:17])([H:8])([H:9])[H:10]>>[C:1]([C@@:2]12[C:3]([H:11])([H:12])[C:4]([H:13])([H:15])[C@@:6]3([H:16])[C@:5]1([H:14])[C@@:7]23[H:17])([H:8])([H:9])[H:10]"
C        2.06945289      -0.04137625       0.07717524
C        0.56969934       0.02342520       0.06856650
C       -0.31039111      -0.85938042       0.96764158
C       -1.55520892      -0.56744919       0.10978931
C       -0.23898090      -0.14684545      -1.20569387
C       -1.46744170       0.93174672      -0.12275957
C       -0.15410701       1.34984718       0.01140972
H        2.50623036       0.61421136      -0.67935297
H        2.45320846       0.26521112       1.05312473
H        2.41045351      -1.05784355      -0.12932280
H       -0.35740325      -0.54119669       2.00977194
H       -0.01902998      -1.90988068       0.88732568
H       -2.52222699      -0.91641321       0.46228481
H       -0.15807434       0.30805142      -2.18381585
H       -1.18227156      -1.35716407      -1.02287125
H       -2.30683803       1.56187258      -0.38448574
H        0.26292923       2.34318395       0.08121254
17
Frame=14 idx=008381 GeodesicLength=1.5864385305672761 rxn_smarts="[C:1]([C:2]12[C:3]([H:11])([H:12])[C:4]([H:13])([C:5]1([H:14])[H:15])[C:6]([H:16])=[C:7]2[H:17])([H:8])([H:9])[H:10]>>[C:1]([C@@:2]12[C:3]([H:11])([H:12])[C:4]([H:13])([H:15])[C@@:6]3([H:16])[C@:5]1([H:14])[C@@:7]23[H:17])([H:8])([H:9])[H:10]"
C        2.06893014      -0.04405004       0.07643279
C        0.56991219       0.02718587       0.07509985
C       -0.31040609      -0.85839897       0.97124781
C       -1.55517447      -0.57271299       0.10854133
C       -0.25741457      -0.11262267      -1.19108154
C       -1.46748274       0.92663479      -0.12862820
C       -0.15180578       1.35257738       0.00912347
H        2.50490959       0.61716083      -0.67556815
H        2.45792270       0.25076365       1.05395496
H        2.40589919      -1.05967791      -0.14110597
H       -0.35741870      -0.54337948       2.01430619
H       -0.01630532      -1.90839128       0.89115606
H       -2.52104618      -0.91106590       0.47375889
H       -0.15387787       0.30886318      -2.18143625
H       -1.17411801      -1.37427307      -1.03198908
H       -2.30465530       1.55439297      -0.40286358
H        0.26213123       2.34699363       0.07905142
17
Frame=15 idx=008381 GeodesicLength=1.7000345439830353 rxn_smarts="[C:1]([C:2]12[C:3]([H:11])([H:12])[C:4]([H:13])([C:5]1([H:14])[H:15])[C:6]([H:16])=[C:7]2[H:17])([H:8])([H:9])[H:10]>>[C:1]([C@@:2]12[C:3]([H:11])([H:12])[C:4]([H:13])([H:15])[C@@:6]3([H:16])[C@:5]1([H:14])[C@@:7]23[H:17])([H:8])([H:9])[H:10]"
C        2.06824632      -0.04656973       0.07568270
C        0.56998027       0.03110082       0.08127311
C       -0.31048325      -0.85734029       0.97455427
C       -1.55502649      -0.57773000       0.10679896
C       -0.27529740      -0.07931832      -1.17636001
C       -1.46767211       0.92204107      -0.13367366
C       -0.14946933       1.35556755       0.00691999
H        2.50360148       0.62012955      -0.67174235
H        2.46227853       0.23648944       1.05468094
H        2.40125647      -1.06125541      -0.15265230
H       -0.35745443      -0.54566329       2.01858498
H       -0.01371119      -1.90684175       0.89473595
H       -2.51958274      -0.90568055       0.48435140
H       -0.15034257       0.30745803      -2.17790316
H       -1.16525826      -1.39090916      -1.04189982
H       -2.30259604       1.54750277      -0.41989026
H        0.26153073       2.35101927       0.07653926
17
Frame=16 idx=008381 GeodesicLength=1.8137570927557825 rxn_smarts="[C:1]([C:2]12[C:3]([H:11])([H:12])[C:4]([H:13])([C:5]1([H:14])[H:15])[C:6]([H:16])=[C:7]2[H:17])([H:8])([H:9])[H:10]>>[C:1]([C@@:2]12[C:3]([H:11])([H:12])[C:4]([H:13])([H:15])[C@@:6]3([H:16])[C@:5]1([H:14])[C@@:7]23[H:17])([H:8])([H:9])[H:10]"
C        2.06741927      -0.04894044       0.07493426
C        0.56992051       0.03516874       0.08712181
C       -0.31061759      -0.85620808       0.97757453
C       -1.55475801      -0.58250009       0.10457729
C       -0.29266083      -0.04684824      -1.16155144
C       -1.46799204       0.91795772      -0.13796273
C       -0.14708112       1.35881550       0.00480472
H        2.50231786       0.62312212      -0.66786405
H        2.46630029       0.22237457       1.05531583
H        2.39653719      -1.06258455      -0.16397715
H       -0.35751502      -0.54804721       2.02261850
H       -0.01123695      -1.90523320       0.89806040
H       -2.51784387      -0.90029081       0.49408024
H       -0.14757134       0.30391511      -2.17320423
H       -1.15572555      -1.40715953      -1.05254496
H       -2.30063832       1.54119970      -0.43569017
H        0.26114554       2.35525870       0.07370717
