14
Frame=0 idx=010951 GeodesicLength=0.0 rxn_smarts="[C:1]([c:2]1[c:3]([N:4]([H:11])[H:12])[c:5]([H:13])[c:6]([H:14])[o:7]1)([H:8])([H:9])[H:10]>>[C:1]([C@@:5]1([H:13])[C:3]([N:4]([H:11])[H:12])=[C:2]=[O+:7][C-:6]1[H:14])([H:8])([H:9])[H:10]"
C       -0.85075363      -0.83350212      -0.67061053
C       -0.07447192       0.12388045       1.71006013
C       -0.10697570       0.65807541       0.38764374
N       -0.81586957       1.79411559       0.02624886
C        0.85628110      -0.07829061      -0.43882177
C        1.47840422      -0.94205159       0.43615219
O        0.89443297      -0.82331869       1.63886794
H       -1.73936497      -0.21693989      -0.77289367
H       -0.55833274      -1.21486717      -1.64582344
H       -0.96410410      -1.63729880       0.04834445
H       -0.26230545       2.50448357      -0.42564552
H       -1.30877171       2.16809304       0.82442269
H        1.20417715       0.18140023      -1.42643888
H        2.24765430      -1.68377948       0.30849379
14
Frame=1 idx=010951 GeodesicLength=0.09509259286738188 rxn_smarts="[C:1]([c:2]1[c:3]([N:4]([H:11])[H:12])[c:5]([H:13])[c:6]([H:14])[o:7]1)([H:8])([H:9])[H:10]>>[C:1]([C@@:5]1([H:13])[C:3]([N:4]([H:11])[H:12])=[C:2]=[O+:7][C-:6]1[H:14])([H:8])([H:9])[H:10]"
C       -0.86325885      -0.84472847      -0.66033881
C       -0.10104388       0.09945671       1.68843201
C       -0.09138998       0.67191650       0.38754672
N       -0.80203632       1.80672803       0.02273648
C        0.86065777      -0.07396621      -0.44227632
C        1.48931305      -0.93294329       0.43561483
O        0.89457178      -0.83137142       1.63094059
H       -1.74919369      -0.22523835      -0.77122893
H       -0.57889678      -1.23998678      -1.63300452
H       -0.99102413      -1.65331787       0.05131902
H       -0.24116330       2.52392457      -0.40914257
H       -1.31439446       2.16860894       0.81418090
H        1.21806283       0.19469517      -1.42430159
H        2.26979594      -1.66377753       0.30952218
14
Frame=2 idx=010951 GeodesicLength=0.19017575136282458 rxn_smarts="[C:1]([c:2]1[c:3]([N:4]([H:11])[H:12])[c:5]([H:13])[c:6]([H:14])[o:7]1)([H:8])([H:9])[H:10]>>[C:1]([C@@:5]1([H:13])[C:3]([N:4]([H:11])[H:12])=[C:2]=[O+:7][C-:6]1[H:14])([H:8])([H:9])[H:10]"
C       -0.87602447      -0.85630328      -0.65005597
C       -0.12538803       0.07651902       1.66577950
C       -0.07581884       0.68531371       0.38802941
N       -0.78812766       1.81893503       0.01955959
C        0.86497153      -0.06952385      -0.44579501
C        1.50000178      -0.92395549       0.43495260
O        0.89430698      -0.83992490       1.62252219
H       -1.75900671      -0.23377476      -0.77042736
H       -0.59944925      -1.26562197      -1.61974842
H       -1.01979143      -1.66900724       0.05442616
H       -0.22050719       2.54279895      -0.39214864
H       -1.31993054       2.16875101       0.80353152
H        1.23285686       0.20918069      -1.42137187
H        2.29190697      -1.64338691       0.31074630
14
Frame=3 idx=010951 GeodesicLength=0.2849440733263908 rxn_smarts="[C:1]([c:2]1[c:3]([N:4]([H:11])[H:12])[c:5]([H:13])[c:6]([H:14])[o:7]1)([H:8])([H:9])[H:10]>>[C:1]([C@@:5]1([H:13])[C:3]([N:4]([H:11])[H:12])=[C:2]=[O+:7][C-:6]1[H:14])([H:8])([H:9])[H:10]"
C       -0.88783950      -0.86841818      -0.63950193
C       -0.14730470       0.05569097       1.64237013
C       -0.06020961       0.69886872       0.38919807
N       -0.77480683       1.83071279       0.01666280
C        0.86977729      -0.06380815      -0.44903712
C        1.51147973      -0.91340634       0.43454811
O        0.89465621      -0.84751125       1.61387286
H       -1.76786883      -0.24338958      -0.77051413
H       -0.61839928      -1.29202428      -1.60559913
H       -1.04877948      -1.68435493       0.05804962
H       -0.20158771       2.56141021      -0.37486526
H       -1.32621838       2.16824202       0.79229993
H        1.24898612       0.22604656      -1.41718121
H        2.30811500      -1.62805854       0.30969724
14
Frame=4 idx=010951 GeodesicLength=0.37965112561404923 rxn_smarts="[C:1]([c:2]1[c:3]([N:4]([H:11])[H:12])[c:5]([H:13])[c:6]([H:14])[o:7]1)([H:8])([H:9])[H:10]>>[C:1]([C@@:5]1([H:13])[C:3]([N:4]([H:11])[H:12])=[C:2]=[O+:7][C-:6]1[H:14])([H:8])([H:9])[H:10]"
C       -0.89939208      -0.88099499      -0.62881375
C       -0.16721474       0.03645003       1.61838829
C       -0.04461827       0.71234972       0.39097593
N       -0.76180961       1.84222228       0.01400339
C        0.87483657      -0.05742629      -0.45222821
C        1.52329049      -0.90229187       0.43420687
O        0.89519016      -0.85505975       1.60492484
H       -1.77633584      -0.25361088      -0.77152719
H       -0.63652976      -1.31915996      -1.59079940
H       -1.07893317      -1.69921953       0.06216806
H       -0.18378240       2.57976081      -0.35730155
H       -1.33288606       2.16739844       0.78054611
H        1.26629463       0.24463610      -1.41199225
H        2.32189008      -1.61505411       0.30744885
14
Frame=5 idx=010951 GeodesicLength=0.4743017071101206 rxn_smarts="[C:1]([c:2]1[c:3]([N:4]([H:11])[H:12])[c:5]([H:13])[c:6]([H:14])[o:7]1)([H:8])([H:9])[H:10]>>[C:1]([C@@:5]1([H:13])[C:3]([N:4]([H:11])[H:12])=[C:2]=[O+:7][C-:6]1[H:14])([H:8])([H:9])[H:10]"
C       -0.91095090      -0.89404739      -0.61802871
C       -0.18533719       0.01854983       1.59382724
C       -0.02901958       0.72566474       0.39332022
N       -0.74889832       1.85346988       0.01162151
C        0.87998507      -0.05058794      -0.45544259
C        1.53511980      -0.89094772       0.43376188
O        0.89573524      -0.86284718       1.59548821
H       -1.78444148      -0.26429598      -0.77363520
H       -0.65415206      -1.34724599      -1.57526155
H       -1.11073046      -1.71341012       0.06677832
H       -0.16675870       2.59782245      -0.33931563
H       -1.33965987       2.16620895       0.76826961
H        1.28459114       0.26467914      -1.40577333
H        2.33451730      -1.60301267       0.30439001
14
Frame=6 idx=010951 GeodesicLength=0.5689032637864444 rxn_smarts="[C:1]([c:2]1[c:3]([N:4]([H:11])[H:12])[c:5]([H:13])[c:6]([H:14])[o:7]1)([H:8])([H:9])[H:10]>>[C:1]([C@@:5]1([H:13])[C:3]([N:4]([H:11])[H:12])=[C:2]=[O+:7][C-:6]1[H:14])([H:8])([H:9])[H:10]"
C       -0.92265288      -0.90758567      -0.60716500
C       -0.20185205       0.00183136       1.56871867
C       -0.01339854       0.73877848       0.39620490
N       -0.73597956       1.86446826       0.00952521
C        0.88516835      -0.04336777      -0.45872882
C        1.54685607      -0.87952802       0.43312821
O        0.89625439      -0.87100129       1.58547017
H       -1.79221083      -0.27540350      -0.77691391
H       -0.67140619      -1.37638320      -1.55892961
H       -1.14436752      -1.72677769       0.07189482
H       -0.15037009       2.61558431      -0.32084805
H       -1.34640991       2.16468775       0.75546193
H        1.30378330       0.28603281      -1.39850061
H        2.34658545      -1.59133583       0.30068207
14
Frame=7 idx=010951 GeodesicLength=0.6634594854728122 rxn_smarts="[C:1]([c:2]1[c:3]([N:4]([H:11])[H:12])[c:5]([H:13])[c:6]([H:14])[o:7]1)([H:8])([H:9])[H:10]>>[C:1]([C@@:5]1([H:13])[C:3]([N:4]([H:11])[H:12])=[C:2]=[O+:7][C-:6]1[H:14])([H:8])([H:9])[H:10]"
C       -0.93456475      -0.92162646      -0.59622705
C       -0.21691062      -0.01381903       1.54309204
C        0.00225698       0.75168783       0.39961818
N       -0.72300824       1.87524101       0.00772928
C        0.89037214      -0.03577269      -0.46211930
C        1.55845148      -0.86810504       0.43224531
O        0.89676118      -0.87956595       1.57480851
H       -1.79961136      -0.28693342      -0.78144628
H       -0.68833830      -1.40668211      -1.54172052
H       -1.17993088      -1.73918086       0.07753821
H       -0.13455604       2.63306423      -0.30185370
H       -1.35307028       2.16284848       0.74212018
H        1.32379511       0.30860889      -1.39015026
H        2.35835358      -1.57976488       0.29636540
14
Frame=8 idx=010951 GeodesicLength=0.7579731865049575 rxn_smarts="[C:1]([c:2]1[c:3]([N:4]([H:11])[H:12])[c:5]([H:13])[c:6]([H:14])[o:7]1)([H:8])([H:9])[H:10]>>[C:1]([C@@:5]1([H:13])[C:3]([N:4]([H:11])[H:12])=[C:2]=[O+:7][C-:6]1[H:14])([H:8])([H:9])[H:10]"
C       -0.94671534      -0.93618921      -0.58521126
C       -0.23064337      -0.02848219       1.51696711
C        0.01795505       0.76440657       0.40355505
N       -0.70996532       1.88581442       0.00624476
C        0.89560589      -0.02776733      -0.46563207
C        1.56989406      -0.85669824       0.43107357
O        0.89729075      -0.88853115       1.56345996
H       -1.80658577      -0.29892147      -0.78730414
H       -0.70494491      -1.43824173      -1.52353637
H       -1.21742326      -1.75048914       0.08372409
H       -0.11929160       2.65029090      -0.28227946
H       -1.35961108       2.16070057       0.72823049
H        1.34455760       0.33234590      -1.38069664
H        2.36987731      -1.56823789       0.29140492
14
Frame=9 idx=010951 GeodesicLength=0.8524451988247698 rxn_smarts="[C:1]([c:2]1[c:3]([N:4]([H:11])[H:12])[c:5]([H:13])[c:6]([H:14])[o:7]1)([H:8])([H:9])[H:10]>>[C:1]([C@@:5]1([H:13])[C:3]([N:4]([H:11])[H:12])=[C:2]=[O+:7][C-:6]1[H:14])([H:8])([H:9])[H:10]"
C       -0.95912460      -0.95129102      -0.57411293
C       -0.24316813      -0.04222834       1.49035068
C        0.03370021       0.77695042       0.40801806
N       -0.69683587       1.89621718       0.00509338
C        0.90088485      -0.01930400      -0.46927712
C        1.58117301      -0.84532171       0.42957693
O        0.89787524      -0.89787381       1.55138640
H       -1.81305333      -0.31141175      -0.79457420
H       -0.72121263      -1.47116604      -1.50426000
H       -1.25682692      -1.76056562       0.09045216
H       -0.10456715       2.66729355      -0.26207150
H       -1.36600388       2.15825494       0.71378716
H        1.36598404       0.35717562      -1.37012580
H        2.38117516      -1.55672942       0.28575678
14
Frame=10 idx=010951 GeodesicLength=0.9468794542614695 rxn_smarts="[C:1]([c:2]1[c:3]([N:4]([H:11])[H:12])[c:5]([H:13])[c:6]([H:14])[o:7]1)([H:8])([H:9])[H:10]>>[C:1]([C@@:5]1([H:13])[C:3]([N:4]([H:11])[H:12])=[C:2]=[O+:7][C-:6]1[H:14])([H:8])([H:9])[H:10]"
C       -0.97181322      -0.96694503      -0.56292899
C       -0.25459820      -0.05511951       1.46323984
C        0.04949110       0.78933316       0.41301443
N       -0.68360963       1.90647994       0.00429824
C        0.90623012      -0.01032810      -0.47305676
C        1.59228183      -0.83398737       0.42772907
O        0.89853882      -0.90756596       1.53855961
H       -1.81893752      -0.32446339      -0.80332764
H       -0.73713563      -1.50553231      -1.48377555
H       -1.29808586      -1.76928616       0.09769817
H       -0.09037518       2.68409547      -0.24118080
H       -1.37221744       2.15553376       0.69878780
H        1.38797904       0.38301809      -1.35844043
H        2.39225176      -1.54523260       0.27938301
14
Frame=11 idx=010951 GeodesicLength=1.0412735552206431 rxn_smarts="[C:1]([c:2]1[c:3]([N:4]([H:11])[H:12])[c:5]([H:13])[c:6]([H:14])[o:7]1)([H:8])([H:9])[H:10]>>[C:1]([C@@:5]1([H:13])[C:3]([N:4]([H:11])[H:12])=[C:2]=[O+:7][C-:6]1[H:14])([H:8])([H:9])[H:10]"
C       -0.98479564      -0.98316392      -0.55165607
C       -0.26503820      -0.06720680       1.43561636
C        0.06532155       0.80156803       0.41855604
N       -0.67027381       1.91663576       0.00389230
C        0.91166207      -0.00077957      -0.47696455
C        1.60320592      -0.82270504       0.42550504
O        0.89929394      -0.91757159       1.52494967
H       -1.82413923      -0.33815139      -0.81363957
H       -0.75271033      -1.54141937      -1.46194829
H       -1.34112268      -1.77652747       0.10541614
H       -0.07671181       2.70071890      -0.21955306
H       -1.37821183       2.15256436       0.68323620
H        1.41042934       0.40978635      -1.34565594
H        2.40309071      -1.53374826       0.27224573
14
Frame=12 idx=010951 GeodesicLength=1.1355955706034635 rxn_smarts="[C:1]([c:2]1[c:3]([N:4]([H:11])[H:12])[c:5]([H:13])[c:6]([H:14])[o:7]1)([H:8])([H:9])[H:10]>>[C:1]([C@@:5]1([H:13])[C:3]([N:4]([H:11])[H:12])=[C:2]=[O+:7][C-:6]1[H:14])([H:8])([H:9])[H:10]"
C       -0.99806437      -0.99996523      -0.54028857
C       -0.27458176      -0.07852027       1.40743159
C        0.08117857       0.81366952       0.42465820
N       -0.65680716       1.92671565       0.00393164
C        0.91718715       0.00940218      -0.48098193
C        1.61390033      -0.81147604       0.42286854
O        0.90012628      -0.92783686       1.51049867
H       -1.82849514      -0.35257393      -0.82560374
H       -0.76791796      -1.57894191      -1.43859731
H       -1.38584552      -1.78214583       0.11353812
H       -0.06358061       2.71717768      -0.19711805
H       -1.38391869       2.14938116       0.66715436
H        1.43319023       0.43738408      -1.33178379
H        2.41362863      -1.52227021       0.26429228
14
Frame=13 idx=010951 GeodesicLength=1.2298585642830164 rxn_smarts="[C:1]([c:2]1[c:3]([N:4]([H:11])[H:12])[c:5]([H:13])[c:6]([H:14])[o:7]1)([H:8])([H:9])[H:10]>>[C:1]([C@@:5]1([H:13])[C:3]([N:4]([H:11])[H:12])=[C:2]=[O+:7][C-:6]1[H:14])([H:8])([H:9])[H:10]"
C       -1.01165401      -1.01733228      -0.52882345
C       -0.28333217      -0.08911099       1.37864976
C        0.09703787       0.82562910       0.43132067
N       -0.64321032       1.93676365       0.00441749
C        0.92283684       0.02026800      -0.48509726
C        1.62437882      -0.80033621       0.41981733
O        0.90104704      -0.93835579       1.49519864
H       -1.83197680      -0.36781651      -0.83919963
H       -0.78282907      -1.61805854      -1.41360941
H       -1.43208032      -1.78606052       0.12198520
H       -0.05096123       2.73348645      -0.17380214
H       -1.38934261       2.14602519       0.65048381
H        1.45617831       0.46571414      -1.31687390
H        2.42390765      -1.51081570       0.25553287
14
Frame=14 idx=010951 GeodesicLength=1.3241234483212687 rxn_smarts="[C:1]([c:2]1[c:3]([N:4]([H:11])[H:12])[c:5]([H:13])[c:6]([H:14])[o:7]1)([H:8])([H:9])[H:10]>>[C:1]([C@@:5]1([H:13])[C:3]([N:4]([H:11])[H:12])=[C:2]=[O+:7][C-:6]1[H:14])([H:8])([H:9])[H:10]"
C       -1.02562976      -1.03529225      -0.51725085
C       -0.29135842      -0.09900899       1.34923872
C        0.11289682       0.83744268       0.43856085
N       -0.62942173       1.94681897       0.00541251
C        0.92862600       0.03187848      -0.48932936
C        1.63462261      -0.78928403       0.41629820
O        0.90204714      -0.94909611       1.47900995
H       -1.83442521      -0.38402314      -0.85464963
H       -0.79749793      -1.65898238      -1.38670518
H       -1.47990909      -1.78807702       0.13069577
H       -0.03878049       2.74968759      -0.14940979
H       -1.39445995       2.14247013       0.63319954
H        1.47929646       0.49473755      -1.30100270
H        2.43399355      -1.49927149       0.24593198
14
Frame=15 idx=010951 GeodesicLength=1.4184821474203855 rxn_smarts="[C:1]([c:2]1[c:3]([N:4]([H:11])[H:12])[c:5]([H:13])[c:6]([H:14])[o:7]1)([H:8])([H:9])[H:10]>>[C:1]([C@@:5]1([H:13])[C:3]([N:4]([H:11])[H:12])=[C:2]=[O+:7][C-:6]1[H:14])([H:8])([H:9])[H:10]"
C       -1.04003212      -1.05384841      -0.50555065
C       -0.29875575      -0.10827471       1.31914712
C        0.12872430       0.84910539       0.44637943
N       -0.61545675       1.95697403       0.00694916
C        0.93460849       0.04429997      -0.49368099
C        1.64467528      -0.77837278       0.41227818
O        0.90313570      -0.96010647       1.46189794
H       -1.83571600      -0.40131514      -0.87205752
H       -0.81199747      -1.70180818      -1.35760666
H       -1.52930571      -1.78804352       0.13960137
H       -0.02705354       2.76586084      -0.12381582
H       -1.39931326       2.13878058       0.61524483
H        1.50251834       0.52443738      -1.28424342
H        2.44396850      -1.48768897       0.23545703
14
Frame=16 idx=010951 GeodesicLength=1.512652144179045 rxn_smarts="[C:1]([c:2]1[c:3]([N:4]([H:11])[H:12])[c:5]([H:13])[c:6]([H:14])[o:7]1)([H:8])([H:9])[H:10]>>[C:1]([C@@:5]1([H:13])[C:3]([N:4]([H:11])[H:12])=[C:2]=[O+:7][C-:6]1[H:14])([H:8])([H:9])[H:10]"
C       -1.05480329      -1.07300140      -0.49372267
C       -0.30557686      -0.11678696       1.28820710
C        0.14447571       0.86059384       0.45476244
N       -0.60118050       1.96716517       0.00909061
C        0.94068458       0.05754692      -0.49809721
C        1.65431214      -0.76750649       0.40771763
O        0.90416928      -0.97113673       1.44372563
H       -1.83567186      -0.41999705      -0.89120238
H       -0.82644290      -1.74640571      -1.32619994
H       -1.57977387      -1.78595867       0.14843473
H       -0.01568451       2.78182949      -0.09681103
H       -1.40364940       2.13496712       0.59652490
H        1.52562523       0.55460872      -1.26651869
H        2.45351626      -1.47591824       0.22408888
