13
Frame=0 idx=001195 GeodesicLength=0.0 rxn_smarts="[C:1]([C:2](=[O:3])[N:4]1[C:5]([H:10])([H:11])[C:6]1([H:12])[H:13])([H:7])([H:8])[H:9]>>[C:1]([C:2]1=[N+:4]([C-:5]([H:10])[H:11])[C:6]([H:12])([H:13])[O:3]1)([H:7])([H:8])[H:9]"
C        1.91398629      -0.11566664      -0.24618652
C        0.61127311       0.42048892       0.17656378
O        0.39830849       1.52463588       0.80363385
N       -0.58531230      -0.09513772       0.00824781
C       -1.45297121      -1.10403365      -0.47777007
C       -1.28695430       0.93474698       0.63928416
H        2.39665242       0.58276710      -0.93001414
H        2.56004477      -0.24162812       0.62270263
H        1.76194400      -1.07604093      -0.74098179
H       -1.36531902      -2.04599725       0.05592017
H       -1.47187154      -1.17708679      -1.56141139
H       -1.66301715       0.75156253       1.64032989
H       -1.81676351       1.64138963       0.00968159
13
Frame=1 idx=001195 GeodesicLength=0.05740347279297365 rxn_smarts="[C:1]([C:2](=[O:3])[N:4]1[C:5]([H:10])([H:11])[C:6]1([H:12])[H:13])([H:7])([H:8])[H:9]>>[C:1]([C:2]1=[N+:4]([C-:5]([H:10])[H:11])[C:6]([H:12])([H:13])[O:3]1)([H:7])([H:8])[H:9]"
C        1.92055171      -0.10847953      -0.25614299
C        0.62126639       0.41126058       0.19763098
O        0.39849227       1.52021689       0.81392549
N       -0.56898222      -0.12858772       0.05503828
C       -1.45711653      -1.09034149      -0.47743839
C       -1.29187043       0.91796189       0.63662278
H        2.38232877       0.59764612      -0.94667324
H        2.58481046      -0.22980889       0.59976606
H        1.77265177      -1.06941203      -0.75102141
H       -1.44954773      -2.02980672       0.06718660
H       -1.42207041      -1.17041548      -1.55993411
H       -1.69156377       0.75496591       1.63208781
H       -1.79895028       1.62480046      -0.01104786
13
Frame=2 idx=001195 GeodesicLength=0.11380719966106748 rxn_smarts="[C:1]([C:2](=[O:3])[N:4]1[C:5]([H:10])([H:11])[C:6]1([H:12])[H:13])([H:7])([H:8])[H:9]>>[C:1]([C:2]1=[N+:4]([C-:5]([H:10])[H:11])[C:6]([H:12])([H:13])[O:3]1)([H:7])([H:8])[H:9]"
C        1.92548877      -0.10229110      -0.26560463
C        0.63035106       0.40272488       0.21729036
O        0.39854092       1.51670836       0.82261459
N       -0.55380796      -0.15968377       0.10034265
C       -1.45720429      -1.07661482      -0.47650074
C       -1.29674581       0.90117378       0.63412325
H        2.36739684       0.61015417      -0.96292822
H        2.60672069      -0.21874604       0.57771018
H        1.78094640      -1.06414313      -0.75977127
H       -1.52721190      -2.00982006       0.07407648
H       -1.37341324      -1.16507090      -1.55545345
H       -1.71887189       0.75710459       1.62341573
H       -1.78218959       1.60850403      -0.02931493
13
Frame=3 idx=001195 GeodesicLength=0.1692554510046735 rxn_smarts="[C:1]([C:2](=[O:3])[N:4]1[C:5]([H:10])([H:11])[C:6]1([H:12])[H:13])([H:7])([H:8])[H:9]>>[C:1]([C:2]1=[N+:4]([C-:5]([H:10])[H:11])[C:6]([H:12])([H:13])[O:3]1)([H:7])([H:8])[H:9]"
C        1.92885489      -0.09717458      -0.27421010
C        0.63843764       0.39546615       0.23454518
O        0.39837068       1.51441767       0.82868360
N       -0.53978032      -0.18747524       0.14217232
C       -1.45411316      -1.06294774      -0.47478964
C       -1.30146139       0.88441629       0.63176370
H        2.35306830       0.62014806      -0.97761280
H        2.62492628      -0.20932415       0.55766753
H        1.78682394      -1.05982043      -0.76742936
H       -1.59629628      -1.98643175       0.07757825
H       -1.32776041      -1.16096074      -1.54848980
H       -1.74363868       0.75715571       1.61467612
H       -1.76743150       1.59253075      -0.04455502
13
Frame=4 idx=001195 GeodesicLength=0.22444694117082747 rxn_smarts="[C:1]([C:2](=[O:3])[N:4]1[C:5]([H:10])([H:11])[C:6]1([H:12])[H:13])([H:7])([H:8])[H:9]>>[C:1]([C:2]1=[N+:4]([C-:5]([H:10])[H:11])[C:6]([H:12])([H:13])[O:3]1)([H:7])([H:8])[H:9]"
C        1.93119489      -0.09287171      -0.28220835
C        0.64587104       0.38903396       0.25047752
O        0.39812909       1.51290781       0.83330647
N       -0.52678933      -0.21235240       0.18080250
C       -1.44871867      -1.04968878      -0.47224163
C       -1.30619386       0.86790357       0.62936392
H        2.33935842       0.62853913      -0.99096680
H        2.64065158      -0.20149682       0.53888675
H        1.79095088      -1.05608380      -0.77462373
H       -1.65838342      -1.96050676       0.07880031
H       -1.28494778      -1.15808873      -1.53949554
H       -1.76702139       0.75550799       1.60551132
H       -1.75410144       1.57719653      -0.05761272
13
Frame=5 idx=001195 GeodesicLength=0.27921948875603175 rxn_smarts="[C:1]([C:2](=[O:3])[N:4]1[C:5]([H:10])([H:11])[C:6]1([H:12])[H:13])([H:7])([H:8])[H:9]>>[C:1]([C:2]1=[N+:4]([C-:5]([H:10])[H:11])[C:6]([H:12])([H:13])[O:3]1)([H:7])([H:8])[H:9]"
C        1.93277822      -0.08930690      -0.28971810
C        0.65277690       0.38338202       0.26527631
O        0.39779603       1.51231556       0.83680666
N       -0.51472521      -0.23470187       0.21659768
C       -1.44163494      -1.03714524      -0.46888945
C       -1.31104178       0.85193671       0.62704893
H        2.32655343       0.63569014      -1.00321681
H        2.65425941      -0.19523261       0.52134443
H        1.79367453      -1.05299087      -0.78165806
H       -1.71395694      -1.93332008       0.07820114
H       -1.24495484      -1.15617409      -1.52922254
H       -1.78948290       0.75267016       1.59632406
H       -1.74204190       1.56287708      -0.06889424
13
Frame=6 idx=001195 GeodesicLength=0.3340574654034988 rxn_smarts="[C:1]([C:2](=[O:3])[N:4]1[C:5]([H:10])([H:11])[C:6]1([H:12])[H:13])([H:7])([H:8])[H:9]>>[C:1]([C:2]1=[N+:4]([C-:5]([H:10])[H:11])[C:6]([H:12])([H:13])[O:3]1)([H:7])([H:8])[H:9]"
C        1.93343286      -0.08634201      -0.29679242
C        0.65933121       0.37782983       0.28004919
O        0.39747904       1.51185250       0.83985178
N       -0.50338831      -0.25508134       0.25049662
C       -1.43299748      -1.02503745      -0.46478337
C       -1.31581214       0.83638264       0.62462614
H        2.31296999       0.64156845      -1.01515687
H        2.66668159      -0.18951351       0.50414478
H        1.79502742      -1.05056223      -0.78779018
H       -1.76393038      -1.90495863       0.07570956
H       -1.20692713      -1.15437775      -1.51775427
H       -1.81139168       0.74892899       1.58650324
H       -1.73047499       1.54931052      -0.07910420
13
Frame=7 idx=001195 GeodesicLength=0.38887081823903036 rxn_smarts="[C:1]([C:2](=[O:3])[N:4]1[C:5]([H:10])([H:11])[C:6]1([H:12])[H:13])([H:7])([H:8])[H:9]>>[C:1]([C:2]1=[N+:4]([C-:5]([H:10])[H:11])[C:6]([H:12])([H:13])[O:3]1)([H:7])([H:8])[H:9]"
C        1.93348409      -0.08385185      -0.30345150
C        0.66548549       0.37303397       0.29372907
O        0.39715426       1.51187649       0.84207307
N       -0.49271874      -0.27344537       0.28201854
C       -1.42350911      -1.01351172      -0.45992471
C       -1.32057215       0.82122079       0.62209157
H        2.30039454       0.64680471      -1.02567809
H        2.67725485      -0.18551162       0.48804918
H        1.79519180      -1.04811716      -0.79423554
H       -1.80844327      -1.87573702       0.07245718
H       -1.17148663      -1.15320642      -1.50532877
H       -1.83232546       0.74417073       1.57642846
H       -1.71990966       1.53627447      -0.08822845
13
Frame=8 idx=001195 GeodesicLength=0.44357814145575486 rxn_smarts="[C:1]([C:2](=[O:3])[N:4]1[C:5]([H:10])([H:11])[C:6]1([H:12])[H:13])([H:7])([H:8])[H:9]>>[C:1]([C:2]1=[N+:4]([C-:5]([H:10])[H:11])[C:6]([H:12])([H:13])[O:3]1)([H:7])([H:8])[H:9]"
C        1.93306892      -0.08182985      -0.30975685
C        0.67136205       0.36876265       0.30680875
O        0.39687648       1.51242399       0.84368241
N       -0.48268459      -0.29015799       0.31182131
C       -1.41337399      -1.00257574      -0.45446144
C       -1.32537676       0.80654898       0.61961385
H        2.28829164       0.65115335      -1.03562546
H        2.68667861      -0.18233982       0.47266468
H        1.79444032      -1.04614489      -0.80031612
H       -1.84825194      -1.84645656       0.06809262
H       -1.13820965      -1.15202498      -1.49240270
H       -1.85274064       0.73873070       1.56625927
H       -1.71008047       1.52391015      -0.09638033
13
Frame=9 idx=001195 GeodesicLength=0.4983400205942768 rxn_smarts="[C:1]([C:2](=[O:3])[N:4]1[C:5]([H:10])([H:11])[C:6]1([H:12])[H:13])([H:7])([H:8])[H:9]>>[C:1]([C:2]1=[N+:4]([C-:5]([H:10])[H:11])[C:6]([H:12])([H:13])[O:3]1)([H:7])([H:8])[H:9]"
C        1.93215798      -0.08022806      -0.31573500
C        0.67699124       0.36488360       0.31946515
O        0.39664167       1.51329851       0.84477986
N       -0.47318857      -0.30543194       0.34020131
C       -1.40268960      -0.99207861      -0.44845999
C       -1.33017007       0.79230031       0.61715327
H        2.27630176       0.65466287      -1.04513492
H        2.69512890      -0.17982555       0.45780471
H        1.79283456      -1.04458910      -0.80592871
H       -1.88377595      -1.81717054       0.06275803
H       -1.10673549      -1.15059592      -1.47904624
H       -1.87265611       0.73269566       1.55588702
H       -1.70084033       1.51207878      -0.10374447
13
Frame=10 idx=001195 GeodesicLength=0.553053505109656 rxn_smarts="[C:1]([C:2](=[O:3])[N:4]1[C:5]([H:10])([H:11])[C:6]1([H:12])[H:13])([H:7])([H:8])[H:9]>>[C:1]([C:2]1=[N+:4]([C-:5]([H:10])[H:11])[C:6]([H:12])([H:13])[O:3]1)([H:7])([H:8])[H:9]"
C        1.93089998      -0.07901656      -0.32138667
C        0.68234170       0.36162321       0.33129915
O        0.39641762       1.51468798       0.84511201
N       -0.46417788      -0.31932538       0.36710186
C       -1.39173836      -0.98201403      -0.44198212
C       -1.33499066       0.77845918       0.61475429
H        2.26507197       0.65748877      -1.05394065
H        2.70243717      -0.17827346       0.44378236
H        1.79048274      -1.04330173      -0.81136227
H       -1.91517196      -1.78823968       0.05686133
H       -1.07724192      -1.14885726      -1.46548536
H       -1.89192010       0.72605637       1.54555353
H       -1.69241028       1.50071259      -0.11030746
13
Frame=11 idx=001195 GeodesicLength=0.607723338091475 rxn_smarts="[C:1]([C:2](=[O:3])[N:4]1[C:5]([H:10])([H:11])[C:6]1([H:12])[H:13])([H:7])([H:8])[H:9]>>[C:1]([C:2]1=[N+:4]([C-:5]([H:10])[H:11])[C:6]([H:12])([H:13])[O:3]1)([H:7])([H:8])[H:9]"
C        1.92939999      -0.07818665      -0.32674784
C        0.68743406       0.35895872       0.34233764
O        0.39617428       1.51662554       0.84464500
N       -0.45561422      -0.33197692       0.39269595
C       -1.38063502      -0.97232764      -0.43510474
C       -1.33988941       0.76502880       0.61247462
H        2.25464959       0.65964380      -1.06217353
H        2.70877377      -0.17758697       0.43054200
H        1.78754448      -1.04234160      -0.81657233
H       -1.94284229      -1.75990128       0.05050189
H       -1.04953055      -1.14664932      -1.45187778
H       -1.91064572       0.71889191       1.53535909
H       -1.68481896       1.48982161      -0.11607997
13
Frame=12 idx=001195 GeodesicLength=0.6623162554505136 rxn_smarts="[C:1]([C:2](=[O:3])[N:4]1[C:5]([H:10])([H:11])[C:6]1([H:12])[H:13])([H:7])([H:8])[H:9]>>[C:1]([C:2]1=[N+:4]([C-:5]([H:10])[H:11])[C:6]([H:12])([H:13])[O:3]1)([H:7])([H:8])[H:9]"
C        1.92765151      -0.07774241      -0.33174611
C        0.69223590       0.35700137       0.35234888
O        0.39589457       1.51915620       0.84300966
N       -0.44739228      -0.34337787       0.41698695
C       -1.36950182      -0.96287036      -0.42789268
C       -1.34481056       0.75192045       0.61034290
H        2.24516034       0.66098490      -1.06976144
H        2.71403888      -0.17774778       0.41830564
H        1.78399139      -1.04166227      -0.82140498
H       -1.96676662      -1.73240436       0.04378481
H       -1.02373812      -1.14358510      -1.43839091
H       -1.92853674       0.71110666       1.52543152
H       -1.67822645       1.47922056      -0.12101424
13
Frame=13 idx=001195 GeodesicLength=0.7168346520642782 rxn_smarts="[C:1]([C:2](=[O:3])[N:4]1[C:5]([H:10])([H:11])[C:6]1([H:12])[H:13])([H:7])([H:8])[H:9]>>[C:1]([C:2]1=[N+:4]([C-:5]([H:10])[H:11])[C:6]([H:12])([H:13])[O:3]1)([H:7])([H:8])[H:9]"
C        1.92578084      -0.07763391      -0.33649918
C        0.69680322       0.35562980       0.36156987
O        0.39558504       1.52223213       0.84055980
N       -0.43953317      -0.35371902       0.44018378
C       -1.35840954      -0.95368125      -0.42040458
C       -1.34983556       0.73919811       0.60837045
H        2.23658978       0.66174980      -1.07687174
H        2.71850401      -0.17871430       0.40683564
H        1.78000966      -1.04127758      -0.82605225
H       -1.98759151      -1.70582952       0.03688561
H       -0.99946724      -1.13988064      -1.42507428
H       -1.94598196       0.70287071       1.51575231
H       -1.67245356       1.46905569      -0.12525542
13
Frame=14 idx=001195 GeodesicLength=0.7713478992241287 rxn_smarts="[C:1]([C:2](=[O:3])[N:4]1[C:5]([H:10])([H:11])[C:6]1([H:12])[H:13])([H:7])([H:8])[H:9]>>[C:1]([C:2]1=[N+:4]([C-:5]([H:10])[H:11])[C:6]([H:12])([H:13])[O:3]1)([H:7])([H:8])[H:9]"
C        1.92373044      -0.07779884      -0.34103410
C        0.70117825       0.35471248       0.37021351
O        0.39529724       1.52566962       0.83750201
N       -0.43198360      -0.36311235       0.46246428
C       -1.34733775      -0.94470200      -0.41267603
C       -1.35489226       0.72681508       0.60650423
H        2.22860896       0.66201310      -1.08359976
H        2.72228844      -0.18032767       0.39595699
H        1.77557084      -1.04110639      -0.83049454
H       -2.00571109      -1.68005831       0.02984571
H       -0.97643936      -1.13558085      -1.41188919
H       -1.96303534       0.69423657       1.50617159
H       -1.66727477       1.45923956      -0.12896469
13
Frame=15 idx=001195 GeodesicLength=0.8258105757502688 rxn_smarts="[C:1]([C:2](=[O:3])[N:4]1[C:5]([H:10])([H:11])[C:6]1([H:12])[H:13])([H:7])([H:8])[H:9]>>[C:1]([C:2]1=[N+:4]([C-:5]([H:10])[H:11])[C:6]([H:12])([H:13])[O:3]1)([H:7])([H:8])[H:9]"
C        1.92159639      -0.07826506      -0.34533426
C        0.70533863       0.35435218       0.37808404
O        0.39496800       1.52960717       0.83355072
N       -0.42470225      -0.37156997       0.48380341
C       -1.33637625      -0.93586828      -0.40476573
C       -1.36003106       0.71475355       0.60481691
H        2.22151136       0.66171684      -1.08991340
H        2.72536929      -0.18265581       0.38583208
H        1.77077782      -1.04118770      -0.83470693
H       -2.02120834      -1.65530504       0.02277000
H       -0.95472006      -1.13048458      -1.39898374
H       -1.97962771       0.68514215       1.49688095
H       -1.66289579       1.44976455      -0.13203405
13
Frame=16 idx=001195 GeodesicLength=0.8802494190698328 rxn_smarts="[C:1]([C:2](=[O:3])[N:4]1[C:5]([H:10])([H:11])[C:6]1([H:12])[H:13])([H:7])([H:8])[H:9]>>[C:1]([C:2]1=[N+:4]([C-:5]([H:10])[H:11])[C:6]([H:12])([H:13])[O:3]1)([H:7])([H:8])[H:9]"
C        1.91937165      -0.07898195      -0.34943261
C        0.70931676       0.35446675       0.38531768
O        0.39463231       1.53393927       0.82887006
N       -0.41766313      -0.37918006       0.50431449
C       -1.32553071      -0.92716174      -0.39670374
C       -1.36522251       0.70299191       0.60327489
H        2.21515837       0.66096383      -1.09585009
H        2.72783599      -0.18563187       0.37634466
H        1.76563597      -1.04145050      -0.83874966
H       -2.03441629      -1.63149872       0.01573090
H       -0.93411704      -1.12469041      -1.38633098
H       -1.99583670       0.67564368       1.48779137
H       -1.65916467       1.44058980      -0.13457696
