15
Frame=0 idx=010852 GeodesicLength=0.0 rxn_smarts="[C:1]([C@@:2]12[C:3]([H:11])([H:12])[C@:4]1([O:5][H:13])[C:6]([H:14])([H:15])[O:7]2)([H:8])([H:9])[H:10]>>[C:1]([C:2]([C:3]([C:4]([O:5][H:13])=[C:6]([H:14])[H:15])([H:11])[H:12])=[O:7])([H:8])([H:9])[H:10]"
C        1.92569480      -0.15110423       0.53383261
C        0.73944537       0.12442928      -0.29427814
C       -0.17146769      -0.85075032      -0.85179657
C       -1.39803810      -0.23212344      -0.13327833
O       -1.45113500      -0.49153889       1.26314172
C       -1.15880579       1.22314206      -0.39522013
O        0.32697621       1.37883297      -0.30704183
H        2.53180472       0.74672281       0.64772018
H        2.51587137      -0.98544908       0.15880463
H        1.54057331      -0.42013939       1.52829106
H       -0.30688183      -0.75762332      -1.93194079
H        0.07075549      -1.87636600      -0.58549182
H       -2.14062779      -1.14068880       1.39067911
H       -1.46329280       1.54822622      -1.39163968
H       -1.56087228       1.88443012       0.36821803
15
Frame=1 idx=010852 GeodesicLength=0.10778237387871302 rxn_smarts="[C:1]([C@@:2]12[C:3]([H:11])([H:12])[C@:4]1([O:5][H:13])[C:6]([H:14])([H:15])[O:7]2)([H:8])([H:9])[H:10]>>[C:1]([C:2]([C:3]([C:4]([O:5][H:13])=[C:6]([H:14])[H:15])([H:11])[H:12])=[O:7])([H:8])([H:9])[H:10]"
C        1.91028342      -0.15350709       0.55062609
C        0.74379412       0.13088267      -0.30390096
C       -0.17030608      -0.84085270      -0.87174933
C       -1.37523219      -0.22445816      -0.12444945
O       -1.43578240      -0.50715004       1.26293811
C       -1.17060033       1.23013328      -0.38764766
O        0.34759824       1.38961978      -0.34409909
H        2.58137034       0.70434583       0.57928480
H        2.44741771      -1.05462422       0.25971439
H        1.51756633      -0.30999453       1.56524718
H       -0.31425595      -0.73236408      -1.94889468
H        0.06782273      -1.87031063      -0.61665694
H       -2.08644104      -1.19888417       1.37106023
H       -1.49885350       1.55241934      -1.37731206
H       -1.56438141       1.88474471       0.38583934
15
Frame=2 idx=010852 GeodesicLength=0.21456814942175423 rxn_smarts="[C:1]([C@@:2]12[C:3]([H:11])([H:12])[C@:4]1([O:5][H:13])[C:6]([H:14])([H:15])[O:7]2)([H:8])([H:9])[H:10]>>[C:1]([C:2]([C:3]([C:4]([O:5][H:13])=[C:6]([H:14])[H:15])([H:11])[H:12])=[O:7])([H:8])([H:9])[H:10]"
C        1.89579939      -0.15508888       0.56649207
C        0.74763946       0.13709697      -0.31136940
C       -0.16895554      -0.83123805      -0.88998531
C       -1.35266370      -0.21679403      -0.11608307
O       -1.42437976      -0.52355401       1.26146474
C       -1.18253361       1.23648078      -0.37915640
O        0.36785728       1.39932721      -0.37886314
H        2.62870403       0.64943819       0.51285515
H        2.37268004      -1.11228295       0.36220284
H        1.50638401      -0.19637615       1.59288821
H       -0.32028233      -0.70799066      -1.96406886
H        0.06530176      -1.86408217      -0.64547657
H       -2.03371198      -1.25504835       1.34781317
H       -1.53212928       1.55589731      -1.36225074
H       -1.56970976       1.88421479       0.40353731
15
Frame=3 idx=010852 GeodesicLength=0.32107337973290456 rxn_smarts="[C:1]([C@@:2]12[C:3]([H:11])([H:12])[C@:4]1([O:5][H:13])[C:6]([H:14])([H:15])[O:7]2)([H:8])([H:9])[H:10]>>[C:1]([C:2]([C:3]([C:4]([O:5][H:13])=[C:6]([H:14])[H:15])([H:11])[H:12])=[O:7])([H:8])([H:9])[H:10]"
C        1.88296021      -0.15547431       0.58150686
C        0.75123423       0.14342737      -0.31673805
C       -0.16732136      -0.82180826      -0.90640930
C       -1.33051412      -0.20949920      -0.10803209
O       -1.41676306      -0.54168635       1.25862595
C       -1.19491685       1.24200986      -0.36991435
O        0.38799331       1.40834840      -0.41131303
H        2.67328355       0.58326039       0.44867775
H        2.29402618      -1.15696550       0.46582446
H        1.50798434      -0.08306043       1.61091850
H       -0.32501593      -0.68417816      -1.97734827
H        0.06344229      -1.85766186      -0.67180159
H       -1.98553302      -1.30766396       1.32167396
H       -1.56348769       1.55858025      -1.34677997
H       -1.57737208       1.88237176       0.42110917
15
Frame=4 idx=010852 GeodesicLength=0.4275813631708241 rxn_smarts="[C:1]([C@@:2]12[C:3]([H:11])([H:12])[C@:4]1([O:5][H:13])[C:6]([H:14])([H:15])[O:7]2)([H:8])([H:9])[H:10]>>[C:1]([C:2]([C:3]([C:4]([O:5][H:13])=[C:6]([H:14])[H:15])([H:11])[H:12])=[O:7])([H:8])([H:9])[H:10]"
C        1.87111369      -0.15506653       0.59586188
C        0.75447610       0.14993660      -0.32024271
C       -0.16540656      -0.81260398      -0.92128077
C       -1.30844485      -0.20230312      -0.10017438
O       -1.41237463      -0.56072868       1.25439024
C       -1.20768519       1.24690943      -0.35992610
O        0.40798925       1.41684289      -0.44163538
H        2.71302028       0.50574215       0.38881387
H        2.21149883      -1.18889432       0.56947234
H        1.52191360       0.03016954       1.61939807
H       -0.32870903      -0.66121392      -1.98901412
H        0.06236675      -1.85111789      -0.69603579
H       -1.93941691      -1.35778270       1.29268667
H       -1.59318885       1.56042308      -1.33096557
H       -1.58715248       1.87968744       0.43865176
15
Frame=5 idx=010852 GeodesicLength=0.5348957895661206 rxn_smarts="[C:1]([C@@:2]12[C:3]([H:11])([H:12])[C@:4]1([O:5][H:13])[C:6]([H:14])([H:15])[O:7]2)([H:8])([H:9])[H:10]>>[C:1]([C:2]([C:3]([C:4]([O:5][H:13])=[C:6]([H:14])[H:15])([H:11])[H:12])=[O:7])([H:8])([H:9])[H:10]"
C        1.86102778      -0.15379272       0.60955305
C        0.75756530       0.15696398      -0.32203219
C       -0.16314746      -0.80333746      -0.93456696
C       -1.28675026      -0.19519636      -0.09231452
O       -1.41155091      -0.58105114       1.24891477
C       -1.22126719       1.25118597      -0.34947380
O        0.42802810       1.42517184      -0.47004763
H        2.74759684       0.41801593       0.33342978
H        2.12713882      -1.20766283       0.67291383
H        1.54867348       0.14034533       1.61868658
H       -0.33132520      -0.63863044      -1.99916067
H        0.06225756      -1.84418963      -0.71796238
H       -1.89680169      -1.40527114       1.26153526
H       -1.62166644       1.56149279      -1.31533652
H       -1.59977872       1.87595587       0.45586140
15
Frame=6 idx=010852 GeodesicLength=0.6424553658143597 rxn_smarts="[C:1]([C@@:2]12[C:3]([H:11])([H:12])[C@:4]1([O:5][H:13])[C:6]([H:14])([H:15])[O:7]2)([H:8])([H:9])[H:10]>>[C:1]([C:2]([C:3]([C:4]([O:5][H:13])=[C:6]([H:14])[H:15])([H:11])[H:12])=[O:7])([H:8])([H:9])[H:10]"
C        1.85171602      -0.15186966       0.62259031
C        0.76049983       0.16446028      -0.32244956
C       -0.16039609      -0.79409354      -0.94637275
C       -1.26480874      -0.18800496      -0.08421968
O       -1.41328788      -0.60198022       1.24197255
C       -1.23535074       1.25476583      -0.33836544
O        0.44811027       1.43319598      -0.49672759
H        2.77459729       0.32091279       0.28474670
H        2.04128123      -1.21322860       0.77441964
H        1.58680723       0.24678920       1.60828795
H       -0.33295270      -0.61678943      -2.00770083
H        0.06331766      -1.83689033      -0.73788730
H       -1.85595149      -1.44999902       1.22826565
H       -1.64884848       1.56144611      -1.29951605
H       -1.61473341       1.87128557       0.47295640
15
Frame=7 idx=010852 GeodesicLength=0.7510124099620042 rxn_smarts="[C:1]([C@@:2]12[C:3]([H:11])([H:12])[C@:4]1([O:5][H:13])[C:6]([H:14])([H:15])[O:7]2)([H:8])([H:9])[H:10]>>[C:1]([C:2]([C:3]([C:4]([O:5][H:13])=[C:6]([H:14])[H:15])([H:11])[H:12])=[O:7])([H:8])([H:9])[H:10]"
C        1.84427370      -0.14916069       0.63508571
C        0.76353993       0.17274293      -0.32174583
C       -0.15733250      -0.78462835      -0.95681313
C       -1.24305173      -0.18068967      -0.07575314
O       -1.41799630      -0.62398692       1.23383631
C       -1.25040139       1.25776714      -0.32698909
O        0.46857541       1.44139102      -0.52206528
H        2.79438518       0.21619668       0.24262518
H        1.95628691      -1.20557227       0.87427992
H        1.63636597       0.34640608       1.58926813
H       -0.33393907      -0.59523080      -2.01502619
H        0.06540023      -1.82909342      -0.75567735
H       -1.81815268      -1.49228813       1.19360363
H       -1.67533581       1.56052712      -1.28423373
H       -1.63261784       1.86561927       0.48960485
15
Frame=8 idx=010852 GeodesicLength=0.8595130931930542 rxn_smarts="[C:1]([C@@:2]12[C:3]([H:11])([H:12])[C@:4]1([O:5][H:13])[C:6]([H:14])([H:15])[O:7]2)([H:8])([H:9])[H:10]>>[C:1]([C:2]([C:3]([C:4]([O:5][H:13])=[C:6]([H:14])[H:15])([H:11])[H:12])=[O:7])([H:8])([H:9])[H:10]"
C        1.83742405      -0.14588547       0.64693912
C        0.76674049       0.18159123      -0.32037909
C       -0.15379801      -0.77509802      -0.96593999
C       -1.22068982      -0.17311346      -0.06662999
O       -1.42428405      -0.64642643       1.22414398
C       -1.26590891       1.26003987      -0.31499338
O        0.48942650       1.44939883      -0.54632584
H        2.80478131       0.10544101       0.20939058
H        1.87226144      -1.18506445       0.97049056
H        1.69506672       0.43876109       1.56102749
H       -0.33440029      -0.57435851      -2.02084509
H        0.06863558      -1.82089402      -0.77170187
H       -1.78179456      -1.53171779       1.15742296
H       -1.70087865       1.55835125      -1.26875149
H       -1.65258181       1.85897487       0.50615207
15
Frame=9 idx=010852 GeodesicLength=0.9684518396081959 rxn_smarts="[C:1]([C@@:2]12[C:3]([H:11])([H:12])[C@:4]1([O:5][H:13])[C:6]([H:14])([H:15])[O:7]2)([H:8])([H:9])[H:10]>>[C:1]([C:2]([C:3]([C:4]([O:5][H:13])=[C:6]([H:14])[H:15])([H:11])[H:12])=[O:7])([H:8])([H:9])[H:10]"
C        1.83213092      -0.14189429       0.65826283
C        0.77039921       0.19117751      -0.31871649
C       -0.15004282      -0.76531444      -0.97399333
C       -1.19803415      -0.16521327      -0.05671724
O       -1.43236363      -0.66969210       1.21320267
C       -1.28217104       1.26165943      -0.30266205
O        0.51110486       1.45753228      -0.57006040
H        2.80641543      -0.00940605       0.18466708
H        1.79126339      -1.15193942       1.06354896
H        1.76202158       0.52138546       1.52503900
H       -0.33481026      -0.55379691      -2.02568174
H        0.07273252      -1.81220587      -0.78605724
H       -1.74777500      -1.56871656       1.12034421
H       -1.72597593       1.55513588      -1.25362480
H       -1.67489509       1.85128836       0.52244854
15
Frame=10 idx=010852 GeodesicLength=1.0771195515323764 rxn_smarts="[C:1]([C@@:2]12[C:3]([H:11])([H:12])[C@:4]1([O:5][H:13])[C:6]([H:14])([H:15])[O:7]2)([H:8])([H:9])[H:10]>>[C:1]([C:2]([C:3]([C:4]([O:5][H:13])=[C:6]([H:14])[H:15])([H:11])[H:12])=[O:7])([H:8])([H:9])[H:10]"
C        1.82741761      -0.13733490       0.66903753
C        0.77460215       0.20127523      -0.31716680
C       -0.14607923      -0.75540629      -0.98106395
C       -1.17451107      -0.15696347      -0.04580984
O       -1.44095823      -0.69343761       1.20070833
C       -1.29873106       1.26249054      -0.28970391
O        0.53369659       1.46551123      -0.59356184
H        2.79816818      -0.12645931       0.17011224
H        1.71328388      -1.10684745       1.15200354
H        1.83521099       0.59405261       1.48118841
H       -0.33543932      -0.53374693      -2.02935481
H        0.07757124      -1.80318847      -0.79916971
H       -1.71509119      -1.60312502       1.08222834
H       -1.75041121       1.55066371      -1.23823598
H       -1.69872933       1.84251614       0.53878843
15
Frame=11 idx=010852 GeodesicLength=1.1858086200956826 rxn_smarts="[C:1]([C@@:2]12[C:3]([H:11])([H:12])[C@:4]1([O:5][H:13])[C:6]([H:14])([H:15])[O:7]2)([H:8])([H:9])[H:10]>>[C:1]([C:2]([C:3]([C:4]([O:5][H:13])=[C:6]([H:14])[H:15])([H:11])[H:12])=[O:7])([H:8])([H:9])[H:10]"
C        1.82383939      -0.13220693       0.67929626
C        0.77958806       0.21188000      -0.31607313
C       -0.14203755      -0.74523925      -0.98742118
C       -1.15022518      -0.14829195      -0.03380822
O       -1.44992490      -0.71779454       1.18685628
C       -1.31576799       1.26251014      -0.27617790
O        0.55752659       1.47336489      -0.61733168
H        2.78053042      -0.24430131       0.16531063
H        1.63951822      -1.04999291       1.23633051
H        1.91335527       0.65538359       1.43082396
H       -0.33657903      -0.51394269      -2.03228917
H        0.08302189      -1.79375779      -0.81137248
H       -1.68409235      -1.63519148       1.04333879
H       -1.77453507       1.54504864      -1.22275109
H       -1.72421776       1.83253158       0.55526842
15
Frame=12 idx=010852 GeodesicLength=1.2941130585976797 rxn_smarts="[C:1]([C@@:2]12[C:3]([H:11])([H:12])[C@:4]1([O:5][H:13])[C:6]([H:14])([H:15])[O:7]2)([H:8])([H:9])[H:10]>>[C:1]([C:2]([C:3]([C:4]([O:5][H:13])=[C:6]([H:14])[H:15])([H:11])[H:12])=[O:7])([H:8])([H:9])[H:10]"
C        1.82061314      -0.12658510       0.68911848
C        0.78541408       0.22279653      -0.31574269
C       -0.13803074      -0.73488158      -0.99318477
C       -1.12480908      -0.13927630      -0.02063989
O       -1.45798531      -0.74252983       1.17149334
C       -1.33289346       1.26152392      -0.26186947
O        0.58273017       1.48086450      -0.64160151
H        2.75296792      -0.36107822       0.17136206
H        1.56987736      -0.98200983       1.31534607
H        1.99478721       0.70518547       1.37425782
H       -0.33850632      -0.49441602      -2.03439262
H        0.08882729      -1.78402859      -0.82311934
H       -1.65425322      -1.66485281       1.00357496
H       -1.79810317       1.53812951      -1.20670286
H       -1.75063586       1.82115834       0.57210043
15
Frame=13 idx=010852 GeodesicLength=1.4023152293269958 rxn_smarts="[C:1]([C@@:2]12[C:3]([H:11])([H:12])[C@:4]1([O:5][H:13])[C:6]([H:14])([H:15])[O:7]2)([H:8])([H:9])[H:10]>>[C:1]([C:2]([C:3]([C:4]([O:5][H:13])=[C:6]([H:14])[H:15])([H:11])[H:12])=[O:7])([H:8])([H:9])[H:10]"
C        1.81793901      -0.12052436       0.69862077
C        0.79225240       0.23396766      -0.31645165
C       -0.13419439      -0.72423558      -0.99864608
C       -1.09833741      -0.12993972      -0.00635007
O       -1.46453291      -0.76764354       1.15486992
C       -1.35021270       1.25946292      -0.24678875
O        0.60958535       1.48799572      -0.66680700
H        2.71572143      -0.47572392       0.18817871
H        1.50505727      -0.90315380       1.38913632
H        2.07823484       0.74274803       1.31273801
H       -0.34146358      -0.47489770      -2.03603642
H        0.09484296      -1.77398338      -0.83487121
H       -1.62553367      -1.69235115       0.96313300
H       -1.82136190       1.53005142      -1.19013752
H       -1.77799670       1.80822741       0.58941197
15
Frame=14 idx=010852 GeodesicLength=1.5103381153575173 rxn_smarts="[C:1]([C@@:2]12[C:3]([H:11])([H:12])[C@:4]1([O:5][H:13])[C:6]([H:14])([H:15])[O:7]2)([H:8])([H:9])[H:10]>>[C:1]([C:2]([C:3]([C:4]([O:5][H:13])=[C:6]([H:14])[H:15])([H:11])[H:12])=[O:7])([H:8])([H:9])[H:10]"
C        1.81518059      -0.11426220       0.70789501
C        0.80000846       0.24520402      -0.31829183
C       -0.13052242      -0.71326645      -1.00402383
C       -1.07072779      -0.12038417       0.00886743
O       -1.46828859      -0.79262338       1.13718031
C       -1.36763075       1.25605555      -0.23080876
O        0.63811147       1.49446073      -0.69289909
H        2.66835008      -0.58671129       0.21602885
H        1.44479051      -0.81376908       1.45686964
H        2.16259666       0.76743645       1.24699567
H       -0.34531577      -0.45526259      -2.03731033
H        0.10100728      -1.76356852      -0.84718419
H       -1.59728940      -1.71739670       0.92212998
H       -1.84412542       1.52067765      -1.17280944
H       -1.80614489       1.79340998       0.60736057
15
Frame=15 idx=010852 GeodesicLength=1.6185592607466401 rxn_smarts="[C:1]([C@@:2]12[C:3]([H:11])([H:12])[C@:4]1([O:5][H:13])[C:6]([H:14])([H:15])[O:7]2)([H:8])([H:9])[H:10]>>[C:1]([C:2]([C:3]([C:4]([O:5][H:13])=[C:6]([H:14])[H:15])([H:11])[H:12])=[O:7])([H:8])([H:9])[H:10]"
C        1.81227659      -0.10787932       0.71722878
C        0.80873667       0.25647739      -0.32144388
C       -0.12726823      -0.70191641      -1.00970507
C       -1.04221737      -0.11073265       0.02463844
O       -1.46823095      -0.81738078       1.11895336
C       -1.38524468       1.25131088      -0.21408411
O        0.66862175       1.50039043      -0.72024234
H        2.61075161      -0.69291210       0.25513192
H        1.38972384      -0.71464012       1.51803620
H        2.24652011       0.77875607       1.17858571
H       -0.35035200      -0.43518002      -2.03867562
H        0.10699405      -1.75290247      -0.86061419
H       -1.56872110      -1.74038953       0.88120705
H       -1.86659387       1.51039864      -1.15492994
H       -1.83499640       1.77659998       0.62591370
15
Frame=16 idx=010852 GeodesicLength=1.727215961801196 rxn_smarts="[C:1]([C@@:2]12[C:3]([H:11])([H:12])[C@:4]1([O:5][H:13])[C:6]([H:14])([H:15])[O:7]2)([H:8])([H:9])[H:10]>>[C:1]([C:2]([C:3]([C:4]([O:5][H:13])=[C:6]([H:14])[H:15])([H:11])[H:12])=[O:7])([H:8])([H:9])[H:10]"
C        1.80822440      -0.10174987       0.72652498
C        0.81818718       0.26756667      -0.32584151
C       -0.12413822      -0.68993278      -1.01585947
C       -1.01285098      -0.10104691       0.04049901
O       -1.46307905      -0.84105298       1.10068644
C       -1.40297850       1.24469168      -0.19647996
O        0.70117870       1.50513242      -0.74850968
H        2.54195180      -0.79271726       0.30488896
H        1.33904488      -0.60576502       1.57156260
H        2.32867568       0.77533522       1.10823824
H       -0.35573944      -0.41430887      -2.04004892
H        0.11299975      -1.74143182      -0.87564962
H       -1.53857856      -1.76057845       0.84094579
H       -1.88826541       1.49886344      -1.13613614
H       -1.86463224       1.75699453       0.64517930
