17
Frame=0 idx=009530 GeodesicLength=0.0 rxn_smarts="[C:1]([C@@:2]1([H:11])[C@:3]([C:4]([H:13])([H:14])[H:15])([H:12])[C@:5]1([C:6]#[C:7][H:17])[H:16])([H:8])([H:9])[H:10]>>[C:1]([C@@:2]([C:3](=[C:4]([H:14])[H:15])[H:12])([C:5](=[C:6]=[C:7]([H:13])[H:17])[H:16])[H:11])([H:8])([H:9])[H:10]"
C       -1.20890002      -1.40869669       0.08466058
C       -0.35158292      -0.72544930      -0.95414259
C       -0.20656417       0.75713823      -0.91583707
C       -0.42267773       1.57797902       0.20043576
C        1.13376045      -0.58598997      -0.71197795
C        1.62139922      -0.37913287       0.53283221
C        1.53424918       0.37950118       1.53359936
H       -2.26358563      -1.18796350      -0.09124124
H       -1.07158516      -2.48985140       0.03299245
H       -0.95576635      -1.08991929       1.09557634
H       -0.55269977      -1.10686078      -1.95320359
H        0.11493284       1.22295849      -1.83936704
H        0.71058151       1.31545495       1.01257956
H       -0.39270800       2.64771165       0.02203507
H       -1.16685171       1.27227589       0.93027823
H        1.78528785      -0.58583086      -1.57604723
H        1.69271043       0.38667531       2.59682715
17
Frame=1 idx=009530 GeodesicLength=0.09613258346431454 rxn_smarts="[C:1]([C@@:2]1([H:11])[C@:3]([C:4]([H:13])([H:14])[H:15])([H:12])[C@:5]1([C:6]#[C:7][H:17])[H:16])([H:8])([H:9])[H:10]>>[C:1]([C@@:2]([C:3](=[C:4]([H:14])[H:15])[H:12])([C:5](=[C:6]=[C:7]([H:13])[H:17])[H:16])[H:11])([H:8])([H:9])[H:10]"
C       -1.20839185      -1.40210110       0.08711468
C       -0.35150927      -0.72337200      -0.95489450
C       -0.20744021       0.75990372      -0.92279157
C       -0.43054092       1.58410703       0.19136382
C        1.13324507      -0.58286452      -0.70988994
C        1.62415195      -0.39014776       0.53772306
C        1.55051436       0.36532416       1.54250971
H       -2.26308325      -1.18523736      -0.09346640
H       -1.06363376      -2.48273407       0.04696623
H       -0.96179639      -1.07578575       1.09730774
H       -0.54918431      -1.10988961      -1.95264694
H        0.11323234       1.22365587      -1.84774425
H        0.71840994       1.32753409       1.02933288
H       -0.43305166       2.65207432      -0.00173942
H       -1.17747644       1.27504942       0.91727167
H        1.78886355      -0.57802285      -1.57094197
H        1.71769085       0.34250641       2.60452521
17
Frame=2 idx=009530 GeodesicLength=0.19224439733336002 rxn_smarts="[C:1]([C@@:2]1([H:11])[C@:3]([C:4]([H:13])([H:14])[H:15])([H:12])[C@:5]1([C:6]#[C:7][H:17])[H:16])([H:8])([H:9])[H:10]>>[C:1]([C@@:2]([C:3](=[C:4]([H:14])[H:15])[H:12])([C:5](=[C:6]=[C:7]([H:13])[H:17])[H:16])[H:11])([H:8])([H:9])[H:10]"
C       -1.20798086      -1.39525573       0.08951261
C       -0.35137124      -0.72115514      -0.95561780
C       -0.20824783       0.76278470      -0.92981513
C       -0.43863061       1.59056618       0.18197594
C        1.13274703      -0.57952503      -0.70753857
C        1.62676762      -0.40142223       0.54283667
C        1.56677187       0.35027936       1.55189754
H       -2.26263160      -1.18229714      -0.09585935
H       -1.05582828      -2.47520741       0.06099510
H       -0.96801504      -1.06136143       1.09889684
H       -0.54544920      -1.11284462      -1.95202642
H        0.11172528       1.22437164      -1.85619163
H        0.72589801       1.33931231       1.04721242
H       -0.47464918       2.65549348      -0.02623726
H       -1.18834032       1.27799095       0.90384763
H        1.79255935      -0.57009535      -1.56544429
H        1.74467500       0.29836548       2.61155570
17
Frame=3 idx=009530 GeodesicLength=0.2883343190094564 rxn_smarts="[C:1]([C@@:2]1([H:11])[C@:3]([C:4]([H:13])([H:14])[H:15])([H:12])[C@:5]1([C:6]#[C:7][H:17])[H:16])([H:8])([H:9])[H:10]>>[C:1]([C@@:2]([C:3](=[C:4]([H:14])[H:15])[H:12])([C:5](=[C:6]=[C:7]([H:13])[H:17])[H:16])[H:11])([H:8])([H:9])[H:10]"
C       -1.20764731      -1.38813766       0.09188071
C       -0.35116163      -0.71878615      -0.95630106
C       -0.20898908       0.76579386      -0.93692195
C       -0.44696870       1.59739716       0.17222261
C        1.13227216      -0.57593735      -0.70492374
C        1.62925718      -0.41293115       0.54815525
C        1.58303008       0.33434689       1.56176249
H       -2.26221128      -1.17912675      -0.09838311
H       -1.04814695      -2.46724375       0.07512438
H       -0.97439216      -1.04660833       1.10035811
H       -0.54149099      -1.11573095      -1.95132006
H        0.11039444       1.22510194      -1.86473661
H        0.73303125       1.35079044       1.06626070
H       -0.51749409       2.65788407      -0.05151343
H       -1.19940549       1.28111718       0.89000592
H        1.79637232      -0.56202308      -1.55955951
H        1.77355027       0.25409361       2.61788931
17
Frame=4 idx=009530 GeodesicLength=0.384402580793738 rxn_smarts="[C:1]([C@@:2]1([H:11])[C@:3]([C:4]([H:13])([H:14])[H:15])([H:12])[C@:5]1([C:6]#[C:7][H:17])[H:16])([H:8])([H:9])[H:10]>>[C:1]([C@@:2]([C:3](=[C:4]([H:14])[H:15])[H:12])([C:5](=[C:6]=[C:7]([H:13])[H:17])[H:16])[H:11])([H:8])([H:9])[H:10]"
C       -1.20737028      -1.38072664       0.09424583
C       -0.35087382      -0.71625392      -0.95693313
C       -0.20967128       0.76894219      -0.94412814
C       -0.45558633       1.60463780       0.16205069
C        1.13182523      -0.57206373      -0.70204572
C        1.63163138      -0.42464598       0.55365959
C        1.59929689       0.31750883       1.57210219
H       -2.26180251      -1.17571659      -0.10100003
H       -1.04056654      -2.45881704       0.08939596
H       -0.98089516      -1.03149020       1.10170644
H       -0.53730561      -1.11855677      -1.95050484
H        0.10921671       1.22584143      -1.87340867
H        0.73979252       1.36197128       1.08652066
H       -0.56154270       2.65916033      -0.07760947
H       -1.21063618       1.28444225       0.87575148
H        1.80029701      -0.55377765      -1.55329334
H        1.80419066       0.20954442       2.62349052
17
Frame=5 idx=009530 GeodesicLength=0.4804408176373446 rxn_smarts="[C:1]([C@@:2]1([H:11])[C@:3]([C:4]([H:13])([H:14])[H:15])([H:12])[C@:5]1([C:6]#[C:7][H:17])[H:16])([H:8])([H:9])[H:10]>>[C:1]([C@@:2]([C:3](=[C:4]([H:14])[H:15])[H:12])([C:5](=[C:6]=[C:7]([H:13])[H:17])[H:16])[H:11])([H:8])([H:9])[H:10]"
C       -1.20713302      -1.37300408       0.09663082
C       -0.35050201      -0.71354928      -0.95750416
C       -0.21030271       0.77223836      -0.95144927
C       -0.46451627       1.61232184       0.15140833
C        1.13140941      -0.56786875      -0.69890183
C        1.63389677      -0.43654122       0.55933563
C        1.61557360       0.29974189       1.58291718
H       -2.26139022      -1.17205908      -0.10368020
H       -1.03306791      -2.44990378       0.10384506
H       -0.98749762      -1.01597460       1.10295261
H       -0.53288710      -1.12133057      -1.94956114
H        0.10817085       1.22658347      -1.88223383
H        0.74615750       1.37285817       1.10803406
H       -0.60673470       2.65923306      -0.10454868
H       -1.22200147       1.28797649       0.86109097
H        1.80432829      -0.54533117      -1.54664768
H        1.83649660       0.16460924       2.62831215
17
Frame=6 idx=009530 GeodesicLength=0.5764622198454388 rxn_smarts="[C:1]([C@@:2]1([H:11])[C@:3]([C:4]([H:13])([H:14])[H:15])([H:12])[C@:5]1([C:6]#[C:7][H:17])[H:16])([H:8])([H:9])[H:10]>>[C:1]([C@@:2]([C:3](=[C:4]([H:14])[H:15])[H:12])([C:5](=[C:6]=[C:7]([H:13])[H:17])[H:16])[H:11])([H:8])([H:9])[H:10]"
C       -1.20690621      -1.36495220       0.09907173
C       -0.35003865      -0.71066254      -0.95800074
C       -0.21090130       0.77569263      -0.95890832
C       -0.47381075       1.62048200       0.14022764
C        1.13102998      -0.56330247      -0.69549499
C        1.63607249      -0.44857344       0.56515410
C        1.63187820       0.28104036       1.59419179
H       -2.26094904      -1.16815220      -0.10637255
H       -1.02561257      -2.44047525       0.11852610
H       -0.99415596      -1.00002562       1.10411608
H       -0.52822979      -1.12406806      -1.94845944
H        0.10721802       1.22731933      -1.89125149
H        0.75211666       1.38346548       1.13083686
H       -0.65297112       2.65801796      -0.13235951
H       -1.23346371       1.29173317       0.84604103
H        1.80845846      -0.53664333      -1.53963594
H        1.87026528       0.11910419       2.63231765
17
Frame=7 idx=009530 GeodesicLength=0.6724724439943134 rxn_smarts="[C:1]([C@@:2]1([H:11])[C@:3]([C:4]([H:13])([H:14])[H:15])([H:12])[C@:5]1([C:6]#[C:7][H:17])[H:16])([H:8])([H:9])[H:10]>>[C:1]([C@@:2]([C:3](=[C:4]([H:14])[H:15])[H:12])([C:5](=[C:6]=[C:7]([H:13])[H:17])[H:16])[H:11])([H:8])([H:9])[H:10]"
C       -1.20668657      -1.35656191       0.10157554
C       -0.34948132      -0.70758919      -0.95841586
C       -0.21148315       0.77930790      -0.96652046
C       -0.48353295       1.62913572       0.12845248
C        1.13068324      -0.55832904      -0.69180746
C        1.63814629      -0.46072638       0.57111947
C        1.64818613       0.26136133       1.60594393
H       -2.26047425      -1.16399812      -0.10907144
H       -1.01819278      -2.43051680       0.13345353
H       -1.00086612      -0.98362266       1.10519836
H       -0.52331773      -1.12678082      -1.94718391
H        0.10633924       1.22803907      -1.90048169
H        0.75763823       1.39379617       1.15498051
H       -0.70012509       2.65544238      -0.16103423
H       -1.24501326       1.29571230       0.83061562
H        1.81268484      -0.52768335      -1.53223897
H        1.90549524       0.07301339       2.63541459
17
Frame=8 idx=009530 GeodesicLength=0.7684610574861864 rxn_smarts="[C:1]([C@@:2]1([H:11])[C@:3]([C:4]([H:13])([H:14])[H:15])([H:12])[C@:5]1([C:6]#[C:7][H:17])[H:16])([H:8])([H:9])[H:10]>>[C:1]([C@@:2]([C:3](=[C:4]([H:14])[H:15])[H:12])([C:5](=[C:6]=[C:7]([H:13])[H:17])[H:16])[H:11])([H:8])([H:9])[H:10]"
C       -1.20644331      -1.34782188       0.10417656
C       -0.34882307      -0.70432330      -0.95873579
C       -0.21207139       0.78309129      -0.97430869
C       -0.49374105       1.63830345       0.11601029
C        1.13037089      -0.55289578      -0.68784008
C        1.64013704      -0.47295801       0.57719920
C        1.66451016       0.24068760       1.61815226
H       -2.25993860      -1.15960463      -0.11172631
H       -1.01076982      -2.42000716       0.14867755
H       -1.00758294      -0.96673719       1.10621674
H       -0.51814322      -1.12948772      -1.94570378
H        0.10549171       1.22873259      -1.90996271
H        0.76270576       1.40385680       1.18050255
H       -0.74805576       2.65145111      -0.19058510
H       -1.25662115       1.29992461       0.81483761
H        1.81699480      -0.51840456      -1.52446969
H        1.94197993       0.02619279       2.63755942
17
Frame=9 idx=009530 GeodesicLength=0.8646226176731662 rxn_smarts="[C:1]([C@@:2]1([H:11])[C@:3]([C:4]([H:13])([H:14])[H:15])([H:12])[C@:5]1([C:6]#[C:7][H:17])[H:16])([H:8])([H:9])[H:10]>>[C:1]([C@@:2]([C:3](=[C:4]([H:14])[H:15])[H:12])([C:5](=[C:6]=[C:7]([H:13])[H:17])[H:16])[H:11])([H:8])([H:9])[H:10]"
C       -1.20619394      -1.33872151       0.10687238
C       -0.34805344      -0.70086170      -0.95894528
C       -0.21268891       0.78703325      -0.98229182
C       -0.50458693       1.64793427       0.10281969
C        1.13008685      -0.54694383      -0.68353175
C        1.64201966      -0.48527543       0.58344966
C        1.68081417       0.21888415       1.63087837
H       -2.25936270      -1.15497369      -0.11436214
H       -1.00336279      -2.40893432       0.16416996
H       -1.01433799      -0.94935113       1.10717756
H       -0.51264798      -1.13220694      -1.94399210
H        0.10467788       1.22937677      -1.91970065
H        0.76732377       1.41359763       1.20756959
H       -0.79674366       2.64615120      -0.22114820
H       -1.26829785       1.30440500       0.79872759
H        1.82140260      -0.50876213      -1.51625557
H        1.97995126      -0.02135158       2.63856272
17
Frame=10 idx=009530 GeodesicLength=0.9607697689752479 rxn_smarts="[C:1]([C@@:2]1([H:11])[C@:3]([C:4]([H:13])([H:14])[H:15])([H:12])[C@:5]1([C:6]#[C:7][H:17])[H:16])([H:8])([H:9])[H:10]>>[C:1]([C@@:2]([C:3](=[C:4]([H:14])[H:15])[H:12])([C:5](=[C:6]=[C:7]([H:13])[H:17])[H:16])[H:11])([H:8])([H:9])[H:10]"
C       -1.20589006      -1.32924758       0.10970507
C       -0.34716889      -0.69719858      -0.95903680
C       -0.21335191       0.79114617      -0.99049231
C       -0.51605185       1.65808446       0.08882654
C        1.12983708      -0.54043804      -0.67891807
C        1.64382928      -0.49762637       0.58979299
C        1.69712387       0.19597980       1.64406396
H       -2.25869716      -1.15010794      -0.11690394
H       -0.99590504      -2.39726945       0.18002124
H       -1.02105886      -0.93142881       1.10809315
H       -0.50685251      -1.13495411      -1.94202422
H        0.10384120       1.22996368      -1.92974561
H        0.77148454       1.42308216       1.23611739
H       -0.84600706       2.63936224      -0.25260071
H       -1.28001652       1.30914313       0.78229238
H        1.82588035      -0.49871875      -1.50765376
H        2.01900353      -0.06977203       2.63846271
17
Frame=11 idx=009530 GeodesicLength=1.0569103204979944 rxn_smarts="[C:1]([C@@:2]1([H:11])[C@:3]([C:4]([H:13])([H:14])[H:15])([H:12])[C@:5]1([C:6]#[C:7][H:17])[H:16])([H:8])([H:9])[H:10]>>[C:1]([C@@:2]([C:3](=[C:4]([H:14])[H:15])[H:12])([C:5](=[C:6]=[C:7]([H:13])[H:17])[H:16])[H:11])([H:8])([H:9])[H:10]"
C       -1.20555019      -1.31938711       0.11266802
C       -0.34616472      -0.69333086      -0.95900456
C       -0.21407466       0.79542599      -0.99892916
C       -0.52821085       1.66874135       0.07397285
C        1.12961463      -0.53334407      -0.67395605
C        1.64554169      -0.51001788       0.59626014
C        1.71339852       0.17188932       1.65774991
H       -2.25795748      -1.14499927      -0.11937349
H       -0.98841461      -2.38498493       0.19623148
H       -1.02777778      -0.91295256       1.10895371
H       -0.50071808      -1.13774167      -1.93978485
H        0.10298702       1.23047190      -1.94011451
H        0.77514648       1.43228846       1.26625022
H       -0.89575956       2.63104420      -0.28493858
H       -1.29180298       1.31414878       0.76552462
H        1.83043689      -0.48824353      -1.49861257
H        2.05930569      -0.11900813       2.63710282
17
Frame=12 idx=009530 GeodesicLength=1.1530412436226187 rxn_smarts="[C:1]([C@@:2]1([H:11])[C@:3]([C:4]([H:13])([H:14])[H:15])([H:12])[C@:5]1([C:6]#[C:7][H:17])[H:16])([H:8])([H:9])[H:10]>>[C:1]([C@@:2]([C:3](=[C:4]([H:14])[H:15])[H:12])([C:5](=[C:6]=[C:7]([H:13])[H:17])[H:16])[H:11])([H:8])([H:9])[H:10]"
C       -1.20512922      -1.30911869       0.11581014
C       -0.34502572      -0.68925038      -0.95882805
C       -0.21487852       0.79987666      -1.00763116
C       -0.54111953       1.67990873       0.05817470
C        1.12942946      -0.52559683      -0.66865092
C        1.64720088      -0.52240722       0.60280663
C        1.72968106       0.14656219       1.67190218
H       -2.25710401      -1.13964857      -0.12169919
H       -0.98082987      -2.37204464       0.21286896
H       -1.03442997      -0.89387745       1.10978793
H       -0.49423041      -1.14059158      -1.93722909
H        0.10206734       1.23088027      -1.95085255
H        0.77835291       1.44123353       1.29800804
H       -0.94596273       2.62117158      -0.31819789
H       -1.30362788       1.31944851       0.74844001
H        1.83506106      -0.47727727      -1.48915674
H        2.10054514      -0.16926884       2.63444702
17
Frame=13 idx=009530 GeodesicLength=1.2491531383262262 rxn_smarts="[C:1]([C@@:2]1([H:11])[C@:3]([C:4]([H:13])([H:14])[H:15])([H:12])[C@:5]1([C:6]#[C:7][H:17])[H:16])([H:8])([H:9])[H:10]>>[C:1]([C@@:2]([C:3](=[C:4]([H:14])[H:15])[H:12])([C:5](=[C:6]=[C:7]([H:13])[H:17])[H:16])[H:11])([H:8])([H:9])[H:10]"
C       -1.20458565      -1.29841940       0.11917579
C       -0.34373651      -0.68494926      -0.95848911
C       -0.21578344       0.80449876      -1.01662712
C       -0.55482940       1.69158552       0.04134971
C        1.12929142      -0.51713295      -0.66300572
C        1.64884810      -0.53476536       0.60938867
C        1.74601661       0.11992650       1.68648593
H       -2.25610000      -1.13405319      -0.12381590
H       -0.97309684      -2.35841266       0.22999042
H       -1.04095286      -0.87415875       1.11062072
H       -0.48737288      -1.14352496      -1.93431545
H        0.10103949       1.23116734      -1.96200282
H        0.78115005       1.44992581       1.33144911
H       -0.99659185       2.60971359      -0.35240412
H       -1.31546665       1.32506741       0.73105004
H        1.83973943      -0.46576332      -1.47930778
H        2.14243098      -0.22070508       2.63045761
17
Frame=14 idx=009530 GeodesicLength=1.3452689902199149 rxn_smarts="[C:1]([C@@:2]1([H:11])[C@:3]([C:4]([H:13])([H:14])[H:15])([H:12])[C@:5]1([C:6]#[C:7][H:17])[H:16])([H:8])([H:9])[H:10]>>[C:1]([C@@:2]([C:3](=[C:4]([H:14])[H:15])[H:12])([C:5](=[C:6]=[C:7]([H:13])[H:17])[H:16])[H:11])([H:8])([H:9])[H:10]"
C       -1.20391394      -1.28725534       0.12278410
C       -0.34228003      -0.68041290      -0.95796749
C       -0.21679882       0.80929843      -1.02594229
C       -0.56942308       1.70376913       0.02339783
C        1.12920215      -0.50788732      -0.65697531
C        1.65048728      -0.54707992       0.61601617
C        1.76238302       0.09185909       1.70152328
H       -2.25493813      -1.12819336      -0.12571264
H       -0.96520395      -2.34403978       0.24763705
H       -1.04734850      -0.85374398       1.11145961
H       -0.48009656      -1.14655395      -1.93100296
H        0.09990317       1.23130908      -1.97359645
H        0.78355337       1.45834279       1.36668975
H       -1.04768482       2.59659846      -0.38762002
H       -1.32731871       1.33104000       0.71334605
H        1.84447871      -0.45364816      -1.46902321
H        2.18499885      -0.27340227       2.62498654
17
Frame=15 idx=009530 GeodesicLength=1.441388852547906 rxn_smarts="[C:1]([C@@:2]1([H:11])[C@:3]([C:4]([H:13])([H:14])[H:15])([H:12])[C@:5]1([C:6]#[C:7][H:17])[H:16])([H:8])([H:9])[H:10]>>[C:1]([C@@:2]([C:3](=[C:4]([H:14])[H:15])[H:12])([C:5](=[C:6]=[C:7]([H:13])[H:17])[H:16])[H:11])([H:8])([H:9])[H:10]"
C       -1.20312870      -1.27559262       0.12663553
C       -0.34064382      -0.67562812      -0.95724739
C       -0.21792856       0.81427709      -1.03559585
C       -0.58497860       1.71644949       0.00422414
C        1.12915487      -0.49780402      -0.65050038
C        1.65209601      -0.55936605       0.62271729
C        1.77872244       0.06219608       1.71705676
H       -2.25362467      -1.12204234      -0.12740907
H       -0.95717161      -2.32887931       0.26582563
H       -1.05364419      -0.83258568       1.11229258
H       -0.47234970      -1.14968615      -1.92725695
H        0.09867700       1.23128054      -1.98564981
H        0.78554720       1.46643317       1.40388536
H       -1.09925826       2.58175114      -0.42389866
H       -1.33920420       1.33739691       0.69530355
H        1.84928220      -0.44088723      -1.45823595
H        2.22845258      -0.32731290       2.61785321
17
Frame=16 idx=009530 GeodesicLength=1.5375141631259575 rxn_smarts="[C:1]([C@@:2]1([H:11])[C@:3]([C:4]([H:13])([H:14])[H:15])([H:12])[C@:5]1([C:6]#[C:7][H:17])[H:16])([H:8])([H:9])[H:10]>>[C:1]([C@@:2]([C:3](=[C:4]([H:14])[H:15])[H:12])([C:5](=[C:6]=[C:7]([H:13])[H:17])[H:16])[H:11])([H:8])([H:9])[H:10]"
C       -1.20218593      -1.26338192       0.13078395
C       -0.33880027      -0.67057330      -0.95630018
C       -0.21918580       0.81944469      -1.04562483
C       -0.60156854       1.72963139      -0.01629831
C        1.12916308      -0.48678937      -0.64356026
C        1.65372442      -0.57158684       0.62945238
C        1.79507336       0.03080710       1.73305202
H       -2.25211956      -1.11557424      -0.12883627
H       -0.94894315      -2.31286346       0.28463530
H       -1.05978088      -0.81060417       1.11315033
H       -0.46408867      -1.15293769      -1.92301701
H        0.09733277       1.23105296      -1.99821680
H        0.78719792       1.47417790       1.44314824
H       -1.15139618       2.56504342      -0.46130328
H       -1.35107430       1.34418624       0.67692416
H        1.85414632      -0.42740319      -1.44694810
H        2.27250541      -0.38262952       2.60895866
