16
Frame=0 idx=002888 GeodesicLength=0.0 rxn_smarts="[C:1]([C@@:2]1([H:10])[C:3]([H:11])([H:12])[C@@:4]2([H:13])[C:5]([H:14])([H:15])[C@@:6]12[H:16])([H:7])([H:8])[H:9]>>[C:1]([C@@:2]1([H:10])[C:3]([H:11])([H:12])[C:4]([H:13])([H:16])[C:5]([H:14])([H:15])[C:6]1)([H:7])([H:8])[H:9]"
C       -0.94964424      -0.82484973       1.43868049
C       -0.65478870       0.35237929       0.52339454
C        0.81475524       0.82454282       0.40241845
C        0.84060199       0.65613465      -1.11138107
C        0.31122416      -0.72979847      -1.39288023
C       -0.90935176       0.04167787      -0.98449764
H       -0.76819111      -0.55382642       2.48086261
H       -1.99453928      -1.13003595       1.34885591
H       -0.32721814      -1.69238085       1.21094356
H       -1.29331786       1.18479144       0.82468937
H        0.94607130       1.85661052       0.72593840
H        1.55605805       0.20751060       0.91671210
H        1.56402338       1.09397232      -1.79474119
H        0.69716027      -1.49177633      -0.72197108
H        0.33706262      -1.03817925      -2.43363477
H       -0.16990599       1.24322756      -1.43338941
16
Frame=1 idx=002888 GeodesicLength=0.05963412040903727 rxn_smarts="[C:1]([C@@:2]1([H:10])[C:3]([H:11])([H:12])[C@@:4]2([H:13])[C:5]([H:14])([H:15])[C@@:6]12[H:16])([H:7])([H:8])[H:9]>>[C:1]([C@@:2]1([H:10])[C:3]([H:11])([H:12])[C:4]([H:13])([H:16])[C:5]([H:14])([H:15])[C:6]1)([H:7])([H:8])[H:9]"
C       -0.95160357      -0.82295436       1.44862230
C       -0.65287306       0.34477733       0.52346271
C        0.81556751       0.82012157       0.40273751
C        0.83987126       0.66100564      -1.11235119
C        0.31648039      -0.72593093      -1.40102997
C       -0.90549743       0.03368756      -0.98043217
H       -0.77189742      -0.54284829       2.48872386
H       -1.99642937      -1.12805521       1.35851056
H       -0.32909375      -1.69243481       1.22852822
H       -1.29451637       1.18100387       0.81000260
H        0.94661400       1.84969183       0.73421626
H        1.55703202       0.20006915       0.91324280
H        1.57241471       1.09745243      -1.78639084
H        0.70028212      -1.49543803      -0.73689559
H        0.33785415      -1.02839469      -2.44365079
H       -0.18420521       1.24824693      -1.44729628
16
Frame=2 idx=002888 GeodesicLength=0.11925790023498159 rxn_smarts="[C:1]([C@@:2]1([H:10])[C:3]([H:11])([H:12])[C@@:4]2([H:13])[C:5]([H:14])([H:15])[C@@:6]12[H:16])([H:7])([H:8])[H:9]>>[C:1]([C@@:2]1([H:10])[C:3]([H:11])([H:12])[C:4]([H:13])([H:16])[C:5]([H:14])([H:15])[C:6]1)([H:7])([H:8])[H:9]"
C       -0.95365209      -0.82091423       1.45861813
C       -0.65089493       0.33707867       0.52353407
C        0.81646648       0.81556049       0.40309393
C        0.83913656       0.66595405      -1.11326490
C        0.32184973      -0.72195801      -1.40924285
C       -0.90144687       0.02556053      -0.97640382
H       -0.77579720      -0.53158737       2.49653249
H       -1.99839876      -1.12593113       1.36811152
H       -0.33106779      -1.69235184       1.24647615
H       -1.29545954       1.17698602       0.79536205
H        0.94727628       1.84254069       0.74259846
H        1.55805100       0.19241798       0.90973658
H        1.58055882       1.10111578      -1.77794135
H        0.70364623      -1.49899359      -0.75211560
H        0.33869752      -1.01842679      -2.45369906
H       -0.19896546       1.25294874      -1.46139579
16
Frame=3 idx=002888 GeodesicLength=0.17885898719438467 rxn_smarts="[C:1]([C@@:2]1([H:10])[C:3]([H:11])([H:12])[C@@:4]2([H:13])[C:5]([H:14])([H:15])[C@@:6]12[H:16])([H:7])([H:8])[H:9]>>[C:1]([C@@:2]1([H:10])[C:3]([H:11])([H:12])[C:4]([H:13])([H:16])[C:5]([H:14])([H:15])[C:6]1)([H:7])([H:8])[H:9]"
C       -0.95579182      -0.81872754       1.46866139
C       -0.64885146       0.32928349       0.52361226
C        0.81745519       0.81086109       0.40349131
C        0.83840061       0.67097754      -1.11411461
C        0.32732857      -0.71787565      -1.41751398
C       -0.89719639       0.01730245      -0.97240984
H       -0.77988359      -0.52005352       2.50427847
H       -2.00044805      -1.12366446       1.37764666
H       -0.33314824      -1.69212462       1.26477796
H       -1.29614482       1.17274143       0.78078103
H        0.94806092       1.83515961       0.75108002
H        1.55911564       0.18456084       0.90619989
H        1.58845585       1.10495706      -1.76939924
H        0.70725831      -1.50243394      -0.76763170
H        0.33958427      -1.00828027      -2.46377027
H       -0.21419500       1.25731646      -1.47568936
16
Frame=4 idx=002888 GeodesicLength=0.2384464810218919 rxn_smarts="[C:1]([C@@:2]1([H:10])[C:3]([H:11])([H:12])[C@@:4]2([H:13])[C:5]([H:14])([H:15])[C@@:6]12[H:16])([H:7])([H:8])[H:9]>>[C:1]([C@@:2]1([H:10])[C:3]([H:11])([H:12])[C:4]([H:13])([H:16])[C:5]([H:14])([H:15])[C:6]1)([H:7])([H:8])[H:9]"
C       -0.95802437      -0.81638921       1.47875606
C       -0.64673900       0.32138323       0.52369730
C        0.81853879       0.80601287       0.40393069
C        0.83766031       0.67607870      -1.11489595
C        0.33291926      -0.71367718      -1.42584897
C       -0.89274065       0.00890584      -0.96844891
H       -0.78417005      -0.50822571       2.51195825
H       -2.00257852      -1.12125130       1.38711946
H       -0.33533490      -1.69174210       1.28345063
H       -1.29657062       1.16826673       0.76625569
H        0.94897590       1.82753270       0.75966997
H        1.56023094       0.17648238       0.90262578
H        1.59610629       1.10898493      -1.76075885
H        0.71112776      -1.50575206      -0.78346028
H        0.34051570      -0.99793797      -2.47387097
H       -0.22991685       1.26132817      -1.49017991
16
Frame=5 idx=002888 GeodesicLength=0.2980128696932017 rxn_smarts="[C:1]([C@@:2]1([H:10])[C:3]([H:11])([H:12])[C@@:4]2([H:13])[C:5]([H:14])([H:15])[C@@:6]12[H:16])([H:7])([H:8])[H:9]>>[C:1]([C@@:2]1([H:10])[C:3]([H:11])([H:12])[C:4]([H:13])([H:16])[C:5]([H:14])([H:15])[C:6]1)([H:7])([H:8])[H:9]"
C       -0.96035046      -0.81389555       1.48889507
C       -0.64455492       0.31337816       0.52379216
C        0.81971923       0.80101588       0.40441607
C        0.83691881       0.68125370      -1.11560079
C        0.33861830      -0.70935848      -1.43424314
C       -0.88807515       0.00037592      -0.96451985
H       -0.78864773      -0.49611095       2.51956121
H       -2.00478790      -1.11869345       1.39651808
H       -0.33763264      -1.69119245       1.30248563
H       -1.29673601       1.16356413       0.75179568
H        0.95002407       1.81965902       0.76836629
H        1.56139443       0.16818365       0.89902051
H        1.60351163       1.11319544      -1.75202496
H        0.71525582      -1.50893996      -0.79960173
H        0.34148327      -0.98740269      -2.48399249
H       -0.24614076       1.26496763      -1.50486775
16
Frame=6 idx=002888 GeodesicLength=0.35755505066224613 rxn_smarts="[C:1]([C@@:2]1([H:10])[C:3]([H:11])([H:12])[C@@:4]2([H:13])[C:5]([H:14])([H:15])[C@@:6]12[H:16])([H:7])([H:8])[H:9]>>[C:1]([C@@:2]1([H:10])[C:3]([H:11])([H:12])[C:4]([H:13])([H:16])[C:5]([H:14])([H:15])[C:6]1)([H:7])([H:8])[H:9]"
C       -0.96277242      -0.81124391       1.49907680
C       -0.64229655       0.30526468       0.52389889
C        0.82100136       0.79586689       0.40494961
C        0.83617667       0.68650335      -1.11622262
C        0.34442454      -0.70491376      -1.44269653
C       -0.88319546      -0.00828678      -0.96062060
H       -0.79331989      -0.48370417       2.52707972
H       -2.00707755      -1.11599249       1.40583895
H       -0.34004490      -1.69046674       1.32188623
H       -1.29663988       1.15863550       0.73740429
H        0.95121278       1.81153357       0.77717174
H        1.56261012       0.15965899       0.89538298
H        1.61067409       1.11758976      -1.74319675
H        0.71964767      -1.51198915      -0.81606414
H        0.34248212      -0.97666773      -2.49413311
H       -0.26288269       1.26821198      -1.51975544
16
Frame=7 idx=002888 GeodesicLength=0.4170696803280753 rxn_smarts="[C:1]([C@@:2]1([H:10])[C:3]([H:11])([H:12])[C@@:4]2([H:13])[C:5]([H:14])([H:15])[C@@:6]12[H:16])([H:7])([H:8])[H:9]>>[C:1]([C@@:2]1([H:10])[C:3]([H:11])([H:12])[C:4]([H:13])([H:16])[C:5]([H:14])([H:15])[C:6]1)([H:7])([H:8])[H:9]"
C       -0.96529099      -0.80842974       1.50929866
C       -0.63996073       0.29703905       0.52401919
C        0.82238904       0.79056114       0.40553412
C        0.83543436       0.69182667      -1.11675438
C        0.35033657      -0.70033707      -1.45120932
C       -0.87809654      -0.01708266      -0.95674980
H       -0.79818770      -0.47099927       2.53450507
H       -2.00944654      -1.11314768       1.41507771
H       -0.34257452      -1.68955223       1.34165441
H       -1.29628118       1.15348092       0.72308366
H        0.95254784       1.80314854       0.78608977
H        1.56387973       0.15090183       0.89171303
H        1.61759570       1.12216943      -1.73427203
H        0.72430688      -1.51489085      -0.83285585
H        0.34350785      -0.96572544      -2.50429124
H       -0.28015978       1.27103737      -1.53484299
16
Frame=8 idx=002888 GeodesicLength=0.47656759825804906 rxn_smarts="[C:1]([C@@:2]1([H:10])[C:3]([H:11])([H:12])[C@@:4]2([H:13])[C:5]([H:14])([H:15])[C@@:6]12[H:16])([H:7])([H:8])[H:9]>>[C:1]([C@@:2]1([H:10])[C:3]([H:11])([H:12])[C:4]([H:13])([H:16])[C:5]([H:14])([H:15])[C:6]1)([H:7])([H:8])[H:9]"
C       -0.96790913      -0.80544508       1.51956438
C       -0.63754339       0.28869194       0.52415316
C        0.82388763       0.78508541       0.40617132
C        0.83468961       0.69722588      -1.11719029
C        0.35635769      -0.69562064      -1.45978794
C       -0.87277087      -0.02602067      -0.95290649
H       -0.80326769      -0.45797065       2.54183188
H       -2.01189407      -1.11015923       1.42423357
H       -0.34521882      -1.68842984       1.36181346
H       -1.29565603       1.14809634       0.70882955
H        0.95404115       1.79448281       0.79513221
H        1.56520653       0.14189249       0.88800192
H        1.62427452       1.12694766      -1.72524486
H        0.72923937      -1.51763722      -0.84999460
H        0.34456152      -0.95455452      -2.51447459
H       -0.29799800       1.27341533      -1.55013268
16
Frame=9 idx=002888 GeodesicLength=0.5360600701175029 rxn_smarts="[C:1]([C@@:2]1([H:10])[C:3]([H:11])([H:12])[C@@:4]2([H:13])[C:5]([H:14])([H:15])[C@@:6]12[H:16])([H:7])([H:8])[H:9]>>[C:1]([C@@:2]1([H:10])[C:3]([H:11])([H:12])[C:4]([H:13])([H:16])[C:5]([H:14])([H:15])[C:6]1)([H:7])([H:8])[H:9]"
C       -0.97062893      -0.80228157       1.52987717
C       -0.63504139       0.28021502       0.52430074
C        0.82550444       0.77942611       0.40686355
C        0.83393979       0.70270366      -1.11752358
C        0.36249021      -0.69075699      -1.46843959
C       -0.86721285      -0.03511080      -0.94908967
H       -0.80857914      -0.44458842       2.54905236
H       -2.01441989      -1.10702883       1.43330701
H       -0.34797223      -1.68707857       1.38238660
H       -1.29476489       1.14247866       0.69463466
H        0.95570760       1.78551442       0.80431527
H        1.56659631       0.13260852       0.88424099
H        1.63071039       1.13193822      -1.71610795
H        0.73445498      -1.52022084      -0.86750159
H        0.34564092      -0.94313395      -2.52469109
H       -0.31642531       1.27531535      -1.56562488
16
Frame=10 idx=002888 GeodesicLength=0.5955340772904254 rxn_smarts="[C:1]([C@@:2]1([H:10])[C:3]([H:11])([H:12])[C@@:4]2([H:13])[C:5]([H:14])([H:15])[C@@:6]12[H:16])([H:7])([H:8])[H:9]>>[C:1]([C@@:2]1([H:10])[C:3]([H:11])([H:12])[C:4]([H:13])([H:16])[C:5]([H:14])([H:15])[C:6]1)([H:7])([H:8])[H:9]"
C       -0.97344865      -0.79893679       1.54022800
C       -0.63245077       0.27160774       0.52446514
C        0.82724070       0.77358453       0.40761414
C        0.83318855       0.70825433      -1.11774469
C        0.36872871      -0.68573859      -1.47715760
C       -0.86141514      -0.04434462      -0.94529825
H       -0.81410569      -0.43086524       2.55615234
H       -2.01702101      -1.10375051       1.44229167
H       -0.35084747      -1.68549029       1.40335518
H       -1.29360490       1.13662744       0.68050770
H        0.95754477       1.77624389       0.81363213
H        1.56804535       0.12305552       0.88043779
H        1.63690769       1.13713056      -1.70686084
H        0.73995218      -1.52262608      -0.88537532
H        0.34673869      -0.93146492      -2.53492886
H       -0.33545300       1.27671304      -1.58131854
16
Frame=11 idx=002888 GeodesicLength=0.6549917722381324 rxn_smarts="[C:1]([C@@:2]1([H:10])[C:3]([H:11])([H:12])[C@@:4]2([H:13])[C:5]([H:14])([H:15])[C@@:6]12[H:16])([H:7])([H:8])[H:9]>>[C:1]([C@@:2]1([H:10])[C:3]([H:11])([H:12])[C:4]([H:13])([H:16])[C:5]([H:14])([H:15])[C:6]1)([H:7])([H:8])[H:9]"
C       -0.97637007      -0.79540704       1.55061294
C       -0.62976921       0.26286684       0.52464891
C        0.82910237       0.76755754       0.40842591
C        0.83243872       0.71387853      -1.11784489
C        0.37507101      -0.68055926      -1.48594158
C       -0.85537363      -0.05372143      -0.94153012
H       -0.81984846      -0.41679530       2.56311985
H       -2.01969873      -1.10032593       1.45118235
H       -0.35384873      -1.68365331       1.42471943
H       -1.29217539       1.13054485       0.66645204
H        0.95956196       1.76666631       0.82308600
H        1.56955842       0.11322762       0.87659151
H        1.64287216       1.14252621      -1.69749948
H        0.74573375      -1.52484386      -0.90362461
H        0.34784837      -0.91954025      -2.54518493
H       -0.35510256       1.27757846      -1.59721334
16
Frame=12 idx=002888 GeodesicLength=0.7144311478314631 rxn_smarts="[C:1]([C@@:2]1([H:10])[C:3]([H:11])([H:12])[C@@:4]2([H:13])[C:5]([H:14])([H:15])[C@@:6]12[H:16])([H:7])([H:8])[H:9]>>[C:1]([C@@:2]1([H:10])[C:3]([H:11])([H:12])[C:4]([H:13])([H:16])[C:5]([H:14])([H:15])[C:6]1)([H:7])([H:8])[H:9]"
C       -0.97939313      -0.79168692       1.56102730
C       -0.62699291       0.25398853       0.52485410
C        0.83109376       0.76133955       0.40930194
C        0.83169252       0.71957368      -1.11781492
C        0.38151406      -0.67521075      -1.49479070
C       -0.84908141      -0.06323977      -0.93778398
H       -0.82580973      -0.40237127       2.56994198
H       -2.02244981      -1.09675575       1.45997201
H       -0.35697797      -1.68155062       1.44648034
H       -1.29047379       1.12422962       0.65246989
H        0.96176596       1.75677174       0.83267999
H        1.57113667       0.10311796       0.87270188
H        1.64860752       1.14812465      -1.68801870
H        0.75179967      -1.52686103      -0.92225777
H        0.34896320      -0.90734952      -2.55545578
H       -0.37539462       1.27787989      -1.61330759
16
Frame=13 idx=002888 GeodesicLength=0.773851582219358 rxn_smarts="[C:1]([C@@:2]1([H:10])[C:3]([H:11])([H:12])[C@@:4]2([H:13])[C:5]([H:14])([H:15])[C@@:6]12[H:16])([H:7])([H:8])[H:9]>>[C:1]([C@@:2]1([H:10])[C:3]([H:11])([H:12])[C:4]([H:13])([H:16])[C:5]([H:14])([H:15])[C:6]1)([H:7])([H:8])[H:9]"
C       -0.98251793      -0.78777137       1.57146586
C       -0.62411838       0.24496947       0.52508297
C        0.83321974       0.75492570       0.41024539
C        0.83095313       0.72533746      -1.11764512
C        0.38805438      -0.66968492      -1.50370390
C       -0.84253214      -0.07289758      -0.93405844
H       -0.83199164      -0.38758630       2.57660493
H       -2.02527153      -1.09304158       1.46865334
H       -0.36023721      -1.67916560       1.46863767
H       -1.28849802       1.11768143       0.63856389
H        0.96416436       1.74655159       0.84241707
H        1.57278223       0.09272020       0.86876865
H        1.65411922       1.15392493      -1.67841266
H        0.75814905      -1.52866463      -0.94128298
H        0.35007578      -0.89488269      -2.56573753
H       -0.39635103       1.27758391      -1.62959914
16
Frame=14 idx=002888 GeodesicLength=0.8332521719159878 rxn_smarts="[C:1]([C@@:2]1([H:10])[C:3]([H:11])([H:12])[C@@:4]2([H:13])[C:5]([H:14])([H:15])[C@@:6]12[H:16])([H:7])([H:8])[H:9]>>[C:1]([C@@:2]1([H:10])[C:3]([H:11])([H:12])[C:4]([H:13])([H:16])[C:5]([H:14])([H:15])[C:6]1)([H:7])([H:8])[H:9]"
C       -0.98574428      -0.78365549       1.58192253
C       -0.62114221       0.23580669       0.52533784
C        0.83548513       0.74831157       0.41125957
C        0.83022440       0.73116737      -1.11732531
C        0.39468803      -0.66397324      -1.51267957
C       -0.83571935      -0.08269200      -0.93035202
H       -0.83839465      -0.37243485       2.58309383
H       -2.02816104      -1.08918452       1.47721898
H       -0.36362936      -1.67648172       1.49118906
H       -1.28624595       1.11090028       0.62473681
H        0.96676461       1.73599780       0.85229989
H        1.57449704       0.08202882       0.86479201
H        1.65941384       1.15992496      -1.66867464
H        0.76478014      -1.53024064      -0.96070771
H        0.35117820      -0.88212966      -2.57602544
H       -0.41799454       1.27665464      -1.64608582
16
Frame=15 idx=002888 GeodesicLength=0.8926352840576481 rxn_smarts="[C:1]([C@@:2]1([H:10])[C:3]([H:11])([H:12])[C@@:4]2([H:13])[C:5]([H:14])([H:15])[C@@:6]12[H:16])([H:7])([H:8])[H:9]>>[C:1]([C@@:2]1([H:10])[C:3]([H:11])([H:12])[C:4]([H:13])([H:16])[C:5]([H:14])([H:15])[C:6]1)([H:7])([H:8])[H:9]"
C       -0.98907173      -0.77933457       1.59239079
C       -0.61806190       0.22649805       0.52562051
C        0.83789502       0.74149319       0.41234813
C        0.82951128       0.73706089      -1.11684510
C        0.40140970      -0.65806698      -1.52171616
C       -0.82863771      -0.09261916      -0.92666434
H       -0.84502037      -0.35691057       2.58939327
H       -2.03111465      -1.08519004       1.48566024
H       -0.36715351      -1.67348048       1.51413388
H       -1.28371632       1.10388751       0.61099022
H        0.96957553       1.72510263       0.86233223
H        1.57628350       0.07103848       0.86077315
H        1.66450143       1.16612083      -1.65879632
H        0.77168787      -1.53157610      -0.98053980
H        0.35226126      -0.86907939      -2.58631517
H       -0.44034941       1.27505571      -1.66276551
16
Frame=16 idx=002888 GeodesicLength=0.9519909062756285 rxn_smarts="[C:1]([C@@:2]1([H:10])[C:3]([H:11])([H:12])[C@@:4]2([H:13])[C:5]([H:14])([H:15])[C@@:6]12[H:16])([H:7])([H:8])[H:9]>>[C:1]([C@@:2]1([H:10])[C:3]([H:11])([H:12])[C:4]([H:13])([H:16])[C:5]([H:14])([H:15])[C:6]1)([H:7])([H:8])[H:9]"
C       -0.99249882      -0.77480161       1.60286202
C       -0.61487398       0.21704145       0.52593374
C        0.84045214       0.73446536       0.41351397
C        0.82881803       0.74301385      -1.11619292
C        0.40821503      -0.65195533      -1.53081146
C       -0.82127873      -0.10267473      -0.92299246
H       -0.85187008      -0.34100786       2.59548475
H       -2.03412518      -1.08105937       1.49396919
H       -0.37081034      -1.67013887       1.53746543
H       -1.28090553       1.09664304       0.59732842
H        0.97260251       1.71385487       0.87251711
H        1.57814025       0.05974446       0.85671061
H        1.66938992       1.17250417      -1.64876808
H        0.77886575      -1.53265335      -1.00078839
H        0.35331883      -0.85571835      -2.59660043
H       -0.46343979       1.27274228      -1.67963153
