16
Frame=0 idx=007999 GeodesicLength=0.0 rxn_smarts="[C:1]([C:2]#[C:3][C:4]([C@@:5]1([H:13])[C:6]([H:14])([H:15])[N:7]1[H:16])([H:11])[H:12])([H:8])([H:9])[H:10]>>[C:1](=[C:2]=[C:3]1[C:4]([H:11])([H:12])[C@@:5]2([H:13])[C@:6]1([H:15])[N:7]2[H:16])([H:8])[H:9].[H:10][H:14]"
C        2.02051303       1.22532880       1.03773050
C        1.71679624       0.08729329       0.36678157
C        0.74144419      -0.55337500      -0.08510003
C        0.06781530      -1.60812687      -0.87283957
C       -1.30705839      -1.01040460      -0.69543312
C       -1.05159412       0.16557271       0.19484683
N       -1.40521677       0.34819063      -1.20127023
H        2.38597280       2.08479172       0.48346927
H        2.32737643       1.18155016       2.07912632
H        0.52452608       1.67895111       1.14213004
H        0.14597685      -2.58200764      -0.38498342
H        0.41737684      -1.69315778      -1.90306301
H       -2.20423366      -1.61543466      -0.63291415
H       -0.20434918       1.29243253       0.82101580
H       -1.79902793       0.37972415       0.95293856
H       -2.37631775       0.61867149      -1.30243535
16
Frame=1 idx=007999 GeodesicLength=0.08720003274216695 rxn_smarts="[C:1]([C:2]#[C:3][C:4]([C@@:5]1([H:13])[C:6]([H:14])([H:15])[N:7]1[H:16])([H:11])[H:12])([H:8])([H:9])[H:10]>>[C:1](=[C:2]=[C:3]1[C:4]([H:11])([H:12])[C@@:5]2([H:13])[C@:6]1([H:15])[N:7]2[H:16])([H:8])[H:9].[H:10][H:14]"
C        2.02883176       1.22238467       1.05155533
C        1.71570115       0.08391673       0.38133408
C        0.73791722      -0.54954595      -0.07586040
C        0.06878284      -1.59970837      -0.87492769
C       -1.31168743      -1.01611362      -0.68992853
C       -1.06584560       0.17316486       0.18334038
N       -1.42633612       0.33432139      -1.21461423
H        2.40695262       2.07575541       0.49615666
H        2.35717639       1.16731112       2.08599602
H        0.52949604       1.70172524       1.15201974
H        0.15524731      -2.57915926      -0.40024289
H        0.41631810      -1.66601248      -1.90717753
H       -2.20001463      -1.63146660      -0.60705509
H       -0.19909383       1.29644799       0.79376326
H       -1.81230787       0.39516608       0.94012465
H       -2.40113793       0.59181280      -1.31448377
16
Frame=2 idx=007999 GeodesicLength=0.17452064926502356 rxn_smarts="[C:1]([C:2]#[C:3][C:4]([C@@:5]1([H:13])[C:6]([H:14])([H:15])[N:7]1[H:16])([H:11])[H:12])([H:8])([H:9])[H:10]>>[C:1](=[C:2]=[C:3]1[C:4]([H:11])([H:12])[C@@:5]2([H:13])[C@:6]1([H:15])[N:7]2[H:16])([H:8])[H:9].[H:10][H:14]"
C        2.03682344       1.21951499       1.06548874
C        1.71442043       0.08059350       0.39602786
C        0.73437562      -0.54602462      -0.06621947
C        0.06968561      -1.59122050      -0.87688761
C       -1.31615195      -1.02155757      -0.68453540
C       -1.08004649       0.18074611       0.17156182
N       -1.44721361       0.32026197      -1.22793397
H        2.42692603       2.06670194       0.50861883
H        2.38768904       1.15283535       2.09200161
H        0.53424620       1.72461309       1.16215025
H        0.16423470      -2.57608230      -0.41557729
H        0.41524335      -1.63877385      -1.91080147
H       -2.19531792      -1.64670287      -0.58125575
H       -0.19368212       1.29975209       0.76684270
H       -1.82569153       0.41054842       0.92682269
H       -2.42554080       0.56479424      -1.32630353
16
Frame=3 idx=007999 GeodesicLength=0.26176048256758566 rxn_smarts="[C:1]([C:2]#[C:3][C:4]([C@@:5]1([H:13])[C:6]([H:14])([H:15])[N:7]1[H:16])([H:11])[H:12])([H:8])([H:9])[H:10]>>[C:1](=[C:2]=[C:3]1[C:4]([H:11])([H:12])[C@@:5]2([H:13])[C@:6]1([H:15])[N:7]2[H:16])([H:8])[H:9].[H:10][H:14]"
C        2.04451444       1.21673162       1.07949647
C        1.71290766       0.07724787       0.41101018
C        0.73077155      -0.54287879      -0.05604932
C        0.07053333      -1.58266352      -0.87870355
C       -1.32045974      -1.02672557      -0.67931318
C       -1.09422762       0.18825761       0.15955844
N       -1.46778147       0.30607254      -1.24119337
H        2.44590097       2.05757289       0.52065817
H        2.41896473       1.13829155       2.09701076
H        0.53885080       1.74774867       1.17243066
H        0.17289994      -2.57280407      -0.43101906
H        0.41424275      -1.61138525      -1.91389340
H       -2.19018797      -1.66112015      -0.55569088
H       -0.18822480       1.30219323       0.74055070
H       -1.83925740       0.42575022       0.91305471
H       -2.44944716       0.53771115      -1.33790734
16
Frame=4 idx=007999 GeodesicLength=0.3488992473855166 rxn_smarts="[C:1]([C:2]#[C:3][C:4]([C@@:5]1([H:13])[C:6]([H:14])([H:15])[N:7]1[H:16])([H:11])[H:12])([H:8])([H:9])[H:10]>>[C:1](=[C:2]=[C:3]1[C:4]([H:11])([H:12])[C@@:5]2([H:13])[C@:6]1([H:15])[N:7]2[H:16])([H:8])[H:9].[H:10][H:14]"
C        2.05194063       1.21402577       1.09359505
C        1.71113377       0.07389023       0.42629995
C        0.72707291      -0.54010241      -0.04533335
C        0.07133319      -1.57403659      -0.88035863
C       -1.32462861      -1.03162774      -0.67428519
C       -1.10840651       0.19569070       0.14731151
N       -1.48804307       0.29175100      -1.25441924
H        2.46387874       2.04838731       0.53225075
H        2.45107613       1.12365464       2.10092551
H        0.54339051       1.77118473       1.18300267
H        0.18125316      -2.56931585      -0.44653605
H        0.41334971      -1.58384643      -1.91642610
H       -2.18465707      -1.67472963      -0.53039613
H       -0.18279985       1.30375841       0.71490726
H       -1.85303067       0.44075160       0.89880132
H       -2.47286296       0.51056426      -1.34933932
16
Frame=5 idx=007999 GeodesicLength=0.4356646937803969 rxn_smarts="[C:1]([C:2]#[C:3][C:4]([C@@:5]1([H:13])[C:6]([H:14])([H:15])[N:7]1[H:16])([H:11])[H:12])([H:8])([H:9])[H:10]>>[C:1](=[C:2]=[C:3]1[C:4]([H:11])([H:12])[C@@:5]2([H:13])[C@:6]1([H:15])[N:7]2[H:16])([H:8])[H:9].[H:10][H:14]"
C        2.05911449       1.21138880       1.10779550
C        1.70906565       0.07048946       0.44196257
C        0.72325500      -0.53768969      -0.03405626
C        0.07209879      -1.56532845      -0.88184803
C       -1.32866606      -1.03627378      -0.66946506
C       -1.12259352       0.20302745       0.13483217
N       -1.50799431       0.27730832      -1.26760555
H        2.48090389       2.03909203       0.54336487
H        2.48397401       1.10895858       2.10367467
H        0.54797213       1.79501039       1.19380671
H        0.18931535      -2.56560635      -0.46213098
H        0.41259649      -1.55612992      -1.91838522
H       -2.17875501      -1.68754779      -0.50543109
H       -0.17747638       1.30442625       0.69000206
H       -1.86702617       0.45550157       0.88408256
H       -2.49578436       0.48337313      -1.36059892
16
Frame=6 idx=007999 GeodesicLength=0.5222534262276006 rxn_smarts="[C:1]([C:2]#[C:3][C:4]([C@@:5]1([H:13])[C:6]([H:14])([H:15])[N:7]1[H:16])([H:11])[H:12])([H:8])([H:9])[H:10]>>[C:1](=[C:2]=[C:3]1[C:4]([H:11])([H:12])[C@@:5]2([H:13])[C@:6]1([H:15])[N:7]2[H:16])([H:8])[H:9].[H:10][H:14]"
C        2.06609345       1.20879438       1.12213564
C        1.70671391       0.06714498       0.45785440
C        0.71930738      -0.53559197      -0.02228567
C        0.07282521      -1.55656225      -0.88313630
C       -1.33259421      -1.04067773      -0.66484346
C       -1.13677538       0.21031596       0.12202359
N       -1.52766024       0.26268535      -1.28085004
H        2.49681333       2.02986237       0.55410649
H        2.51780913       1.09403536       2.10509433
H        0.55261544       1.81905337       1.20546029
H        0.19710473      -2.56165827      -0.47767708
H        0.41196279      -1.52833901      -1.91974182
H       -2.17251600      -1.69956599      -0.48071128
H       -0.17224653       1.30431447       0.66554655
H       -1.88120901       0.47011499       0.86880284
H       -2.51824400       0.45607401      -1.37177846
16
Frame=7 idx=007999 GeodesicLength=0.6086799269223779 rxn_smarts="[C:1]([C:2]#[C:3][C:4]([C@@:5]1([H:13])[C:6]([H:14])([H:15])[N:7]1[H:16])([H:11])[H:12])([H:8])([H:9])[H:10]>>[C:1](=[C:2]=[C:3]1[C:4]([H:11])([H:12])[C@@:5]2([H:13])[C@:6]1([H:15])[N:7]2[H:16])([H:8])[H:9].[H:10][H:14]"
C        2.07290952       1.20621423       1.13665953
C        1.70408852       0.06393582       0.47384801
C        0.71523229      -0.53374158      -0.01011892
C        0.07351010      -1.54775307      -0.88420315
C       -1.33642321      -1.04485742      -0.66039505
C       -1.15093146       0.21760346       0.10880356
N       -1.54707235       0.24781476      -1.29422124
H        2.51150424       2.02081964       0.56461244
H        2.55261504       1.07873961       2.10505216
H        0.55735954       1.84315639       1.21843706
H        0.20465062      -2.55744994      -0.49307009
H        0.41141043      -1.50057080      -1.92048963
H       -2.16596205      -1.71078504      -0.45614605
H       -0.16708893       1.30358653       0.64126187
H       -1.89552459       0.48469175       0.85289283
H       -2.54027771       0.42859567      -1.38292334
16
Frame=8 idx=007999 GeodesicLength=0.6949269199438904 rxn_smarts="[C:1]([C:2]#[C:3][C:4]([C@@:5]1([H:13])[C:6]([H:14])([H:15])[N:7]1[H:16])([H:11])[H:12])([H:8])([H:9])[H:10]>>[C:1](=[C:2]=[C:3]1[C:4]([H:11])([H:12])[C@@:5]2([H:13])[C@:6]1([H:15])[N:7]2[H:16])([H:8])[H:9].[H:10][H:14]"
C        2.07959542       1.20362215       1.15140078
C        1.70122161       0.06093221       0.48981816
C        0.71104409      -0.53209352       0.00235599
C        0.07414827      -1.53892870      -0.88502929
C       -1.34016436      -1.04881574      -0.65609398
C       -1.16502227       0.22493573       0.09508463
N       -1.56624087       0.23263803      -1.30778389
H        2.52484265       2.01210931       0.57498782
H        2.58839613       1.06298384       2.10338798
H        0.56218603       1.86712973       1.23324956
H        0.21196024      -2.55297913      -0.50820295
H        0.41090354      -1.47293400      -1.92062905
H       -2.15912219      -1.72116083      -0.43163954
H       -0.16194276       1.30232617       0.61689592
H       -1.90990324       0.49934278       0.83626856
H       -2.56190231       0.40089197      -1.39407069
16
Frame=9 idx=007999 GeodesicLength=0.7809179769907303 rxn_smarts="[C:1]([C:2]#[C:3][C:4]([C@@:5]1([H:13])[C:6]([H:14])([H:15])[N:7]1[H:16])([H:11])[H:12])([H:8])([H:9])[H:10]>>[C:1](=[C:2]=[C:3]1[C:4]([H:11])([H:12])[C@@:5]2([H:13])[C@:6]1([H:15])[N:7]2[H:16])([H:8])[H:9].[H:10][H:14]"
C        2.08622202       1.20096591       1.16632883
C        1.69817875       0.05836921       0.50531611
C        0.70679074      -0.53052265       0.01491134
C        0.07469995      -1.53016103      -0.88554576
C       -1.34383144      -1.05257856      -0.65185835
C       -1.17898003       0.23242598       0.08068204
N       -1.58522707       0.21699665      -1.32166524
H        2.53641932       2.00407891       0.58584032
H        2.62520051       1.04663682       2.09975396
H        0.56725604       1.89013046       1.25101927
H        0.21903309      -2.54822606      -0.52279188
H        0.41028764      -1.44573151      -1.92014238
H       -2.15200688      -1.73066681      -0.40699472
H       -0.15668178       1.30109566       0.59169636
H       -1.92418902       0.51436655       0.81876194
H       -2.58317184       0.37282047      -1.40531184
16
Frame=10 idx=007999 GeodesicLength=0.8666262844808363 rxn_smarts="[C:1]([C:2]#[C:3][C:4]([C@@:5]1([H:13])[C:6]([H:14])([H:15])[N:7]1[H:16])([H:11])[H:12])([H:8])([H:9])[H:10]>>[C:1](=[C:2]=[C:3]1[C:4]([H:11])([H:12])[C@@:5]2([H:13])[C@:6]1([H:15])[N:7]2[H:16])([H:8])[H:9].[H:10][H:14]"
C        2.09279012       1.19824148       1.18147735
C        1.69498943       0.05614092       0.52048653
C        0.70246992      -0.52907846       0.02759699
C        0.07517794      -1.52146956      -0.88576055
C       -1.34742792      -1.05610445      -0.64771930
C       -1.19277486       0.24005455       0.06559496
N       -1.60393465       0.20094795      -1.33585949
H        2.54625481       1.99677135       0.59678071
H        2.66297886       1.02978850       2.09406517
H        0.57235707       1.91242092       1.27182780
H        0.22582898      -2.54325061      -0.53684826
H        0.40963518      -1.41895829      -1.91904497
H       -2.14468108      -1.73918914      -0.38224673
H       -0.15128254       1.29948044       0.56595816
H       -1.93838728       0.52971026       0.80033691
H       -2.60399398       0.34449413      -1.41664528
16
Frame=11 idx=007999 GeodesicLength=0.9521170738085852 rxn_smarts="[C:1]([C:2]#[C:3][C:4]([C@@:5]1([H:13])[C:6]([H:14])([H:15])[N:7]1[H:16])([H:11])[H:12])([H:8])([H:9])[H:10]>>[C:1](=[C:2]=[C:3]1[C:4]([H:11])([H:12])[C@@:5]2([H:13])[C@:6]1([H:15])[N:7]2[H:16])([H:8])[H:9].[H:10][H:14]"
C        2.09932787       1.19541881       1.19684930
C        1.69172812       0.05434629       0.53508364
C        0.69812407      -0.52769061       0.04026630
C        0.07555813      -1.51291761      -0.88563857
C       -1.35096097      -1.05938470      -0.64363355
C       -1.20633636       0.24789532       0.04969145
N       -1.62235357       0.18441288      -1.35044999
H        2.55410244       1.99045296       0.60800189
H        2.70172047       1.01239430       2.08606778
H        0.57745576       1.93359644       1.29648716
H        0.23231779      -2.53808324      -0.55018420
H        0.40887027      -1.39283846      -1.91735630
H       -2.13717980      -1.74664112      -0.35724396
H       -0.14563344       1.29760767       0.53933639
H       -1.95238166       0.54555877       0.78085021
H       -2.62435911       0.31587229      -1.42812754
16
Frame=12 idx=007999 GeodesicLength=1.0374186251504618 rxn_smarts="[C:1]([C:2]#[C:3][C:4]([C@@:5]1([H:13])[C:6]([H:14])([H:15])[N:7]1[H:16])([H:11])[H:12])([H:8])([H:9])[H:10]>>[C:1](=[C:2]=[C:3]1[C:4]([H:11])([H:12])[C@@:5]2([H:13])[C@:6]1([H:15])[N:7]2[H:16])([H:8])[H:9].[H:10][H:14]"
C        2.10586686       1.19247129       1.21242077
C        1.68848453       0.05306084       0.54888655
C        0.69380300      -0.52632134       0.05280096
C        0.07581539      -1.50458425      -0.88514334
C       -1.35443931      -1.06239322      -0.63956027
C       -1.21958187       0.25600782       0.03284893
N       -1.64044375       0.16733453      -1.36549810
H        2.55972922       1.98540062       0.61963540
H        2.74137713       0.99450450       2.07548609
H        0.58246344       1.95324205       1.32578560
H        0.23844227      -2.53278293      -0.56261939
H        0.40793293      -1.36759901      -1.91509560
H       -2.12955160      -1.75288787      -0.33187410
H       -0.13961405       1.29550519       0.51156773
H       -1.96605619       0.56208128       0.76015304
H       -2.64422801       0.28696049      -1.43979427
16
Frame=13 idx=007999 GeodesicLength=1.1226190023762361 rxn_smarts="[C:1]([C:2]#[C:3][C:4]([C@@:5]1([H:13])[C:6]([H:14])([H:15])[N:7]1[H:16])([H:11])[H:12])([H:8])([H:9])[H:10]>>[C:1](=[C:2]=[C:3]1[C:4]([H:11])([H:12])[C@@:5]2([H:13])[C@:6]1([H:15])[N:7]2[H:16])([H:8])[H:9].[H:10][H:14]"
C        2.11244856       1.18935025       1.22818548
C        1.68538244       0.05239795       0.56158033
C        0.68958081      -0.52488989       0.06500206
C        0.07591341      -1.49656100      -0.88425237
C       -1.35787035      -1.06511541      -0.63543317
C       -1.23240850       0.26448287       0.01490860
N       -1.65819643       0.14960919      -1.38108175
H        2.56288552       1.98193385       0.63193426
H        2.78186207       0.97613998       2.06206415
H        0.58726997       1.97084983       1.36065269
H        0.24414094      -2.52741309      -0.57394118
H        0.40671390      -1.34352958      -1.91231872
H       -2.12183870      -1.75780418      -0.30593540
H       -0.13304702       1.29332589       0.48223303
H       -1.97924295       0.57950964       0.73807590
H       -2.66359368       0.25771369      -1.45167392
16
Frame=14 idx=007999 GeodesicLength=1.2077350580043325 rxn_smarts="[C:1]([C:2]#[C:3][C:4]([C@@:5]1([H:13])[C:6]([H:14])([H:15])[N:7]1[H:16])([H:11])[H:12])([H:8])([H:9])[H:10]>>[C:1](=[C:2]=[C:3]1[C:4]([H:11])([H:12])[C@@:5]2([H:13])[C@:6]1([H:15])[N:7]2[H:16])([H:8])[H:9].[H:10][H:14]"
C        2.11908709       1.18601865       1.24412127
C        1.68255965       0.05247264       0.57284151
C        0.68554096      -0.52334240       0.07669585
C        0.07581014      -1.48895657      -0.88292630
C       -1.36126660      -1.06750470      -0.63118436
C       -1.24470193       0.27340195      -0.00430055
N       -1.67557644       0.13115434      -1.39726380
H        2.56328891       1.98040440       0.64519382
H        2.82309701       0.95745317       2.04544749
H        0.59176365       1.98575964       1.40201488
H        0.24932222      -2.52206715      -0.58391594
H        0.40512405      -1.32094343      -1.90907695
H       -2.11409316      -1.76117980      -0.27923481
H       -0.12575982       1.29112115       0.45096362
H       -1.99176879       0.59807816       0.71440333
H       -2.68242694       0.22812997      -1.46377906
16
Frame=15 idx=007999 GeodesicLength=1.2928744869238635 rxn_smarts="[C:1]([C:2]#[C:3][C:4]([C@@:5]1([H:13])[C:6]([H:14])([H:15])[N:7]1[H:16])([H:11])[H:12])([H:8])([H:9])[H:10]>>[C:1](=[C:2]=[C:3]1[C:4]([H:11])([H:12])[C@@:5]2([H:13])[C@:6]1([H:15])[N:7]2[H:16])([H:8])[H:9].[H:10][H:14]"
C        2.12580841       1.18240315       1.26023198
C        1.68020461       0.05343552       0.58223349
C        0.68180280      -0.52156910       0.08759937
C        0.07544821      -1.48189541      -0.88114933
C       -1.36463803      -1.06952565      -0.62670931
C       -1.25631340       0.28287433      -0.02499769
N       -1.69259518       0.11182671      -1.41411094
H        2.56065123       1.98120286       0.65985640
H        2.86491651       0.93858384       2.02535290
H        0.59578775       1.99722845       1.45091142
H        0.25388520      -2.51684633      -0.59228671
H        0.40300550      -1.30022678      -1.90547761
H       -2.10635252      -1.76280789      -0.25147709
H       -0.11748332       1.28907004       0.41719435
H       -2.00338237       0.61809784       0.68890715
H       -2.70074540       0.19814841      -1.47607839
16
Frame=16 idx=007999 GeodesicLength=1.3781533002220705 rxn_smarts="[C:1]([C:2]#[C:3][C:4]([C@@:5]1([H:13])[C:6]([H:14])([H:15])[N:7]1[H:16])([H:11])[H:12])([H:8])([H:9])[H:10]>>[C:1](=[C:2]=[C:3]1[C:4]([H:11])([H:12])[C@@:5]2([H:13])[C@:6]1([H:15])[N:7]2[H:16])([H:8])[H:9].[H:10][H:14]"
C        2.13261729       1.17842487       1.27651879
C        1.67851309       0.05545210       0.58928276
C        0.67849128      -0.51947879       0.09744939
C        0.07476425      -1.47553348      -0.87887636
C       -1.36800015      -1.07111395      -0.62190872
C       -1.26709402       0.29301834      -0.04743325
N       -1.70923903       0.09149285      -1.43169511
H        2.55458290       1.98476593       0.67645985
H        2.90728859       0.91983328       2.00131077
H        0.59920277       2.00429219       1.50849710
H        0.25768950      -2.51189342      -0.59872880
H        0.40022627      -1.28183297      -1.90161514
H       -2.09866574      -1.76239671      -0.22237281
H       -0.10798916       1.28730330       0.38039977
H       -2.01384813       0.63991201       0.66127889
H       -2.71853970       0.16775443      -1.48856713
